data_str_m1_o2_o5_pcu_sym.16
_audit_creation_date              2020-01-03
_audit_creation_method            'Materials Studio'
_symmetry_space_group_name_H-M    'P1'
_symmetry_Int_Tables_number       1
_symmetry_cell_setting            triclinic
loop_
_symmetry_equiv_pos_as_xyz
  x,y,z
_cell_length_a                    24.5907
_cell_length_b                    24.6432
_cell_length_c                    22.3757
_cell_angle_alpha                 89.8183
_cell_angle_beta                  89.9875
_cell_angle_gamma                 90.0498
loop_
_atom_site_label
_atom_site_type_symbol
_atom_site_fract_x
_atom_site_fract_y
_atom_site_fract_z
_atom_site_U_iso_or_equiv
_atom_site_adp_type
_atom_site_occupancy
C1     C     0.23732   0.28036   0.24173   0.00000  Uiso   1.00
C2     C     0.77310   0.72991   0.74740   0.00000  Uiso   1.00
C3     C     0.27060   0.77158   0.24775   0.00000  Uiso   1.00
C4     C     0.73144   0.22554   0.74612   0.00000  Uiso   1.00
C5     C     0.77077   0.72873   0.24715   0.00000  Uiso   1.00
C6     C     0.22957   0.27289   0.75189   0.00000  Uiso   1.00
C7     C     0.71820   0.23841   0.23824   0.00000  Uiso   1.00
C8     C     0.26559   0.77723   0.74410   0.00000  Uiso   1.00
C9     C     0.77466   0.26765   0.74563   0.00000  Uiso   1.00
C10    C     0.22819   0.72872   0.24578   0.00000  Uiso   1.00
C11    C     0.73059   0.77286   0.74757   0.00000  Uiso   1.00
C12    C     0.27848   0.23597   0.24407   0.00000  Uiso   1.00
C13    C     0.22173   0.73539   0.74049   0.00000  Uiso   1.00
C14    C     0.76231   0.28000   0.24497   0.00000  Uiso   1.00
C15    C     0.27214   0.23007   0.75254   0.00000  Uiso   1.00
C16    C     0.72820   0.77141   0.24759   0.00000  Uiso   1.00
C17    C    -0.00001   0.50001   0.47328   0.00000  Uiso   1.00
C18    C     0.00001   0.50001   0.52672   0.00000  Uiso   1.00
C19    C     0.50000   0.99993   0.47327   0.00000  Uiso   1.00
C20    C     0.50000   0.00007   0.52673   0.00000  Uiso   1.00
C21    C     0.50000   0.00002   0.97328   0.00000  Uiso   1.00
C22    C     0.50000   0.00002   0.02673   0.00000  Uiso   1.00
C23    C     0.00001   0.49992   0.97327   0.00000  Uiso   1.00
C24    C     0.00002   0.50007   0.02673   0.00000  Uiso   1.00
C25    C     0.00001   0.50005   0.09014   0.00000  Uiso   1.00
C26    C     0.00001   0.49994   0.90986   0.00000  Uiso   1.00
C27    C     0.50000   0.00001   0.09011   0.00000  Uiso   1.00
C28    C     0.50000   0.00001   0.90989   0.00000  Uiso   1.00
C29    C     0.50000   0.00005   0.59014   0.00000  Uiso   1.00
C30    C     0.50000   0.99995   0.40986   0.00000  Uiso   1.00
C31    C     0.00000   0.50000   0.59011   0.00000  Uiso   1.00
C32    C    -0.00000   0.50001   0.40989   0.00000  Uiso   1.00
C33    C     0.10514   0.60520   0.24990   0.00000  Uiso   1.00
C34    C     0.89484   0.39462   0.74991   0.00000  Uiso   1.00
C35    C     0.60529   0.89495   0.25024   0.00000  Uiso   1.00
C36    C     0.39485   0.10539   0.75026   0.00000  Uiso   1.00
C37    C     0.89464   0.39487   0.25049   0.00000  Uiso   1.00
C38    C     0.10499   0.60542   0.74942   0.00000  Uiso   1.00
C39    C     0.39507   0.10555   0.24964   0.00000  Uiso   1.00
C40    C     0.60523   0.89475   0.75033   0.00000  Uiso   1.00
C41    C     0.89505   0.60530   0.74965   0.00000  Uiso   1.00
C42    C     0.10599   0.39548   0.24859   0.00000  Uiso   1.00
C43    C     0.39463   0.89502   0.75015   0.00000  Uiso   1.00
C44    C     0.60498   0.10541   0.24932   0.00000  Uiso   1.00
C45    C     0.10562   0.39536   0.75088   0.00000  Uiso   1.00
C46    C     0.89476   0.60536   0.24999   0.00000  Uiso   1.00
C47    C     0.60528   0.10508   0.74996   0.00000  Uiso   1.00
C48    C     0.39449   0.89497   0.25026   0.00000  Uiso   1.00
C49    C     0.19617   0.27891   0.19774   0.00000  Uiso   1.00
C50    C     0.82854   0.74318   0.74030   0.00000  Uiso   1.00
C51    C     0.26471   0.81955   0.21376   0.00000  Uiso   1.00
C52    C     0.74418   0.16972   0.74203   0.00000  Uiso   1.00
C53    C     0.81820   0.73436   0.21188   0.00000  Uiso   1.00
C54    C     0.17383   0.25918   0.74669   0.00000  Uiso   1.00
C55    C     0.72965   0.18850   0.20909   0.00000  Uiso   1.00
C56    C     0.25474   0.83332   0.73675   0.00000  Uiso   1.00
C57    C     0.82126   0.26232   0.78184   0.00000  Uiso   1.00
C58    C     0.17291   0.74263   0.25162   0.00000  Uiso   1.00
C59    C     0.73757   0.82055   0.78135   0.00000  Uiso   1.00
C60    C     0.26117   0.18139   0.24078   0.00000  Uiso   1.00
C61    C     0.17135   0.74258   0.76988   0.00000  Uiso   1.00
C62    C     0.81598   0.26272   0.25774   0.00000  Uiso   1.00
C63    C     0.26495   0.18166   0.78545   0.00000  Uiso   1.00
C64    C     0.74270   0.82667   0.25361   0.00000  Uiso   1.00
C65    C     0.68152   0.76567   0.71573   0.00000  Uiso   1.00
C66    C     0.33465   0.24707   0.24786   0.00000  Uiso   1.00
C67    C     0.76845   0.31491   0.71055   0.00000  Uiso   1.00
C68    C     0.24229   0.67335   0.24042   0.00000  Uiso   1.00
C69    C     0.32052   0.23695   0.71960   0.00000  Uiso   1.00
C70    C     0.67242   0.75757   0.24347   0.00000  Uiso   1.00
C71    C     0.23152   0.68570   0.71055   0.00000  Uiso   1.00
C72    C     0.75310   0.33638   0.23851   0.00000  Uiso   1.00
C73    C     0.31701   0.76518   0.28400   0.00000  Uiso   1.00
C74    C     0.67625   0.24079   0.75181   0.00000  Uiso   1.00
C75    C     0.23843   0.32417   0.28210   0.00000  Uiso   1.00
C76    C     0.75869   0.67476   0.75463   0.00000  Uiso   1.00
C77    C     0.66600   0.24525   0.26391   0.00000  Uiso   1.00
C78    C     0.31986   0.76114   0.75623   0.00000  Uiso   1.00
C79    C     0.76498   0.68219   0.28328   0.00000  Uiso   1.00
C80    C     0.24368   0.32844   0.75789   0.00000  Uiso   1.00
C81    C     0.14931   0.31125   0.20445   0.00000  Uiso   1.00
C82    C     0.86816   0.70341   0.75096   0.00000  Uiso   1.00
C83    C     0.30145   0.86225   0.22110   0.00000  Uiso   1.00
C84    C     0.70368   0.13133   0.75414   0.00000  Uiso   1.00
C85    C     0.86140   0.69827   0.22082   0.00000  Uiso   1.00
C86    C     0.13487   0.29873   0.75907   0.00000  Uiso   1.00
C87    C     0.69642   0.14337   0.22032   0.00000  Uiso   1.00
C88    C     0.29557   0.87097   0.75016   0.00000  Uiso   1.00
C89    C     0.86337   0.30048   0.77629   0.00000  Uiso   1.00
C90    C     0.13296   0.70272   0.24371   0.00000  Uiso   1.00
C91    C     0.69962   0.86278   0.77597   0.00000  Uiso   1.00
C92    C     0.29960   0.13963   0.23477   0.00000  Uiso   1.00
C93    C     0.13093   0.70263   0.76361   0.00000  Uiso   1.00
C94    C     0.85992   0.29877   0.24981   0.00000  Uiso   1.00
C95    C     0.30185   0.13894   0.77823   0.00000  Uiso   1.00
C96    C     0.70303   0.86688   0.24657   0.00000  Uiso   1.00
C97    C     0.63821   0.80132   0.72541   0.00000  Uiso   1.00
C98    C     0.37118   0.20434   0.25825   0.00000  Uiso   1.00
C99    C     0.80350   0.35883   0.71902   0.00000  Uiso   1.00
C100   C     0.20294   0.63378   0.25195   0.00000  Uiso   1.00
C101   C     0.36291   0.19958   0.72560   0.00000  Uiso   1.00
C102   C     0.63315   0.79737   0.25422   0.00000  Uiso   1.00
C103   C     0.19736   0.64133   0.72161   0.00000  Uiso   1.00
C104   C     0.79508   0.37268   0.25239   0.00000  Uiso   1.00
C105   C     0.35970   0.80271   0.27920   0.00000  Uiso   1.00
C106   C     0.63552   0.20197   0.74335   0.00000  Uiso   1.00
C107   C     0.20065   0.36642   0.27362   0.00000  Uiso   1.00
C108   C     0.79776   0.63448   0.74529   0.00000  Uiso   1.00
C109   C     0.62684   0.20424   0.25647   0.00000  Uiso   1.00
C110   C     0.36225   0.79860   0.74881   0.00000  Uiso   1.00
C111   C     0.80168   0.63921   0.27726   0.00000  Uiso   1.00
C112   C     0.20387   0.36826   0.74848   0.00000  Uiso   1.00
C113   C     0.15131   0.35590   0.24377   0.00000  Uiso   1.00
C114   C     0.85328   0.64814   0.74867   0.00000  Uiso   1.00
C115   C     0.35121   0.85316   0.25079   0.00000  Uiso   1.00
C116   C     0.64853   0.14656   0.74919   0.00000  Uiso   1.00
C117   C     0.85224   0.64800   0.24947   0.00000  Uiso   1.00
C118   C     0.14856   0.35376   0.75230   0.00000  Uiso   1.00
C119   C     0.64372   0.15104   0.24323   0.00000  Uiso   1.00
C120   C     0.35049   0.85437   0.74943   0.00000  Uiso   1.00
C121   C     0.85333   0.35108   0.74876   0.00000  Uiso   1.00
C122   C     0.14743   0.64761   0.24895   0.00000  Uiso   1.00
C123   C     0.64805   0.85253   0.75082   0.00000  Uiso   1.00
C124   C     0.35475   0.15017   0.24755   0.00000  Uiso   1.00
C125   C     0.14530   0.64987   0.74580   0.00000  Uiso   1.00
C126   C     0.84972   0.35483   0.25031   0.00000  Uiso   1.00
C127   C     0.35288   0.14843   0.75150   0.00000  Uiso   1.00
C128   C     0.64762   0.85263   0.25035   0.00000  Uiso   1.00
O1     O     0.00000   0.50000   0.25000   0.00000  Uiso   1.00
O2     O     0.00000   0.50000   0.75000   0.00000  Uiso   1.00
O3     O     0.50000   0.00000   0.25000   0.00000  Uiso   1.00
O4     O     0.50000   0.00000   0.75000   0.00000  Uiso   1.00
O5     O     0.00000   0.45454   0.11798   0.00000  Uiso   1.00
O6     O     0.00000   0.54546   0.88202   0.00000  Uiso   1.00
O7     O     0.45454   0.00000   0.11798   0.00000  Uiso   1.00
O8     O     0.54546   0.00000   0.88202   0.00000  Uiso   1.00
O9     O     0.00000   0.54546   0.11798   0.00000  Uiso   1.00
O10    O     0.00000   0.45454   0.88202   0.00000  Uiso   1.00
O11    O     0.54546   0.00000   0.11798   0.00000  Uiso   1.00
O12    O     0.45454   0.00000   0.88202   0.00000  Uiso   1.00
O13    O     0.50000   0.95454   0.61798   0.00000  Uiso   1.00
O14    O     0.50000   0.04546   0.38202   0.00000  Uiso   1.00
O15    O     0.95454   0.50000   0.61798   0.00000  Uiso   1.00
O16    O     0.04546   0.50000   0.38202   0.00000  Uiso   1.00
O17    O     0.50000   0.04546   0.61798   0.00000  Uiso   1.00
O18    O     0.50000   0.95454   0.38202   0.00000  Uiso   1.00
O19    O     0.04546   0.50000   0.61798   0.00000  Uiso   1.00
O20    O     0.95454   0.50000   0.38202   0.00000  Uiso   1.00
O21    O     0.06399   0.60947   0.21539   0.00000  Uiso   1.00
O22    O     0.93601   0.39053   0.78461   0.00000  Uiso   1.00
O23    O     0.60947   0.93601   0.21539   0.00000  Uiso   1.00
O24    O     0.39053   0.06399   0.78461   0.00000  Uiso   1.00
O25    O     0.93601   0.39053   0.21539   0.00000  Uiso   1.00
O26    O     0.06399   0.60947   0.78461   0.00000  Uiso   1.00
O27    O     0.39053   0.06399   0.21539   0.00000  Uiso   1.00
O28    O     0.60947   0.93601   0.78461   0.00000  Uiso   1.00
O29    O     0.93601   0.60947   0.78461   0.00000  Uiso   1.00
O30    O     0.06399   0.39053   0.21539   0.00000  Uiso   1.00
O31    O     0.39053   0.93601   0.78461   0.00000  Uiso   1.00
O32    O     0.60947   0.06399   0.21539   0.00000  Uiso   1.00
O33    O     0.06399   0.39053   0.78461   0.00000  Uiso   1.00
O34    O     0.93601   0.60947   0.21539   0.00000  Uiso   1.00
O35    O     0.60947   0.06399   0.78461   0.00000  Uiso   1.00
O36    O     0.39053   0.93601   0.21539   0.00000  Uiso   1.00
O37    O     0.56399   0.10947   0.71539   0.00000  Uiso   1.00
O38    O     0.43601   0.89053   0.28461   0.00000  Uiso   1.00
O39    O     0.10947   0.43601   0.71539   0.00000  Uiso   1.00
O40    O     0.89053   0.56399   0.28461   0.00000  Uiso   1.00
O41    O     0.43601   0.89053   0.71539   0.00000  Uiso   1.00
O42    O     0.56399   0.10947   0.28461   0.00000  Uiso   1.00
O43    O     0.89053   0.56399   0.71539   0.00000  Uiso   1.00
O44    O     0.10947   0.43601   0.28461   0.00000  Uiso   1.00
O45    O     0.43601   0.10947   0.28461   0.00000  Uiso   1.00
O46    O     0.56399   0.89053   0.71539   0.00000  Uiso   1.00
O47    O     0.89053   0.43601   0.28461   0.00000  Uiso   1.00
O48    O     0.10947   0.56399   0.71539   0.00000  Uiso   1.00
O49    O     0.56399   0.89053   0.28461   0.00000  Uiso   1.00
O50    O     0.43601   0.10947   0.71539   0.00000  Uiso   1.00
O51    O     0.10947   0.56399   0.28461   0.00000  Uiso   1.00
O52    O     0.89053   0.43601   0.71539   0.00000  Uiso   1.00
Zn1    Zn    0.06497   0.50000   0.29947   0.00000  Uiso   1.00
Zn2    Zn    0.93503   0.50000   0.70053   0.00000  Uiso   1.00
Zn3    Zn    0.50000   0.93503   0.29947   0.00000  Uiso   1.00
Zn4    Zn    0.50000   0.06497   0.70053   0.00000  Uiso   1.00
Zn5    Zn    0.93503   0.50000   0.29947   0.00000  Uiso   1.00
Zn6    Zn    0.06497   0.50000   0.70053   0.00000  Uiso   1.00
Zn7    Zn    0.50000   0.06497   0.29947   0.00000  Uiso   1.00
Zn8    Zn    0.50000   0.93503   0.70053   0.00000  Uiso   1.00
Zn9    Zn    0.56497   0.00000   0.79947   0.00000  Uiso   1.00
Zn10   Zn    0.43503   0.00000   0.20053   0.00000  Uiso   1.00
Zn11   Zn    0.00000   0.43503   0.79947   0.00000  Uiso   1.00
Zn12   Zn    0.00000   0.56497   0.20053   0.00000  Uiso   1.00
Zn13   Zn    0.43503   0.00000   0.79947   0.00000  Uiso   1.00
Zn14   Zn    0.56497   0.00000   0.20053   0.00000  Uiso   1.00
Zn15   Zn    0.00000   0.56497   0.79947   0.00000  Uiso   1.00
Zn16   Zn    0.00000   0.43503   0.20053   0.00000  Uiso   1.00
O53    O     0.20020   0.24496   0.14872   0.00000  Uiso   1.00
C129   C     0.23946   0.26584   0.10837   0.00000  Uiso   1.00
H1     H     0.25178   0.23227   0.07850   0.00000  Uiso   1.00
H2     H     0.27743   0.27940   0.13093   0.00000  Uiso   1.00
C130   C     0.21602   0.31231   0.07049   0.00000  Uiso   1.00
H3     H     0.17713   0.29949   0.04979   0.00000  Uiso   1.00
H4     H     0.20777   0.34795   0.09938   0.00000  Uiso   1.00
C131   C     0.25553   0.32928   0.02135   0.00000  Uiso   1.00
H5     H     0.29458   0.34288   0.04129   0.00000  Uiso   1.00
H6     H     0.23790   0.36334   0.99519   0.00000  Uiso   1.00
H7     H     0.26329   0.29483   0.99059   0.00000  Uiso   1.00
O54    O     0.84429   0.79547   0.72598   0.00000  Uiso   1.00
C132   C     0.85733   0.79729   0.66460   0.00000  Uiso   1.00
H8     H     0.82270   0.78260   0.63697   0.00000  Uiso   1.00
H9     H     0.89362   0.77181   0.65519   0.00000  Uiso   1.00
C133   C     0.86963   0.85584   0.64687   0.00000  Uiso   1.00
H10    H     0.83320   0.88105   0.65596   0.00000  Uiso   1.00
H11    H     0.90411   0.87139   0.67404   0.00000  Uiso   1.00
C134   C     0.88383   0.86046   0.58069   0.00000  Uiso   1.00
H12    H     0.92055   0.83605   0.57029   0.00000  Uiso   1.00
H13    H     0.89215   0.90354   0.56920   0.00000  Uiso   1.00
H14    H     0.84931   0.84596   0.55303   0.00000  Uiso   1.00
O55    O     0.22295   0.82579   0.17300   0.00000  Uiso   1.00
C135   C     0.23758   0.80078   0.11846   0.00000  Uiso   1.00
H15    H     0.21626   0.76110   0.11545   0.00000  Uiso   1.00
H16    H     0.28226   0.79340   0.11345   0.00000  Uiso   1.00
C136   C     0.21922   0.83670   0.06654   0.00000  Uiso   1.00
H17    H     0.17441   0.84215   0.06834   0.00000  Uiso   1.00
H18    H     0.23870   0.87726   0.07048   0.00000  Uiso   1.00
C137   C     0.23483   0.81171   0.00666   0.00000  Uiso   1.00
H19    H     0.27966   0.80719   0.00343   0.00000  Uiso   1.00
H20    H     0.22111   0.83855   0.96987   0.00000  Uiso   1.00
H21    H     0.21521   0.77138   0.00133   0.00000  Uiso   1.00
O56    O     0.79590   0.15132   0.72830   0.00000  Uiso   1.00
C138   C     0.80803   0.16389   0.66792   0.00000  Uiso   1.00
H22    H     0.82798   0.20432   0.66571   0.00000  Uiso   1.00
H23    H     0.77123   0.16450   0.63859   0.00000  Uiso   1.00
C139   C     0.84689   0.12125   0.64291   0.00000  Uiso   1.00
H24    H     0.88128   0.11460   0.67423   0.00000  Uiso   1.00
H25    H     0.82471   0.08232   0.63756   0.00000  Uiso   1.00
C140   C     0.86922   0.13845   0.58218   0.00000  Uiso   1.00
H26    H     0.83525   0.14426   0.55015   0.00000  Uiso   1.00
H27    H     0.89668   0.10645   0.56475   0.00000  Uiso   1.00
H28    H     0.89259   0.17687   0.58617   0.00000  Uiso   1.00
O57    O     0.82549   0.77740   0.17261   0.00000  Uiso   1.00
C141   C     0.79470   0.76855   0.12000   0.00000  Uiso   1.00
H29    H     0.79030   0.80809   0.09665   0.00000  Uiso   1.00
H30    H     0.75271   0.75478   0.12980   0.00000  Uiso   1.00
C142   C     0.82321   0.72900   0.07729   0.00000  Uiso   1.00
H31    H     0.86099   0.74810   0.05983   0.00000  Uiso   1.00
H32    H     0.83457   0.69112   0.10116   0.00000  Uiso   1.00
C143   C     0.78620   0.71365   0.02518   0.00000  Uiso   1.00
H33    H     0.75065   0.69022   0.04183   0.00000  Uiso   1.00
H34    H     0.80899   0.68810   0.99298   0.00000  Uiso   1.00
H35    H     0.77135   0.75038   0.00156   0.00000  Uiso   1.00
O58    O     0.15588   0.20744   0.73282   0.00000  Uiso   1.00
C144   C     0.17060   0.19468   0.67326   0.00000  Uiso   1.00
H36    H     0.21048   0.17358   0.67337   0.00000  Uiso   1.00
H37    H     0.17363   0.23116   0.64360   0.00000  Uiso   1.00
C145   C     0.12783   0.15693   0.64648   0.00000  Uiso   1.00
H38    H     0.11961   0.12274   0.67764   0.00000  Uiso   1.00
H39    H     0.08944   0.17985   0.63981   0.00000  Uiso   1.00
C146   C     0.14637   0.13433   0.58641   0.00000  Uiso   1.00
H40    H     0.15386   0.16792   0.55421   0.00000  Uiso   1.00
H41    H     0.11428   0.10744   0.56799   0.00000  Uiso   1.00
H42    H     0.18426   0.11032   0.59198   0.00000  Uiso   1.00
O59    O     0.77519   0.18114   0.17335   0.00000  Uiso   1.00
C147   C     0.77078   0.21217   0.12014   0.00000  Uiso   1.00
H43    H     0.81066   0.21035   0.09701   0.00000  Uiso   1.00
H44    H     0.76379   0.25575   0.12938   0.00000  Uiso   1.00
C148   C     0.72742   0.18951   0.07734   0.00000  Uiso   1.00
H45    H     0.74009   0.14862   0.06185   0.00000  Uiso   1.00
H46    H     0.68761   0.18559   0.10042   0.00000  Uiso   1.00
C149   C     0.71958   0.22680   0.02344   0.00000  Uiso   1.00
H47    H     0.70307   0.26652   0.03802   0.00000  Uiso   1.00
H48    H     0.69045   0.20809   0.99166   0.00000  Uiso   1.00
H49    H     0.75873   0.23377   0.00012   0.00000  Uiso   1.00
O60    O     0.20455   0.85293   0.71869   0.00000  Uiso   1.00
C150   C     0.19721   0.84241   0.65707   0.00000  Uiso   1.00
H50    H     0.17789   0.80193   0.65165   0.00000  Uiso   1.00
H51    H     0.23620   0.84364   0.63139   0.00000  Uiso   1.00
C151   C     0.15963   0.88529   0.63010   0.00000  Uiso   1.00
H52    H     0.12068   0.88642   0.65521   0.00000  Uiso   1.00
H53    H     0.17934   0.92568   0.63333   0.00000  Uiso   1.00
C152   C     0.14810   0.87376   0.56437   0.00000  Uiso   1.00
H54    H     0.18647   0.87532   0.53821   0.00000  Uiso   1.00
H55    H     0.11976   0.90483   0.54641   0.00000  Uiso   1.00
H56    H     0.12927   0.83313   0.55899   0.00000  Uiso   1.00
O61    O     0.82860   0.21657   0.81691   0.00000  Uiso   1.00
C153   C     0.82981   0.23018   0.87838   0.00000  Uiso   1.00
H57    H     0.79119   0.21589   0.89882   0.00000  Uiso   1.00
H58    H     0.83312   0.27456   0.88782   0.00000  Uiso   1.00
C154   C     0.87780   0.20107   0.90799   0.00000  Uiso   1.00
H59    H     0.87879   0.15797   0.89355   0.00000  Uiso   1.00
H60    H     0.91629   0.22069   0.89356   0.00000  Uiso   1.00
C155   C     0.87440   0.20291   0.97603   0.00000  Uiso   1.00
H61    H     0.87041   0.24544   0.99175   0.00000  Uiso   1.00
H62    H     0.91192   0.18518   0.99557   0.00000  Uiso   1.00
H63    H     0.83911   0.17867   0.99181   0.00000  Uiso   1.00
O62    O     0.15776   0.79552   0.26335   0.00000  Uiso   1.00
C156   C     0.14567   0.79972   0.32482   0.00000  Uiso   1.00
H64    H     0.17976   0.78381   0.35280   0.00000  Uiso   1.00
H65    H     0.10782   0.77679   0.33550   0.00000  Uiso   1.00
C157   C     0.13725   0.85935   0.34031   0.00000  Uiso   1.00
H66    H     0.17609   0.88144   0.33314   0.00000  Uiso   1.00
H67    H     0.10573   0.87716   0.31054   0.00000  Uiso   1.00
C158   C     0.11971   0.86610   0.40522   0.00000  Uiso   1.00
H68    H     0.07991   0.84591   0.41297   0.00000  Uiso   1.00
H69    H     0.11555   0.90993   0.41564   0.00000  Uiso   1.00
H70    H     0.15063   0.84813   0.43551   0.00000  Uiso   1.00
O63    O     0.78457   0.82884   0.81385   0.00000  Uiso   1.00
C159   C     0.77411   0.82530   0.87586   0.00000  Uiso   1.00
H71    H     0.79001   0.78566   0.89200   0.00000  Uiso   1.00
H72    H     0.73014   0.82752   0.88828   0.00000  Uiso   1.00
C160   C     0.80427   0.87158   0.90707   0.00000  Uiso   1.00
H73    H     0.84592   0.87565   0.88829   0.00000  Uiso   1.00
H74    H     0.78228   0.91025   0.89885   0.00000  Uiso   1.00
C161   C     0.80874   0.86220   0.97419   0.00000  Uiso   1.00
H75    H     0.76768   0.85802   0.99442   0.00000  Uiso   1.00
H76    H     0.82991   0.89720   0.99483   0.00000  Uiso   1.00
H77    H     0.83299   0.82519   0.98347   0.00000  Uiso   1.00
O64    O     0.20633   0.16882   0.24042   0.00000  Uiso   1.00
C162   C     0.19074   0.15409   0.29899   0.00000  Uiso   1.00
H78    H     0.19771   0.18838   0.33049   0.00000  Uiso   1.00
H79    H     0.21417   0.11802   0.31458   0.00000  Uiso   1.00
C163   C     0.13019   0.14002   0.29941   0.00000  Uiso   1.00
H80    H     0.10608   0.17721   0.29028   0.00000  Uiso   1.00
H81    H     0.12140   0.10995   0.26375   0.00000  Uiso   1.00
C164   C     0.11270   0.11653   0.35959   0.00000  Uiso   1.00
H82    H     0.13495   0.07822   0.36896   0.00000  Uiso   1.00
H83    H     0.06844   0.10760   0.35868   0.00000  Uiso   1.00
H84    H     0.12087   0.14605   0.39593   0.00000  Uiso   1.00
O65    O     0.15933   0.79127   0.79757   0.00000  Uiso   1.00
C165   C     0.14484   0.78334   0.85819   0.00000  Uiso   1.00
H85    H     0.18104   0.79180   0.88622   0.00000  Uiso   1.00
H86    H     0.13096   0.74145   0.86955   0.00000  Uiso   1.00
C166   C     0.09932   0.82303   0.87380   0.00000  Uiso   1.00
H87    H     0.11203   0.86507   0.86236   0.00000  Uiso   1.00
H88    H     0.06263   0.81300   0.84702   0.00000  Uiso   1.00
C167   C     0.08489   0.82030   0.93993   0.00000  Uiso   1.00
H89    H     0.07297   0.77830   0.95233   0.00000  Uiso   1.00
H90    H     0.05027   0.84791   0.94926   0.00000  Uiso   1.00
H91    H     0.12006   0.83306   0.96756   0.00000  Uiso   1.00
O66    O     0.82657   0.20970   0.27411   0.00000  Uiso   1.00
C168   C     0.81551   0.20254   0.33567   0.00000  Uiso   1.00
H92    H     0.80647   0.15889   0.34287   0.00000  Uiso   1.00
H93    H     0.77880   0.22517   0.35112   0.00000  Uiso   1.00
C169   C     0.86521   0.21795   0.37332   0.00000  Uiso   1.00
H94    H     0.90229   0.19907   0.35408   0.00000  Uiso   1.00
H95    H     0.87052   0.26273   0.37278   0.00000  Uiso   1.00
C170   C     0.85884   0.19889   0.43781   0.00000  Uiso   1.00
H96    H     0.82113   0.21576   0.45765   0.00000  Uiso   1.00
H97    H     0.89421   0.21276   0.46458   0.00000  Uiso   1.00
H98    H     0.85705   0.15387   0.43959   0.00000  Uiso   1.00
O67    O     0.21855   0.17252   0.81868   0.00000  Uiso   1.00
C171   C     0.22804   0.18755   0.87848   0.00000  Uiso   1.00
H99    H     0.22330   0.23231   0.88266   0.00000  Uiso   1.00
H100   H     0.26944   0.17578   0.89446   0.00000  Uiso   1.00
C172   C     0.18622   0.15868   0.91794   0.00000  Uiso   1.00
H101   H     0.14483   0.16367   0.89889   0.00000  Uiso   1.00
H102   H     0.19547   0.11453   0.91924   0.00000  Uiso   1.00
C173   C     0.18671   0.18101   0.98126   0.00000  Uiso   1.00
H103   H     0.22719   0.17424   0.00178   0.00000  Uiso   1.00
H104   H     0.15540   0.16000   0.00850   0.00000  Uiso   1.00
H105   H     0.17733   0.22503   0.98069   0.00000  Uiso   1.00
O68    O     0.79553   0.84260   0.26572   0.00000  Uiso   1.00
C174   C     0.80874   0.82984   0.32577   0.00000  Uiso   1.00
H106   H     0.83429   0.79269   0.32633   0.00000  Uiso   1.00
H107   H     0.77253   0.82244   0.35500   0.00000  Uiso   1.00
C175   C     0.84107   0.87677   0.35254   0.00000  Uiso   1.00
H108   H     0.87674   0.88607   0.32380   0.00000  Uiso   1.00
H109   H     0.81474   0.91333   0.35435   0.00000  Uiso   1.00
C176   C     0.86057   0.86325   0.41556   0.00000  Uiso   1.00
H110   H     0.82522   0.85506   0.44516   0.00000  Uiso   1.00
H111   H     0.88376   0.89812   0.43387   0.00000  Uiso   1.00
H112   H     0.88748   0.82709   0.41495   0.00000  Uiso   1.00
O69    O     0.67432   0.72256   0.67710   0.00000  Uiso   1.00
C177   C     0.69468   0.73698   0.61996   0.00000  Uiso   1.00
H113   H     0.70772   0.69920   0.59720   0.00000  Uiso   1.00
H114   H     0.73141   0.76344   0.62207   0.00000  Uiso   1.00
C178   C     0.65049   0.76409   0.58186   0.00000  Uiso   1.00
H115   H     0.61479   0.73658   0.57835   0.00000  Uiso   1.00
H116   H     0.63718   0.80253   0.60302   0.00000  Uiso   1.00
C179   C     0.67162   0.77720   0.51940   0.00000  Uiso   1.00
H117   H     0.70697   0.80519   0.52195   0.00000  Uiso   1.00
H118   H     0.63909   0.79703   0.49278   0.00000  Uiso   1.00
H119   H     0.68415   0.73937   0.49666   0.00000  Uiso   1.00
O70    O     0.35362   0.29995   0.24637   0.00000  Uiso   1.00
C180   C     0.38202   0.31071   0.19254   0.00000  Uiso   1.00
H120   H     0.35699   0.33820   0.16439   0.00000  Uiso   1.00
H121   H     0.39072   0.27396   0.16503   0.00000  Uiso   1.00
C181   C     0.43626   0.33852   0.20642   0.00000  Uiso   1.00
H122   H     0.46259   0.30986   0.23135   0.00000  Uiso   1.00
H123   H     0.45693   0.34904   0.16378   0.00000  Uiso   1.00
C182   C     0.42965   0.39020   0.24321   0.00000  Uiso   1.00
H124   H     0.40718   0.42127   0.21728   0.00000  Uiso   1.00
H125   H     0.47042   0.40677   0.25422   0.00000  Uiso   1.00
H126   H     0.40780   0.38177   0.28568   0.00000  Uiso   1.00
O71    O     0.72731   0.31973   0.66883   0.00000  Uiso   1.00
C183   C     0.74379   0.29422   0.61516   0.00000  Uiso   1.00
H127   H     0.72581   0.25285   0.61368   0.00000  Uiso   1.00
H128   H     0.78893   0.29036   0.61035   0.00000  Uiso   1.00
C184   C     0.72290   0.32712   0.56192   0.00000  Uiso   1.00
H129   H     0.67780   0.32887   0.56314   0.00000  Uiso   1.00
H130   H     0.73885   0.36926   0.56471   0.00000  Uiso   1.00
C185   C     0.74106   0.30210   0.50288   0.00000  Uiso   1.00
H131   H     0.78614   0.30125   0.50026   0.00000  Uiso   1.00
H132   H     0.72566   0.32683   0.46507   0.00000  Uiso   1.00
H133   H     0.72488   0.26019   0.49856   0.00000  Uiso   1.00
O72    O     0.29497   0.65685   0.22859   0.00000  Uiso   1.00
C186   C     0.30877   0.66792   0.16828   0.00000  Uiso   1.00
H134   H     0.34598   0.69350   0.16750   0.00000  Uiso   1.00
H135   H     0.27711   0.69044   0.14262   0.00000  Uiso   1.00
C187   C     0.31994   0.61487   0.13529   0.00000  Uiso   1.00
H136   H     0.28233   0.58988   0.13503   0.00000  Uiso   1.00
H137   H     0.33094   0.62430   0.08820   0.00000  Uiso   1.00
C188   C     0.36613   0.58266   0.16399   0.00000  Uiso   1.00
H138   H     0.40346   0.60772   0.16637   0.00000  Uiso   1.00
H139   H     0.37517   0.54641   0.13648   0.00000  Uiso   1.00
H140   H     0.35458   0.56911   0.20967   0.00000  Uiso   1.00
O73    O     0.32718   0.27995   0.68065   0.00000  Uiso   1.00
C189   C     0.30367   0.26625   0.62504   0.00000  Uiso   1.00
H141   H     0.26252   0.28478   0.62232   0.00000  Uiso   1.00
H142   H     0.29935   0.22152   0.61762   0.00000  Uiso   1.00
C190   C     0.33915   0.28907   0.57504   0.00000  Uiso   1.00
H143   H     0.34043   0.33402   0.57809   0.00000  Uiso   1.00
H144   H     0.38131   0.27338   0.57983   0.00000  Uiso   1.00
C191   C     0.31699   0.27270   0.51417   0.00000  Uiso   1.00
H145   H     0.31994   0.22806   0.50821   0.00000  Uiso   1.00
H146   H     0.34115   0.29292   0.47871   0.00000  Uiso   1.00
H147   H     0.27380   0.28528   0.50992   0.00000  Uiso   1.00
O74    O     0.65487   0.70510   0.23223   0.00000  Uiso   1.00
C192   C     0.66584   0.69159   0.17199   0.00000  Uiso   1.00
H148   H     0.70757   0.67460   0.16877   0.00000  Uiso   1.00
H149   H     0.66213   0.72711   0.14111   0.00000  Uiso   1.00
C193   C     0.62527   0.64878   0.15086   0.00000  Uiso   1.00
H150   H     0.62023   0.61698   0.18561   0.00000  Uiso   1.00
H151   H     0.58520   0.66821   0.14324   0.00000  Uiso   1.00
C194   C     0.64373   0.62268   0.09254   0.00000  Uiso   1.00
H152   H     0.64792   0.65408   0.05714   0.00000  Uiso   1.00
H153   H     0.61313   0.59232   0.07797   0.00000  Uiso   1.00
H154   H     0.68337   0.60182   0.09880   0.00000  Uiso   1.00
O75    O     0.27633   0.67808   0.67388   0.00000  Uiso   1.00
C195   C     0.26892   0.70651   0.61933   0.00000  Uiso   1.00
H155   H     0.30925   0.71063   0.59749   0.00000  Uiso   1.00
H156   H     0.25430   0.74854   0.62627   0.00000  Uiso   1.00
C196   C     0.23119   0.67569   0.57645   0.00000  Uiso   1.00
H157   H     0.25183   0.63811   0.56113   0.00000  Uiso   1.00
H158   H     0.19293   0.66390   0.59942   0.00000  Uiso   1.00
C197   C     0.21629   0.71069   0.52245   0.00000  Uiso   1.00
H159   H     0.19069   0.74544   0.53673   0.00000  Uiso   1.00
H160   H     0.19302   0.68608   0.48975   0.00000  Uiso   1.00
H161   H     0.25336   0.72668   0.50033   0.00000  Uiso   1.00
O76    O     0.70355   0.35752   0.22076   0.00000  Uiso   1.00
C198   C     0.69919   0.35292   0.15801   0.00000  Uiso   1.00
H162   H     0.69086   0.31010   0.14590   0.00000  Uiso   1.00
H163   H     0.73697   0.36688   0.13488   0.00000  Uiso   1.00
C199   C     0.65190   0.38774   0.13586   0.00000  Uiso   1.00
H164   H     0.61443   0.37742   0.16119   0.00000  Uiso   1.00
H165   H     0.66134   0.43118   0.14327   0.00000  Uiso   1.00
C200   C     0.64174   0.37925   0.06932   0.00000  Uiso   1.00
H166   H     0.67834   0.39092   0.04314   0.00000  Uiso   1.00
H167   H     0.60704   0.40482   0.05465   0.00000  Uiso   1.00
H168   H     0.63178   0.33613   0.06028   0.00000  Uiso   1.00
O77    O     0.32452   0.71786   0.31630   0.00000  Uiso   1.00
C201   C     0.32435   0.72785   0.37844   0.00000  Uiso   1.00
H169   H     0.28612   0.71058   0.39696   0.00000  Uiso   1.00
H170   H     0.32582   0.77168   0.39098   0.00000  Uiso   1.00
C202   C     0.37313   0.69880   0.40631   0.00000  Uiso   1.00
H171   H     0.37661   0.65717   0.38775   0.00000  Uiso   1.00
H172   H     0.41081   0.72135   0.39485   0.00000  Uiso   1.00
C203   C     0.36842   0.69473   0.47403   0.00000  Uiso   1.00
H173   H     0.36481   0.73577   0.49402   0.00000  Uiso   1.00
H174   H     0.40529   0.67449   0.49189   0.00000  Uiso   1.00
H175   H     0.33259   0.66986   0.48668   0.00000  Uiso   1.00
O78    O     0.66094   0.29362   0.76409   0.00000  Uiso   1.00
C204   C     0.67475   0.30686   0.82383   0.00000  Uiso   1.00
H176   H     0.70867   0.33663   0.82294   0.00000  Uiso   1.00
H177   H     0.68815   0.27152   0.85170   0.00000  Uiso   1.00
C205   C     0.62559   0.33263   0.85420   0.00000  Uiso   1.00
H178   H     0.61067   0.36727   0.82685   0.00000  Uiso   1.00
H179   H     0.59257   0.30198   0.85778   0.00000  Uiso   1.00
C206   C     0.63973   0.35270   0.91669   0.00000  Uiso   1.00
H180   H     0.65362   0.31836   0.94510   0.00000  Uiso   1.00
H181   H     0.60313   0.37104   0.93748   0.00000  Uiso   1.00
H182   H     0.67229   0.38391   0.91445   0.00000  Uiso   1.00
O79    O     0.28240   0.32941   0.32048   0.00000  Uiso   1.00
C207   C     0.26842   0.35013   0.37719   0.00000  Uiso   1.00
H183   H     0.27348   0.31685   0.40992   0.00000  Uiso   1.00
H184   H     0.22566   0.36429   0.38207   0.00000  Uiso   1.00
C208   C     0.30772   0.39620   0.39217   0.00000  Uiso   1.00
H185   H     0.35021   0.38095   0.39032   0.00000  Uiso   1.00
H186   H     0.30341   0.42929   0.35867   0.00000  Uiso   1.00
C209   C     0.29684   0.41897   0.45407   0.00000  Uiso   1.00
H187   H     0.25467   0.43486   0.45685   0.00000  Uiso   1.00
H188   H     0.32581   0.45247   0.46339   0.00000  Uiso   1.00
H189   H     0.30250   0.38690   0.48834   0.00000  Uiso   1.00
O80    O     0.70662   0.65908   0.77033   0.00000  Uiso   1.00
C210   C     0.69756   0.67035   0.83162   0.00000  Uiso   1.00
H190   H     0.67031   0.70616   0.83503   0.00000  Uiso   1.00
H191   H     0.73536   0.67953   0.85758   0.00000  Uiso   1.00
C211   C     0.66999   0.62137   0.86068   0.00000  Uiso   1.00
H192   H     0.63234   0.61103   0.83574   0.00000  Uiso   1.00
H193   H     0.69792   0.58600   0.85871   0.00000  Uiso   1.00
C212   C     0.65566   0.63257   0.92582   0.00000  Uiso   1.00
H194   H     0.69307   0.64151   0.95183   0.00000  Uiso   1.00
H195   H     0.63558   0.59633   0.94556   0.00000  Uiso   1.00
H196   H     0.62738   0.66756   0.92900   0.00000  Uiso   1.00
O81    O     0.65080   0.29407   0.28912   0.00000  Uiso   1.00
C213   C     0.63933   0.28717   0.35061   0.00000  Uiso   1.00
H197   H     0.67780   0.29094   0.37628   0.00000  Uiso   1.00
H198   H     0.62079   0.24709   0.36187   0.00000  Uiso   1.00
C214   C     0.59940   0.33130   0.36976   0.00000  Uiso   1.00
H199   H     0.61500   0.37182   0.35623   0.00000  Uiso   1.00
H200   H     0.55989   0.32459   0.34681   0.00000  Uiso   1.00
C215   C     0.59032   0.33066   0.43713   0.00000  Uiso   1.00
H201   H     0.57793   0.28956   0.45213   0.00000  Uiso   1.00
H202   H     0.55780   0.35995   0.44897   0.00000  Uiso   1.00
H203   H     0.62812   0.34240   0.46079   0.00000  Uiso   1.00
O82    O     0.33272   0.70841   0.77241   0.00000  Uiso   1.00
C216   C     0.31767   0.69911   0.83272   0.00000  Uiso   1.00
H204   H     0.31126   0.65483   0.83841   0.00000  Uiso   1.00
H205   H     0.27851   0.71880   0.84538   0.00000  Uiso   1.00
C217   C     0.36299   0.71700   0.87534   0.00000  Uiso   1.00
H206   H     0.40178   0.69737   0.86214   0.00000  Uiso   1.00
H207   H     0.36827   0.76172   0.87257   0.00000  Uiso   1.00
C218   C     0.34974   0.70145   0.93981   0.00000  Uiso   1.00
H208   H     0.31074   0.72018   0.95383   0.00000  Uiso   1.00
H209   H     0.38255   0.71608   0.96981   0.00000  Uiso   1.00
H210   H     0.34658   0.65665   0.94432   0.00000  Uiso   1.00
O83    O     0.72220   0.67731   0.32292   0.00000  Uiso   1.00
C219   C     0.73927   0.69357   0.38069   0.00000  Uiso   1.00
H211   H     0.71091   0.72532   0.39676   0.00000  Uiso   1.00
H212   H     0.78070   0.71228   0.38236   0.00000  Uiso   1.00
C220   C     0.73811   0.64521   0.42388   0.00000  Uiso   1.00
H213   H     0.76543   0.61278   0.40719   0.00000  Uiso   1.00
H214   H     0.75368   0.65841   0.46815   0.00000  Uiso   1.00
C221   C     0.68089   0.62224   0.43196   0.00000  Uiso   1.00
H215   H     0.65462   0.65236   0.45467   0.00000  Uiso   1.00
H216   H     0.68267   0.58504   0.45995   0.00000  Uiso   1.00
H217   H     0.66265   0.61144   0.38823   0.00000  Uiso   1.00
O84    O     0.29624   0.34524   0.77014   0.00000  Uiso   1.00
C222   C     0.30957   0.33279   0.83016   0.00000  Uiso   1.00
H218   H     0.32746   0.29144   0.83230   0.00000  Uiso   1.00
H219   H     0.27375   0.33440   0.86088   0.00000  Uiso   1.00
C223   C     0.35155   0.37384   0.85232   0.00000  Uiso   1.00
H220   H     0.38358   0.37977   0.81796   0.00000  Uiso   1.00
H221   H     0.33124   0.41345   0.85984   0.00000  Uiso   1.00
C224   C     0.37811   0.35528   0.91049   0.00000  Uiso   1.00
H222   H     0.34701   0.35074   0.94601   0.00000  Uiso   1.00
H223   H     0.40843   0.38593   0.92501   0.00000  Uiso   1.00
H224   H     0.39921   0.31589   0.90405   0.00000  Uiso   1.00
O85    O     0.10575   0.30505   0.16570   0.00000  Uiso   1.00
C225   C     0.08263   0.25258   0.17146   0.00000  Uiso   1.00
H225   H     0.04365   0.25670   0.19574   0.00000  Uiso   1.00
H226   H     0.10746   0.22341   0.19810   0.00000  Uiso   1.00
C226   C     0.07183   0.22891   0.10924   0.00000  Uiso   1.00
H227   H     0.03157   0.24304   0.09286   0.00000  Uiso   1.00
H228   H     0.10313   0.24340   0.07720   0.00000  Uiso   1.00
C227   C     0.07327   0.16695   0.10981   0.00000  Uiso   1.00
H229   H     0.11529   0.15258   0.11877   0.00000  Uiso   1.00
H230   H     0.06010   0.15126   0.06565   0.00000  Uiso   1.00
H231   H     0.04598   0.15049   0.14491   0.00000  Uiso   1.00
O86    O     0.92162   0.71916   0.75916   0.00000  Uiso   1.00
C228   C     0.93271   0.72259   0.82132   0.00000  Uiso   1.00
H232   H     0.97558   0.70998   0.82840   0.00000  Uiso   1.00
H233   H     0.90736   0.69457   0.84918   0.00000  Uiso   1.00
C229   C     0.92637   0.78086   0.84382   0.00000  Uiso   1.00
H234   H     0.95547   0.80788   0.82027   0.00000  Uiso   1.00
H235   H     0.88470   0.79547   0.83455   0.00000  Uiso   1.00
C230   C     0.93642   0.78415   0.91100   0.00000  Uiso   1.00
H236   H     0.90495   0.76062   0.93557   0.00000  Uiso   1.00
H237   H     0.93449   0.82711   0.92563   0.00000  Uiso   1.00
H238   H     0.97714   0.76767   0.92218   0.00000  Uiso   1.00
O87    O     0.28896   0.91230   0.19675   0.00000  Uiso   1.00
C231   C     0.26067   0.94358   0.23985   0.00000  Uiso   1.00
H239   H     0.28190   0.98308   0.24395   0.00000  Uiso   1.00
H240   H     0.26000   0.92578   0.28592   0.00000  Uiso   1.00
C232   C     0.20221   0.95329   0.21899   0.00000  Uiso   1.00
H241   H     0.20256   0.97020   0.17293   0.00000  Uiso   1.00
H242   H     0.17981   0.91415   0.21822   0.00000  Uiso   1.00
C233   C     0.17236   0.99246   0.26027   0.00000  Uiso   1.00
H243   H     0.17029   0.97595   0.30640   0.00000  Uiso   1.00
H244   H     0.13031   0.99891   0.24367   0.00000  Uiso   1.00
H245   H     0.19358   0.03213   0.26142   0.00000  Uiso   1.00
O88    O     0.71859   0.07818   0.76514   0.00000  Uiso   1.00
C234   C     0.72073   0.06921   0.82786   0.00000  Uiso   1.00
H246   H     0.71309   0.02539   0.83595   0.00000  Uiso   1.00
H247   H     0.68842   0.09141   0.85291   0.00000  Uiso   1.00
C235   C     0.77655   0.08392   0.85361   0.00000  Uiso   1.00
H248   H     0.80939   0.06515   0.82677   0.00000  Uiso   1.00
H249   H     0.78175   0.12842   0.85180   0.00000  Uiso   1.00
C236   C     0.78186   0.06552   0.91854   0.00000  Uiso   1.00
H250   H     0.75023   0.08521   0.94651   0.00000  Uiso   1.00
H251   H     0.82248   0.07715   0.93598   0.00000  Uiso   1.00
H252   H     0.77758   0.02073   0.92188   0.00000  Uiso   1.00
O89    O     0.91297   0.71366   0.20336   0.00000  Uiso   1.00
C237   C     0.93882   0.73969   0.25227   0.00000  Uiso   1.00
H253   H     0.97928   0.72091   0.25836   0.00000  Uiso   1.00
H254   H     0.91783   0.73460   0.29635   0.00000  Uiso   1.00
C238   C     0.94541   0.80027   0.23907   0.00000  Uiso   1.00
H255   H     0.96421   0.80589   0.19440   0.00000  Uiso   1.00
H256   H     0.90484   0.81991   0.23827   0.00000  Uiso   1.00
C239   C     0.98047   0.82795   0.28632   0.00000  Uiso   1.00
H257   H     0.96159   0.82359   0.33116   0.00000  Uiso   1.00
H258   H     0.98437   0.87180   0.27563   0.00000  Uiso   1.00
H259   H     0.02169   0.80971   0.28733   0.00000  Uiso   1.00
O90    O     0.08481   0.28324   0.78133   0.00000  Uiso   1.00
C240   C     0.09066   0.27809   0.84419   0.00000  Uiso   1.00
H260   H     0.10468   0.31704   0.86433   0.00000  Uiso   1.00
H261   H     0.12067   0.24585   0.85516   0.00000  Uiso   1.00
C241   C     0.03645   0.26283   0.87289   0.00000  Uiso   1.00
H262   H     0.00598   0.29487   0.86306   0.00000  Uiso   1.00
H263   H     0.02229   0.22373   0.85408   0.00000  Uiso   1.00
C242   C     0.04180   0.25673   0.94060   0.00000  Uiso   1.00
H264   H     0.07080   0.22371   0.95179   0.00000  Uiso   1.00
H265   H     0.00159   0.24643   0.96016   0.00000  Uiso   1.00
H266   H     0.05626   0.29525   0.96080   0.00000  Uiso   1.00
O91    O     0.71517   0.09207   0.20653   0.00000  Uiso   1.00
C243   C     0.74381   0.07068   0.25637   0.00000  Uiso   1.00
H267   H     0.72861   0.02895   0.26463   0.00000  Uiso   1.00
H268   H     0.73722   0.09309   0.29917   0.00000  Uiso   1.00
C244   C     0.80478   0.06826   0.24265   0.00000  Uiso   1.00
H269   H     0.81143   0.04773   0.19925   0.00000  Uiso   1.00
H270   H     0.82147   0.10986   0.23890   0.00000  Uiso   1.00
C245   C     0.83586   0.03812   0.29150   0.00000  Uiso   1.00
H271   H     0.83089   0.05895   0.33510   0.00000  Uiso   1.00
H272   H     0.87979   0.03707   0.28008   0.00000  Uiso   1.00
H273   H     0.82078   0.99583   0.29551   0.00000  Uiso   1.00
O92    O     0.28140   0.92451   0.75942   0.00000  Uiso   1.00
C246   C     0.27770   0.93419   0.82190   0.00000  Uiso   1.00
H274   H     0.28540   0.97799   0.82942   0.00000  Uiso   1.00
H275   H     0.30925   0.91223   0.84844   0.00000  Uiso   1.00
C247   C     0.22134   0.91969   0.84645   0.00000  Uiso   1.00
H276   H     0.18907   0.93485   0.81610   0.00000  Uiso   1.00
H277   H     0.21783   0.87496   0.84935   0.00000  Uiso   1.00
C248   C     0.21264   0.94358   0.90862   0.00000  Uiso   1.00
H278   H     0.24545   0.93024   0.93943   0.00000  Uiso   1.00
H279   H     0.17294   0.92973   0.92674   0.00000  Uiso   1.00
H280   H     0.21252   0.98861   0.90646   0.00000  Uiso   1.00
O93    O     0.91444   0.28727   0.79729   0.00000  Uiso   1.00
C249   C     0.94549   0.26561   0.74959   0.00000  Uiso   1.00
H281   H     0.98772   0.28004   0.75509   0.00000  Uiso   1.00
H282   H     0.93273   0.28008   0.70430   0.00000  Uiso   1.00
C250   C     0.94462   0.20347   0.75151   0.00000  Uiso   1.00
H283   H     0.95210   0.18877   0.79765   0.00000  Uiso   1.00
H284   H     0.90398   0.18890   0.73771   0.00000  Uiso   1.00
C251   C     0.98739   0.17935   0.71010   0.00000  Uiso   1.00
H285   H     0.98081   0.19348   0.66347   0.00000  Uiso   1.00
H286   H     0.98459   0.13439   0.71115   0.00000  Uiso   1.00
H287   H     0.02866   0.19146   0.72517   0.00000  Uiso   1.00
O94    O     0.07947   0.71818   0.23584   0.00000  Uiso   1.00
C252   C     0.06895   0.72426   0.17380   0.00000  Uiso   1.00
H288   H     0.02561   0.71386   0.16609   0.00000  Uiso   1.00
H289   H     0.09277   0.69573   0.14523   0.00000  Uiso   1.00
C253   C     0.07881   0.78282   0.15322   0.00000  Uiso   1.00
H290   H     0.06019   0.81172   0.18512   0.00000  Uiso   1.00
H291   H     0.12305   0.79089   0.15173   0.00000  Uiso   1.00
C254   C     0.05549   0.79266   0.09103   0.00000  Uiso   1.00
H292   H     0.07421   0.76411   0.05877   0.00000  Uiso   1.00
H293   H     0.06453   0.83489   0.07667   0.00000  Uiso   1.00
H294   H     0.01070   0.78680   0.09117   0.00000  Uiso   1.00
O95    O     0.71414   0.91430   0.79410   0.00000  Uiso   1.00
C255   C     0.74286   0.94051   0.74709   0.00000  Uiso   1.00
H295   H     0.72181   0.97925   0.73741   0.00000  Uiso   1.00
H296   H     0.74356   0.91795   0.70376   0.00000  Uiso   1.00
C256   C     0.80149   0.95189   0.76650   0.00000  Uiso   1.00
H297   H     0.80176   0.96906   0.81227   0.00000  Uiso   1.00
H298   H     0.82493   0.91345   0.76726   0.00000  Uiso   1.00
C257   C     0.82968   0.99151   0.72414   0.00000  Uiso   1.00
H299   H     0.82925   0.97593   0.67767   0.00000  Uiso   1.00
H300   H     0.87254   0.99737   0.73834   0.00000  Uiso   1.00
H301   H     0.80881   0.03131   0.72522   0.00000  Uiso   1.00
O96    O     0.28186   0.08760   0.22254   0.00000  Uiso   1.00
C258   C     0.28272   0.07877   0.15991   0.00000  Uiso   1.00
H302   H     0.29361   0.03554   0.15277   0.00000  Uiso   1.00
H303   H     0.31437   0.10298   0.13582   0.00000  Uiso   1.00
C259   C     0.22672   0.08944   0.13214   0.00000  Uiso   1.00
H304   H     0.19430   0.07260   0.16133   0.00000  Uiso   1.00
H305   H     0.22023   0.13386   0.12783   0.00000  Uiso   1.00
C260   C     0.22202   0.06366   0.07040   0.00000  Uiso   1.00
H306   H     0.25324   0.08076   0.03980   0.00000  Uiso   1.00
H307   H     0.18107   0.07187   0.05162   0.00000  Uiso   1.00
H308   H     0.22747   0.01900   0.07348   0.00000  Uiso   1.00
O97    O     0.07703   0.71662   0.77189   0.00000  Uiso   1.00
C261   C     0.05335   0.72735   0.71520   0.00000  Uiso   1.00
H309   H     0.01318   0.70706   0.71361   0.00000  Uiso   1.00
H310   H     0.07660   0.71063   0.67639   0.00000  Uiso   1.00
C262   C     0.04562   0.78846   0.70668   0.00000  Uiso   1.00
H311   H     0.01635   0.80383   0.74029   0.00000  Uiso   1.00
H312   H     0.08498   0.80959   0.71338   0.00000  Uiso   1.00
C263   C     0.02456   0.80158   0.64421   0.00000  Uiso   1.00
H313   H     0.05481   0.78921   0.61008   0.00000  Uiso   1.00
H314   H     0.01727   0.84589   0.64003   0.00000  Uiso   1.00
H315   H     0.98596   0.77971   0.63569   0.00000  Uiso   1.00
O98    O     0.91271   0.27929   0.24647   0.00000  Uiso   1.00
C264   C     0.91952   0.24949   0.19267   0.00000  Uiso   1.00
H316   H     0.95152   0.26977   0.16564   0.00000  Uiso   1.00
H317   H     0.88274   0.24854   0.16331   0.00000  Uiso   1.00
C265   C     0.93776   0.19120   0.20645   0.00000  Uiso   1.00
H318   H     0.98109   0.19103   0.22015   0.00000  Uiso   1.00
H319   H     0.91428   0.17397   0.24423   0.00000  Uiso   1.00
C266   C     0.93011   0.15430   0.15239   0.00000  Uiso   1.00
H320   H     0.88616   0.14951   0.14228   0.00000  Uiso   1.00
H321   H     0.94732   0.11360   0.16220   0.00000  Uiso   1.00
H322   H     0.95093   0.17155   0.11259   0.00000  Uiso   1.00
O99    O     0.28607   0.08721   0.79449   0.00000  Uiso   1.00
C267   C     0.25724   0.06341   0.74620   0.00000  Uiso   1.00
H323   H     0.27703   0.02428   0.73563   0.00000  Uiso   1.00
H324   H     0.25812   0.08712   0.70346   0.00000  Uiso   1.00
C268   C     0.19793   0.05372   0.76412   0.00000  Uiso   1.00
H325   H     0.19615   0.03512   0.80930   0.00000  Uiso   1.00
H326   H     0.17603   0.09299   0.76575   0.00000  Uiso   1.00
C269   C     0.16911   0.01676   0.71976   0.00000  Uiso   1.00
H327   H     0.17099   0.03420   0.67399   0.00000  Uiso   1.00
H328   H     0.12583   0.01194   0.73286   0.00000  Uiso   1.00
H329   H     0.18861   0.97625   0.71972   0.00000  Uiso   1.00
O100   O     0.71883   0.92063   0.24272   0.00000  Uiso   1.00
C270   C     0.72541   0.93513   0.18172   0.00000  Uiso   1.00
H330   H     0.71163   0.97777   0.17653   0.00000  Uiso   1.00
H331   H     0.69977   0.91083   0.15037   0.00000  Uiso   1.00
C271   C     0.78517   0.93139   0.16299   0.00000  Uiso   1.00
H332   H     0.81143   0.95040   0.19738   0.00000  Uiso   1.00
H333   H     0.79708   0.88818   0.15907   0.00000  Uiso   1.00
C272   C     0.79471   0.95935   0.10296   0.00000  Uiso   1.00
H334   H     0.76846   0.94093   0.06812   0.00000  Uiso   1.00
H335   H     0.83796   0.95471   0.08971   0.00000  Uiso   1.00
H336   H     0.78526   0.00331   0.10604   0.00000  Uiso   1.00
O101   O     0.58606   0.78493   0.71139   0.00000  Uiso   1.00
C273   C     0.56267   0.76002   0.76264   0.00000  Uiso   1.00
H337   H     0.52088   0.77594   0.76800   0.00000  Uiso   1.00
H338   H     0.58369   0.76949   0.80574   0.00000  Uiso   1.00
C274   C     0.56035   0.69845   0.75439   0.00000  Uiso   1.00
H339   H     0.54072   0.68872   0.71116   0.00000  Uiso   1.00
H340   H     0.60213   0.68177   0.75320   0.00000  Uiso   1.00
C275   C     0.52905   0.67115   0.80511   0.00000  Uiso   1.00
H341   H     0.54917   0.67930   0.84860   0.00000  Uiso   1.00
H342   H     0.52796   0.62663   0.79777   0.00000  Uiso   1.00
H343   H     0.48668   0.68652   0.80670   0.00000  Uiso   1.00
O102   O     0.42427   0.21675   0.27324   0.00000  Uiso   1.00
C276   C     0.43104   0.21461   0.33613   0.00000  Uiso   1.00
H344   H     0.47173   0.19666   0.34493   0.00000  Uiso   1.00
H345   H     0.40084   0.18807   0.35951   0.00000  Uiso   1.00
C277   C     0.42978   0.27154   0.36313   0.00000  Uiso   1.00
H346   H     0.45770   0.29867   0.33796   0.00000  Uiso   1.00
H347   H     0.38791   0.28813   0.36024   0.00000  Uiso   1.00
C278   C     0.44751   0.27026   0.42846   0.00000  Uiso   1.00
H348   H     0.42116   0.24236   0.45463   0.00000  Uiso   1.00
H349   H     0.44479   0.31164   0.44774   0.00000  Uiso   1.00
H350   H     0.49011   0.25590   0.43197   0.00000  Uiso   1.00
O103   O     0.78766   0.40962   0.69954   0.00000  Uiso   1.00
C279   C     0.75952   0.43589   0.74672   0.00000  Uiso   1.00
H351   H     0.77635   0.47731   0.75127   0.00000  Uiso   1.00
H352   H     0.76489   0.41676   0.79177   0.00000  Uiso   1.00
C280   C     0.69884   0.43941   0.73218   0.00000  Uiso   1.00
H353   H     0.69327   0.45867   0.68768   0.00000  Uiso   1.00
H354   H     0.68121   0.39803   0.73023   0.00000  Uiso   1.00
C281   C     0.66829   0.47191   0.77943   0.00000  Uiso   1.00
H355   H     0.67221   0.45210   0.82385   0.00000  Uiso   1.00
H356   H     0.62453   0.47409   0.76748   0.00000  Uiso   1.00
H357   H     0.68474   0.51376   0.78221   0.00000  Uiso   1.00
O104   O     0.21931   0.58125   0.26329   0.00000  Uiso   1.00
C282   C     0.22329   0.57321   0.32603   0.00000  Uiso   1.00
H358   H     0.20498   0.53313   0.33683   0.00000  Uiso   1.00
H359   H     0.20037   0.60367   0.35316   0.00000  Uiso   1.00
C283   C     0.28290   0.57211   0.34555   0.00000  Uiso   1.00
H360   H     0.30361   0.53684   0.32481   0.00000  Uiso   1.00
H361   H     0.30371   0.60962   0.33052   0.00000  Uiso   1.00
C284   C     0.28768   0.56807   0.41340   0.00000  Uiso   1.00
H362   H     0.27030   0.60488   0.43461   0.00000  Uiso   1.00
H363   H     0.33114   0.56465   0.42630   0.00000  Uiso   1.00
H364   H     0.26551   0.53188   0.43014   0.00000  Uiso   1.00
O105   O     0.41420   0.21375   0.70596   0.00000  Uiso   1.00
C285   C     0.44125   0.24240   0.75219   0.00000  Uiso   1.00
H365   H     0.48097   0.22244   0.75990   0.00000  Uiso   1.00
H366   H     0.42015   0.24180   0.79654   0.00000  Uiso   1.00
C286   C     0.45032   0.30139   0.73315   0.00000  Uiso   1.00
H367   H     0.46797   0.30269   0.68751   0.00000  Uiso   1.00
H368   H     0.41077   0.32297   0.73194   0.00000  Uiso   1.00
C287   C     0.48821   0.33071   0.77634   0.00000  Uiso   1.00
H369   H     0.47132   0.32989   0.82232   0.00000  Uiso   1.00
H370   H     0.49325   0.37359   0.76202   0.00000  Uiso   1.00
H371   H     0.52866   0.31094   0.77674   0.00000  Uiso   1.00
O106   O     0.57988   0.78178   0.26373   0.00000  Uiso   1.00
C288   C     0.57053   0.77629   0.32612   0.00000  Uiso   1.00
H372   H     0.52763   0.78783   0.33474   0.00000  Uiso   1.00
H373   H     0.59567   0.80427   0.35400   0.00000  Uiso   1.00
C289   C     0.57921   0.71755   0.34685   0.00000  Uiso   1.00
H374   H     0.56072   0.68894   0.31458   0.00000  Uiso   1.00
H375   H     0.62331   0.70887   0.34888   0.00000  Uiso   1.00
C290   C     0.55455   0.70763   0.40853   0.00000  Uiso   1.00
H376   H     0.57486   0.73352   0.44233   0.00000  Uiso   1.00
H377   H     0.55996   0.66441   0.42130   0.00000  Uiso   1.00
H378   H     0.51036   0.71670   0.40820   0.00000  Uiso   1.00
O107   O     0.21512   0.58976   0.70776   0.00000  Uiso   1.00
C291   C     0.24288   0.56785   0.75794   0.00000  Uiso   1.00
H379   H     0.22617   0.52683   0.76674   0.00000  Uiso   1.00
H380   H     0.23712   0.59081   0.80054   0.00000  Uiso   1.00
C292   C     0.30372   0.56340   0.74437   0.00000  Uiso   1.00
H381   H     0.30970   0.54282   0.70091   0.00000  Uiso   1.00
H382   H     0.32181   0.60449   0.74083   0.00000  Uiso   1.00
C293   C     0.33348   0.53183   0.79310   0.00000  Uiso   1.00
H383   H     0.32926   0.55262   0.83682   0.00000  Uiso   1.00
H384   H     0.37735   0.52900   0.78177   0.00000  Uiso   1.00
H385   H     0.31660   0.49020   0.79675   0.00000  Uiso   1.00
O108   O     0.78211   0.42617   0.26378   0.00000  Uiso   1.00
C294   C     0.78043   0.43437   0.32666   0.00000  Uiso   1.00
H386   H     0.78807   0.47808   0.33500   0.00000  Uiso   1.00
H387   H     0.81296   0.41199   0.35124   0.00000  Uiso   1.00
C295   C     0.72512   0.41886   0.35326   0.00000  Uiso   1.00
H388   H     0.69171   0.43516   0.32530   0.00000  Uiso   1.00
H389   H     0.72158   0.37405   0.35435   0.00000  Uiso   1.00
C296   C     0.71898   0.44051   0.41678   0.00000  Uiso   1.00
H390   H     0.75188   0.42444   0.44587   0.00000  Uiso   1.00
H391   H     0.67917   0.42765   0.43541   0.00000  Uiso   1.00
H392   H     0.72069   0.48555   0.41681   0.00000  Uiso   1.00
O109   O     0.41098   0.78732   0.29756   0.00000  Uiso   1.00
C297   C     0.43865   0.76377   0.24838   0.00000  Uiso   1.00
H393   H     0.47835   0.78454   0.24378   0.00000  Uiso   1.00
H394   H     0.41813   0.76897   0.20407   0.00000  Uiso   1.00
C298   C     0.44758   0.70322   0.25978   0.00000  Uiso   1.00
H395   H     0.46522   0.69714   0.30490   0.00000  Uiso   1.00
H396   H     0.40808   0.68150   0.25811   0.00000  Uiso   1.00
C299   C     0.48555   0.67898   0.21317   0.00000  Uiso   1.00
H397   H     0.46799   0.68361   0.16772   0.00000  Uiso   1.00
H398   H     0.49187   0.63519   0.22268   0.00000  Uiso   1.00
H399   H     0.52544   0.69985   0.21458   0.00000  Uiso   1.00
O110   O     0.58245   0.21880   0.73527   0.00000  Uiso   1.00
C300   C     0.57149   0.22265   0.67310   0.00000  Uiso   1.00
H400   H     0.52762   0.21401   0.66646   0.00000  Uiso   1.00
H401   H     0.59368   0.19186   0.64584   0.00000  Uiso   1.00
C301   C     0.58387   0.27967   0.64919   0.00000  Uiso   1.00
H402   H     0.56583   0.31083   0.67876   0.00000  Uiso   1.00
H403   H     0.62840   0.28598   0.64829   0.00000  Uiso   1.00
C302   C     0.56180   0.28722   0.58606   0.00000  Uiso   1.00
H404   H     0.58070   0.25721   0.55551   0.00000  Uiso   1.00
H405   H     0.57161   0.32874   0.56995   0.00000  Uiso   1.00
H406   H     0.51693   0.28198   0.58545   0.00000  Uiso   1.00
O111   O     0.21618   0.41918   0.28622   0.00000  Uiso   1.00
C303   C     0.22934   0.44563   0.23150   0.00000  Uiso   1.00
H407   H     0.21933   0.48887   0.23589   0.00000  Uiso   1.00
H408   H     0.20439   0.43189   0.19269   0.00000  Uiso   1.00
C304   C     0.29001   0.44042   0.21705   0.00000  Uiso   1.00
H409   H     0.31359   0.46951   0.24462   0.00000  Uiso   1.00
H410   H     0.30441   0.39899   0.22779   0.00000  Uiso   1.00
C305   C     0.30081   0.45131   0.15090   0.00000  Uiso   1.00
H411   H     0.28086   0.41975   0.12317   0.00000  Uiso   1.00
H412   H     0.34513   0.45013   0.14184   0.00000  Uiso   1.00
H413   H     0.28478   0.49170   0.13787   0.00000  Uiso   1.00
O112   O     0.78123   0.58141   0.73708   0.00000  Uiso   1.00
C306   C     0.77501   0.57176   0.67486   0.00000  Uiso   1.00
H414   H     0.78735   0.52926   0.66587   0.00000  Uiso   1.00
H415   H     0.80198   0.59747   0.64614   0.00000  Uiso   1.00
C307   C     0.71567   0.57896   0.65564   0.00000  Uiso   1.00
H416   H     0.68857   0.55467   0.68488   0.00000  Uiso   1.00
H417   H     0.70383   0.62199   0.66018   0.00000  Uiso   1.00
C308   C     0.70728   0.56189   0.59082   0.00000  Uiso   1.00
H418   H     0.73364   0.58643   0.56079   0.00000  Uiso   1.00
H419   H     0.66419   0.56853   0.57796   0.00000  Uiso   1.00
H420   H     0.71707   0.51820   0.58521   0.00000  Uiso   1.00
O113   O     0.57228   0.21748   0.26146   0.00000  Uiso   1.00
C309   C     0.54799   0.21612   0.20385   0.00000  Uiso   1.00
H421   H     0.50345   0.21497   0.20984   0.00000  Uiso   1.00
H422   H     0.55820   0.17881   0.17827   0.00000  Uiso   1.00
C310   C     0.56238   0.26652   0.16669   0.00000  Uiso   1.00
H423   H     0.55261   0.30364   0.19249   0.00000  Uiso   1.00
H424   H     0.60653   0.26661   0.15670   0.00000  Uiso   1.00
C311   C     0.53148   0.26704   0.10752   0.00000  Uiso   1.00
H425   H     0.54528   0.23297   0.07890   0.00000  Uiso   1.00
H426   H     0.53916   0.30583   0.08367   0.00000  Uiso   1.00
H427   H     0.48705   0.26311   0.11527   0.00000  Uiso   1.00
O114   O     0.41535   0.78050   0.74660   0.00000  Uiso   1.00
C312   C     0.43003   0.77165   0.68607   0.00000  Uiso   1.00
H428   H     0.47271   0.78528   0.68018   0.00000  Uiso   1.00
H429   H     0.40582   0.79588   0.65314   0.00000  Uiso   1.00
C313   C     0.42618   0.71133   0.67057   0.00000  Uiso   1.00
H430   H     0.44482   0.68644   0.70648   0.00000  Uiso   1.00
H431   H     0.38289   0.69940   0.66700   0.00000  Uiso   1.00
C314   C     0.45448   0.69938   0.61140   0.00000  Uiso   1.00
H432   H     0.43767   0.72571   0.57562   0.00000  Uiso   1.00
H433   H     0.44806   0.65621   0.59918   0.00000  Uiso   1.00
H434   H     0.49885   0.70710   0.61507   0.00000  Uiso   1.00
O115   O     0.78654   0.58816   0.29639   0.00000  Uiso   1.00
C315   C     0.75514   0.56321   0.25088   0.00000  Uiso   1.00
H435   H     0.77488   0.52427   0.23949   0.00000  Uiso   1.00
H436   H     0.75274   0.58629   0.20778   0.00000  Uiso   1.00
C316   C     0.69739   0.55294   0.27360   0.00000  Uiso   1.00
H437   H     0.69889   0.53482   0.31903   0.00000  Uiso   1.00
H438   H     0.67523   0.59206   0.27646   0.00000  Uiso   1.00
C317   C     0.66639   0.51497   0.23211   0.00000  Uiso   1.00
H439   H     0.66531   0.53160   0.18599   0.00000  Uiso   1.00
H440   H     0.62408   0.50974   0.24848   0.00000  Uiso   1.00
H441   H     0.68645   0.47477   0.23105   0.00000  Uiso   1.00
O116   O     0.21928   0.42202   0.74370   0.00000  Uiso   1.00
C318   C     0.22615   0.43541   0.68250   0.00000  Uiso   1.00
H442   H     0.21472   0.47864   0.67669   0.00000  Uiso   1.00
H443   H     0.19880   0.41217   0.65193   0.00000  Uiso   1.00
C319   C     0.28539   0.42796   0.66317   0.00000  Uiso   1.00
H444   H     0.31328   0.44521   0.69715   0.00000  Uiso   1.00
H445   H     0.29423   0.38406   0.65902   0.00000  Uiso   1.00
C320   C     0.29586   0.45522   0.60304   0.00000  Uiso   1.00
H446   H     0.26595   0.44040   0.56982   0.00000  Uiso   1.00
H447   H     0.33760   0.44552   0.58746   0.00000  Uiso   1.00
H448   H     0.29180   0.49993   0.60681   0.00000  Uiso   1.00
loop_
_geom_bond_atom_site_label_1
_geom_bond_atom_site_label_2
_geom_bond_distance
_geom_bond_site_symmetry_2
_ccdc_geom_bond_type
C1     C12     1.492   .     S
C1     C75     1.410   .     A
C1     C49     1.412   .     A
C2     C50     1.411   .     A
C2     C11     1.488   .     S
C2     C76     1.413   .     A
C3     C73     1.409   .     A
C3     C51     1.411   .     A
C3     C10     1.484   .     S
C4     C9      1.485   .     S
C4     C52     1.414   .     A
C4     C74     1.414   .     A
C5     C79     1.408   .     A
C5     C53     1.414   .     A
C5     C16     1.485   .     S
C6     C54     1.416   .     A
C6     C15     1.487   .     S
C6     C80     1.419   .     A
C7     C55     1.422   .     A
C7     C77     1.417   .     A
C7     C14     1.500   .     S
C8     C56     1.417   .     A
C8     C13     1.494   .     S
C8     C78     1.419   .     A
C9     C67     1.411   .     A
C9     C57     1.410   .     A
C10    C68     1.413   .     A
C10    C58     1.408   .     A
C11    C59     1.410   .     A
C11    C65     1.413   .     A
C12    C66     1.410   .     A
C12    C60     1.413   .     A
C13    C61     1.414   .     A
C13    C71     1.418   .     A
C14    C62     1.416   .     A
C14    C72     1.415   .     A
C15    C69     1.409   .     A
C15    C63     1.411   .     A
C16    C70     1.416   .     A
C16    C64     1.414   .     A
C17    C32     1.418   .     S
C17    C18     1.196   .     S
C18    C31     1.418   .     S
C19    C30     1.419   .     S
C19    C20     1.196   1_565 S
C20    C29     1.419   .     S
C20    C19     1.196   1_545 S
C21    C28     1.418   .     S
C21    C22     1.196   1_556 S
C22    C27     1.418   .     S
C22    C21     1.196   1_554 S
C23    C26     1.419   .     S
C23    C24     1.196   1_556 S
C24    C25     1.419   .     S
C24    C23     1.196   1_554 S
C25    O5      1.281   .     A
C25    O9      1.282   .     A
C26    O6      1.281   .     A
C26    O10     1.282   .     A
C27    O11     1.280   .     A
C27    O7      1.280   .     A
C28    O8      1.280   .     A
C28    O12     1.280   .     A
C29    O17     1.282   .     A
C29    O13     1.281   1_545 S
C30    O18     1.282   .     A
C30    O14     1.281   1_565 S
C31    O19     1.280   .     A
C31    O15     1.280   1_455 S
C32    O20     1.280   1_455 A
C32    O16     1.280   .     S
C33    O21     1.277   .     A
C33    C122    1.474   .     S
C33    O51     1.281   .     A
C34    O52     1.282   .     A
C34    O22     1.280   .     A
C34    C121    1.481   .     S
C35    C128    1.474   .     S
C35    O49     1.278   .     A
C35    O23     1.279   .     A
C36    O50     1.282   .     A
C36    O24     1.280   .     A
C36    C127    1.481   .     S
C37    O47     1.275   .     A
C37    C126    1.481   .     S
C37    O25     1.290   .     A
C38    O48     1.280   .     A
C38    O26     1.283   .     A
C38    C125    1.479   .     S
C39    C124    1.482   .     S
C39    O27     1.286   .     A
C39    O45     1.279   .     A
C40    O46     1.285   .     A
C40    C123    1.481   .     S
C40    O28     1.280   .     A
C41    O43     1.281   .     A
C41    O29     1.280   .     A
C41    C114    1.474   .     S
C42    O30     1.278   .     A
C42    C113    1.486   .     S
C42    O44     1.288   .     A
C43    C120    1.476   .     S
C43    O31     1.277   .     A
C43    O41     1.286   .     A
C44    C119    1.479   .     S
C44    O32     1.279   .     A
C44    O42     1.285   .     A
C45    C118    1.473   .     S
C45    O33     1.277   .     A
C45    O39     1.280   .     A
C46    C117    1.483   .     S
C46    O40     1.283   .     A
C46    O34     1.280   .     A
C47    O37     1.281   .     A
C47    C116    1.475   .     S
C47    O35     1.278   .     A
C48    O36     1.279   .     A
C48    O38     1.283   .     A
C48    C115    1.481   .     S
C49    O53     1.385   .     S
C49    C81     1.410   .     A
C50    O54     1.382   .     S
C50    C82     1.402   .     A
C51    O55     1.382   .     S
C51    C83     1.396   .     A
C52    C84     1.399   .     A
C52    O56     1.385   .     S
C53    O57     1.387   .     S
C53    C85     1.400   .     A
C54    C86     1.395   .     A
C54    O58     1.385   .     S
C55    C87     1.402   .     A
C55    O59     1.388   .     S
C56    O60     1.386   .     S
C56    C88     1.400   .     A
C57    C89     1.403   .     A
C57    O61     1.384   .     S
C58    C90     1.401   .     A
C58    O62     1.382   .     S
C59    O63     1.381   .     S
C59    C91     1.404   .     A
C60    O64     1.383   .     S
C60    C92     1.404   .     A
C61    C93     1.406   .     A
C61    O65     1.384   .     S
C62    C94     1.409   .     A
C62    O66     1.381   .     S
C63    O67     1.380   .     S
C63    C95     1.400   .     A
C64    C96     1.400   .     A
C64    O68     1.384   .     S
C65    O69     1.383   .     S
C65    C97     1.398   .     A
C66    O70     1.384   .     S
C66    C98     1.404   .     A
C67    C99     1.396   .     A
C67    O71     1.382   .     S
C68    O72     1.384   .     S
C68    C100    1.397   .     A
C69    O73     1.379   .     S
C69    C101    1.398   .     A
C70    C102    1.398   .     A
C70    O74     1.387   .     S
C71    O75     1.387   .     S
C71    C103    1.400   .     A
C72    C104    1.401   .     A
C72    O76     1.383   .     S
C73    O77     1.383   .     S
C73    C105    1.402   .     A
C74    C106    1.398   .     A
C74    O78     1.384   .     S
C75    C107    1.408   .     A
C75    O79     1.387   .     S
C76    O80     1.382   .     S
C76    C108    1.398   .     A
C77    O81     1.382   .     S
C77    C109    1.406   .     A
C78    C110    1.401   .     A
C78    O82     1.385   .     S
C79    O83     1.381   .     S
C79    C111    1.399   .     A
C80    O84     1.385   .     S
C80    C112    1.402   .     A
C81    O85     1.387   .     S
C81    C113    1.412   .     A
C82    O86     1.383   .     S
C82    C114    1.411   .     A
C83    C115    1.410   .     A
C83    O87     1.382   .     S
C84    O88     1.382   .     S
C84    C116    1.412   .     A
C85    C117    1.411   .     A
C85    O89     1.379   .     S
C86    O90     1.381   .     S
C86    C118    1.405   .     A
C87    C119    1.407   .     A
C87    O91     1.382   .     S
C88    C120    1.411   .     A
C88    O92     1.381   .     S
C89    C121    1.411   .     A
C89    O93     1.380   .     S
C90    O94     1.381   .     S
C90    C122    1.409   .     A
C91    C123    1.410   .     A
C91    O95     1.381   .     S
C92    O96     1.382   .     S
C92    C124    1.410   .     A
C93    O97     1.382   .     S
C93    C125    1.407   .     A
C94    O98     1.387   .     S
C94    C126    1.404   .     A
C95    O99     1.380   .     S
C95    C127    1.409   .     A
C96    C128    1.409   .     A
C96    O100    1.383   .     S
C97    C123    1.407   .     A
C97    O101    1.381   .     S
C98    O102    1.382   .     S
C98    C124    1.415   .     A
C99    C121    1.407   .     A
C99    O103    1.380   .     S
C100   O104    1.379   .     S
C100   C122    1.409   .     A
C101   C127    1.407   .     A
C101   O105    1.380   .     S
C102   O106    1.381   .     S
C102   C128    1.410   .     A
C103   O107    1.380   .     S
C103   C125    1.406   .     A
C104   O108    1.381   .     S
C104   C126    1.415   .     A
C105   O109    1.380   .     S
C105   C115    1.410   .     A
C106   C116    1.408   .     A
C106   O110    1.381   .     S
C107   C113    1.409   .     A
C107   O111    1.385   .     S
C108   C114    1.408   .     A
C108   O112    1.382   .     S
C109   C119    1.408   .     A
C109   O113    1.386   .     S
C110   O114    1.381   .     S
C110   C120    1.405   .     A
C111   C117    1.406   .     A
C111   O115    1.378   .     S
C112   O116    1.382   .     S
C112   C118    1.408   .     A
O1     Zn12    1.944   .     S
O1     Zn16    1.949   .     S
O1     Zn1     1.944   .     S
O1     Zn5     1.943   1_455 S
O2     Zn11    1.944   .     S
O2     Zn15    1.949   .     S
O2     Zn6     1.943   .     S
O2     Zn2     1.944   1_455 S
O3     Zn7     1.949   .     S
O3     Zn14    1.943   .     S
O3     Zn10    1.944   .     S
O3     Zn3     1.944   1_545 S
O4     Zn13    1.943   .     S
O4     Zn4     1.944   .     S
O4     Zn9     1.944   .     S
O4     Zn8     1.949   1_545 S
O5     Zn16    1.907   .     S
O6     Zn15    1.907   .     S
O7     Zn10    1.908   .     S
O8     Zn9     1.908   .     S
O9     Zn12    1.910   .     S
O10    Zn11    1.910   .     S
O11    Zn14    1.909   .     S
O12    Zn13    1.909   .     S
O13    Zn8     1.907   .     S
O13    C29     1.281   1_565 S
O14    Zn7     1.907   .     S
O14    C30     1.281   1_545 S
O15    Zn2     1.908   .     S
O15    C31     1.280   1_655 S
O16    Zn1     1.908   .     S
O17    Zn4     1.910   .     S
O18    Zn3     1.910   .     S
O19    Zn6     1.909   .     S
O20    C32     1.280   1_655 A
O20    Zn5     1.909   .     S
O21    Zn12    1.946   .     S
O22    Zn11    1.946   1_655 S
O23    Zn14    1.948   1_565 S
O24    Zn13    1.948   .     S
O25    Zn16    1.945   1_655 S
O26    Zn15    1.945   .     S
O27    Zn10    1.950   .     S
O28    Zn9     1.950   1_565 S
O29    Zn15    1.947   1_655 S
O30    Zn16    1.947   .     S
O31    Zn13    1.948   1_565 S
O32    Zn14    1.948   .     S
O33    Zn11    1.948   .     S
O34    Zn12    1.948   1_655 S
O35    Zn9     1.946   .     S
O36    Zn10    1.946   1_565 S
O37    Zn4     1.946   .     S
O38    Zn3     1.946   .     S
O39    Zn6     1.948   .     S
O40    Zn5     1.948   .     S
O41    Zn8     1.945   .     S
O42    Zn7     1.945   .     S
O43    Zn2     1.950   .     S
O44    Zn1     1.950   .     S
O45    Zn7     1.947   .     S
O46    Zn8     1.947   .     S
O47    Zn5     1.948   .     S
O48    Zn6     1.948   .     S
O49    Zn3     1.948   .     S
O50    Zn4     1.948   .     S
O51    Zn1     1.946   .     S
O52    Zn2     1.946   .     S
Zn2    O2      1.944   1_655 S
Zn3    O3      1.944   1_565 S
Zn5    O1      1.943   1_655 S
Zn8    O4      1.949   1_565 S
Zn9    O28     1.950   1_545 S
Zn10   O36     1.946   1_545 S
Zn11   O22     1.946   1_455 S
Zn12   O34     1.948   1_455 S
Zn13   O31     1.948   1_545 S
Zn14   O23     1.948   1_545 S
Zn15   O29     1.947   1_455 S
Zn16   O25     1.945   1_455 S
O53    C129    1.417   .     S
C129   H2      1.113   .     S
C129   H1      1.108   .     S
C129   C130    1.535   .     S
C130   C131    1.524   .     S
C130   H4      1.111   .     S
C130   H3      1.109   .     S
C131   H5      1.111   .     S
C131   H6      1.110   1_554 S
C131   H7      1.111   1_554 S
H6     C131    1.110   1_556 S
H7     C131    1.111   1_556 S
O54    C132    1.411   .     S
C132   C133    1.525   .     S
C132   H8      1.113   .     S
C132   H9      1.112   .     S
C133   H10     1.110   .     S
C133   C134    1.525   .     S
C133   H11     1.112   .     S
C134   H12     1.110   .     S
C134   H14     1.110   .     S
C134   H13     1.110   .     S
O55    C135    1.416   .     S
C135   H15     1.111   .     S
C135   C136    1.527   .     S
C135   H16     1.120   .     S
C136   C137    1.526   .     S
C136   H18     1.112   .     S
C136   H17     1.111   .     S
C137   H19     1.111   .     S
C137   H21     1.111   .     S
C137   H20     1.107   1_554 S
H20    C137    1.107   1_556 S
O56    C138    1.417   .     S
C138   C139    1.528   .     S
C138   H23     1.118   .     S
C138   H22     1.111   .     S
C139   H25     1.110   .     S
C139   C140    1.524   .     S
C139   H24     1.110   .     S
C140   H27     1.110   .     S
C140   H28     1.111   .     S
C140   H26     1.110   .     S
O57    C141    1.417   .     S
C141   H30     1.108   .     S
C141   C142    1.537   .     S
C141   H29     1.110   .     S
C142   H32     1.110   .     S
C142   C143    1.528   .     S
C142   H31     1.111   .     S
C143   H33     1.111   .     S
C143   H35     1.109   .     S
C143   H34     1.110   1_554 S
H34    C143    1.110   1_556 S
O58    C144    1.417   .     S
C144   H36     1.110   .     S
C144   C145    1.527   .     S
C144   H37     1.118   .     S
C145   C146    1.526   .     S
C145   H39     1.110   .     S
C145   H38     1.110   .     S
C146   H41     1.110   .     S
C146   H42     1.111   .     S
C146   H40     1.111   .     S
O59    C147    1.417   .     S
C147   H44     1.108   .     S
C147   C148    1.539   .     S
C147   H43     1.110   .     S
C148   C149    1.526   .     S
C148   H45     1.112   .     S
C148   H46     1.111   .     S
C149   H47     1.110   .     S
C149   H49     1.108   .     S
C149   H48     1.110   1_554 S
H48    C149    1.110   1_556 S
O60    C150    1.415   .     S
C150   C151    1.527   .     S
C150   H51     1.118   .     S
C150   H50     1.112   .     S
C151   H52     1.111   .     S
C151   C152    1.525   .     S
C151   H53     1.109   .     S
C152   H56     1.110   .     S
C152   H54     1.111   .     S
C152   H55     1.110   .     S
O61    C153    1.417   .     S
C153   C154    1.531   .     S
C153   H58     1.117   .     S
C153   H57     1.111   .     S
C154   H59     1.111   .     S
C154   C155    1.525   .     S
C154   H60     1.110   .     S
C155   H62     1.110   .     S
C155   H61     1.111   .     S
C155   H63     1.110   .     S
O62    C156    1.411   .     S
C156   H65     1.114   .     S
C156   H64     1.117   .     S
C156   C157    1.525   .     S
C157   H66     1.110   .     S
C157   C158    1.525   .     S
C157   H67     1.112   .     S
C158   H69     1.110   .     S
C158   H70     1.110   .     S
C158   H68     1.111   .     S
O63    C159    1.414   .     S
C159   C160    1.530   .     S
C159   H72     1.118   .     S
C159   H71     1.112   .     S
C160   H74     1.111   .     S
C160   H73     1.111   .     S
C160   C161    1.523   .     S
C161   H75     1.111   .     S
C161   H76     1.109   .     S
C161   H77     1.109   .     S
O64    C162    1.412   .     S
C162   H78     1.115   .     S
C162   C163    1.528   .     S
C162   H79     1.115   .     S
C163   H81     1.112   .     S
C163   C164    1.526   .     S
C163   H80     1.110   .     S
C164   H83     1.110   .     S
C164   H82     1.111   .     S
C164   H84     1.111   .     S
O65    C165    1.415   .     S
C165   H85     1.109   .     S
C165   C166    1.528   .     S
C165   H86     1.115   .     S
C166   C167    1.523   .     S
C166   H88     1.111   .     S
C166   H87     1.111   .     S
C167   H89     1.110   .     S
C167   H91     1.109   .     S
C167   H90     1.110   .     S
O66    C168    1.414   .     S
C168   H93     1.117   .     S
C168   C169    1.533   .     S
C168   H92     1.110   .     S
C169   C170    1.524   .     S
C169   H95     1.111   .     S
C169   H94     1.111   .     S
C170   H98     1.111   .     S
C170   H96     1.110   .     S
C170   H97     1.110   .     S
O67    C171    1.409   .     S
C171   H99     1.113   .     S
C171   C172    1.529   .     S
C171   H100    1.117   .     S
C172   H102    1.112   .     S
C172   H101    1.110   .     S
C172   C173    1.522   .     S
C173   H105    1.109   .     S
C173   H103    1.109   1_556 S
C173   H104    1.109   1_556 S
H103   C173    1.109   1_554 S
H104   C173    1.109   1_554 S
O68    C174    1.417   .     S
C174   C175    1.527   .     S
C174   H106    1.111   .     S
C174   H107    1.119   .     S
C175   C176    1.526   .     S
C175   H109    1.111   .     S
C175   H108    1.111   .     S
C176   H112    1.111   .     S
C176   H111    1.110   .     S
C176   H110    1.111   .     S
O69    C177    1.417   .     S
C177   C178    1.534   .     S
C177   H114    1.115   .     S
C177   H113    1.110   .     S
C178   C179    1.525   .     S
C178   H116    1.110   .     S
C178   H115    1.112   .     S
C179   H118    1.110   .     S
C179   H119    1.108   .     S
C179   H117    1.111   .     S
O70    C180    1.417   .     S
C180   H120    1.110   .     S
C180   H121    1.117   .     S
C180   C181    1.531   .     S
C181   H122    1.108   .     S
C181   H123    1.111   .     S
C181   C182    1.527   .     S
C182   H126    1.110   .     S
C182   H124    1.107   .     S
C182   H125    1.110   .     S
O71    C183    1.417   .     S
C183   H128    1.120   .     S
C183   C184    1.528   .     S
C183   H127    1.112   .     S
C184   H130    1.112   .     S
C184   H129    1.110   .     S
C184   C185    1.526   .     S
C185   H131    1.110   .     S
C185   H132    1.108   .     S
C185   H133    1.111   .     S
O72    C186    1.417   .     S
C186   C187    1.528   .     S
C186   H135    1.115   .     S
C186   H134    1.111   .     S
C187   H136    1.111   .     S
C187   H137    1.112   .     S
C187   C188    1.527   .     S
C188   H139    1.109   .     S
C188   H138    1.108   .     S
C188   H140    1.111   .     S
O73    C189    1.414   .     S
C189   H142    1.120   .     S
C189   C190    1.524   .     S
C189   H141    1.112   .     S
C190   C191    1.522   .     S
C190   H144    1.112   .     S
C190   H143    1.111   .     S
C191   H145    1.111   .     S
C191   H147    1.111   .     S
C191   H146    1.108   .     S
O74    C192    1.415   .     S
C192   H148    1.111   .     S
C192   C193    1.528   .     S
C192   H149    1.117   .     S
C193   H150    1.109   .     S
C193   C194    1.526   .     S
C193   H151    1.109   .     S
C194   H153    1.110   .     S
C194   H154    1.111   .     S
C194   H152    1.110   .     S
O75    C195    1.417   .     S
C195   H155    1.110   .     S
C195   C196    1.537   .     S
C195   H156    1.108   .     S
C196   H158    1.110   .     S
C196   H157    1.112   .     S
C196   C197    1.527   .     S
C197   H161    1.109   .     S
C197   H159    1.111   .     S
C197   H160    1.110   .     S
O76    C198    1.413   .     S
C198   C199    1.528   .     S
C198   H162    1.109   .     S
C198   H163    1.117   .     S
C199   H164    1.111   .     S
C199   C200    1.525   .     S
C199   H165    1.108   .     S
C200   H166    1.111   .     S
C200   H168    1.110   .     S
C200   H167    1.110   .     S
O77    C201    1.413   .     S
C201   H170    1.117   .     S
C201   H169    1.111   .     S
C201   C202    1.529   .     S
C202   H171    1.111   .     S
C202   H172    1.110   .     S
C202   C203    1.522   .     S
C203   H173    1.111   .     S
C203   H175    1.109   .     S
C203   H174    1.109   .     S
O78    C204    1.418   .     S
C204   C205    1.526   .     S
C204   H177    1.119   .     S
C204   H176    1.110   .     S
C205   H179    1.111   .     S
C205   H178    1.111   .     S
C205   C206    1.525   .     S
C206   H182    1.111   .     S
C206   H180    1.111   .     S
C206   H181    1.110   .     S
O79    C207    1.412   .     S
C207   H183    1.105   .     S
C207   H184    1.114   .     S
C207   C208    1.528   .     S
C208   H186    1.111   .     S
C208   H185    1.112   .     S
C208   C209    1.520   .     S
C209   H187    1.111   .     S
C209   H189    1.108   .     S
C209   H188    1.110   .     S
O80    C210    1.418   .     S
C210   H190    1.112   .     S
C210   C211    1.527   .     S
C210   H191    1.120   .     S
C211   H192    1.111   .     S
C211   C212    1.525   .     S
C211   H193    1.111   .     S
C212   H194    1.111   .     S
C212   H195    1.110   .     S
C212   H196    1.111   .     S
O81    C213    1.414   .     S
C213   H198    1.116   .     S
C213   C214    1.528   .     S
C213   H197    1.111   .     S
C214   H199    1.110   .     S
C214   C215    1.524   .     S
C214   H200    1.112   .     S
C215   H202    1.110   .     S
C215   H203    1.108   .     S
C215   H201    1.109   .     S
O82    C216    1.417   .     S
C216   H205    1.116   .     S
C216   C217    1.532   .     S
C216   H204    1.109   .     S
C217   H207    1.111   .     S
C217   H206    1.110   .     S
C217   C218    1.526   .     S
C218   H209    1.110   .     S
C218   H208    1.110   .     S
C218   H210    1.111   .     S
O83    C219    1.418   .     S
C219   H211    1.109   .     S
C219   H212    1.119   .     S
C219   C220    1.532   .     S
C220   H213    1.110   .     S
C220   C221    1.527   .     S
C220   H214    1.112   .     S
C221   H215    1.109   .     S
C221   H216    1.110   .     S
C221   H217    1.110   .     S
O84    C222    1.415   .     S
C222   C223    1.529   .     S
C222   H219    1.118   .     S
C222   H218    1.111   .     S
C223   H220    1.110   .     S
C223   C224    1.525   .     S
C223   H221    1.110   .     S
C224   H224    1.111   .     S
C224   H223    1.110   .     S
C224   H222    1.108   .     S
O85    C225    1.418   .     S
C225   C226    1.534   .     S
C225   H226    1.115   .     S
C225   H225    1.107   .     S
C226   H227    1.111   .     S
C226   H228    1.110   .     S
C226   C227    1.527   .     S
C227   H229    1.111   .     S
C227   H230    1.110   .     S
C227   H231    1.109   .     S
O86    C228    1.420   .     S
C228   H233    1.118   .     S
C228   C229    1.531   .     S
C228   H232    1.111   .     S
C229   H235    1.106   .     S
C229   H234    1.109   .     S
C229   C230    1.526   .     S
C230   H236    1.111   .     S
C230   H238    1.109   .     S
C230   H237    1.110   .     S
O87    C231    1.419   .     S
C231   H240    1.119   .     S
C231   H239    1.108   .     S
C231   C232    1.530   .     S
C232   H242    1.110   .     S
C232   C233    1.527   .     S
C232   H241    1.111   .     S
C233   H244    1.110   .     S
C233   H243    1.109   .     S
C233   H245    1.108   1_565 S
H245   C233    1.108   1_545 S
O88    C234    1.421   .     S
C234   H247    1.117   .     S
C234   C235    1.532   .     S
C234   H246    1.110   .     S
C235   H249    1.105   .     S
C235   C236    1.526   .     S
C235   H248    1.109   .     S
C236   H250    1.111   .     S
C236   H252    1.111   .     S
C236   H251    1.110   .     S
O89    C237    1.420   .     S
C237   H253    1.106   .     S
C237   H254    1.120   .     S
C237   C238    1.529   .     S
C238   C239    1.526   .     S
C238   H256    1.109   .     S
C238   H255    1.109   .     S
C239   H257    1.110   .     S
C239   H258    1.110   .     S
C239   H259    1.109   1_655 S
H259   C239    1.109   1_455 S
O90    C240    1.419   .     S
C240   H260    1.116   .     S
C240   C241    1.526   .     S
C240   H261    1.112   .     S
C241   H262    1.110   .     S
C241   C242    1.528   .     S
C241   H263    1.108   .     S
C242   H265    1.110   .     S
C242   H266    1.111   .     S
C242   H264    1.110   .     S
O91    C243    1.419   .     S
C243   C244    1.532   .     S
C243   H268    1.119   .     S
C243   H267    1.109   .     S
C244   H270    1.107   .     S
C244   C245    1.525   .     S
C244   H269    1.109   .     S
C245   H271    1.111   .     S
C245   H272    1.110   .     S
C245   H273    1.109   1_545 S
H273   C245    1.109   1_565 S
O92    C246    1.422   .     S
C246   C247    1.532   .     S
C246   H274    1.109   .     S
C246   H275    1.116   .     S
C247   C248    1.527   .     S
C247   H276    1.109   .     S
C247   H277    1.107   .     S
C248   H278    1.111   .     S
C248   H280    1.111   .     S
C248   H279    1.110   .     S
O93    C249    1.418   .     S
C249   H281    1.104   .     S
C249   H282    1.118   .     S
C249   C250    1.532   .     S
C250   C251    1.524   .     S
C250   H284    1.106   .     S
C250   H283    1.109   .     S
C251   H285    1.111   .     S
C251   H286    1.110   .     S
C251   H287    1.111   1_655 S
H287   C251    1.111   1_455 S
O94    C252    1.420   .     S
C252   C253    1.533   .     S
C252   H289    1.118   .     S
C252   H288    1.110   .     S
C253   H291    1.106   .     S
C253   H290    1.109   .     S
C253   C254    1.524   .     S
C254   H294    1.111   .     S
C254   H292    1.110   .     S
C254   H293    1.110   .     S
O95    C255    1.420   .     S
C255   C256    1.532   .     S
C255   H296    1.119   .     S
C255   H295    1.107   .     S
C256   H298    1.109   .     S
C256   C257    1.525   .     S
C256   H297    1.109   .     S
C257   H300    1.110   .     S
C257   H299    1.110   .     S
C257   H301    1.108   1_565 S
H301   C257    1.108   1_545 S
O96    C258    1.419   .     S
C258   H302    1.111   .     S
C258   C259    1.533   .     S
C258   H303    1.118   .     S
C259   H305    1.110   .     S
C259   C260    1.527   .     S
C259   H304    1.110   .     S
C260   H306    1.111   .     S
C260   H308    1.111   .     S
C260   H307    1.110   .     S
O97    C261    1.420   .     S
C261   H310    1.120   .     S
C261   C262    1.529   .     S
C261   H309    1.107   .     S
C262   C263    1.525   .     S
C262   H311    1.109   .     S
C262   H312    1.109   .     S
C263   H314    1.110   .     S
C263   H313    1.110   .     S
C263   H315    1.108   1_455 S
H315   C263    1.108   1_655 S
O98    C264    1.422   .     S
C264   H316    1.110   .     S
C264   C265    1.536   .     S
C264   H317    1.118   .     S
C265   H319    1.107   .     S
C265   H318    1.109   .     S
C265   C266    1.527   .     S
C266   H320    1.111   .     S
C266   H321    1.110   .     S
C266   H322    1.110   .     S
O99    C267    1.420   .     S
C267   C268    1.531   .     S
C267   H324    1.119   .     S
C267   H323    1.107   .     S
C268   H326    1.109   .     S
C268   C269    1.524   .     S
C268   H325    1.109   .     S
C269   H328    1.110   .     S
C269   H327    1.110   .     S
C269   H329    1.108   1_545 S
H329   C269    1.108   1_565 S
O100   C270    1.419   .     S
C270   H331    1.118   .     S
C270   C271    1.531   .     S
C270   H330    1.110   .     S
C271   H333    1.108   .     S
C271   C272    1.526   .     S
C271   H332    1.109   .     S
C272   H334    1.110   .     S
C272   H335    1.110   .     S
C272   H336    1.110   1_565 S
H336   C272    1.110   1_545 S
O101   C273    1.420   .     S
C273   H338    1.119   .     S
C273   H337    1.107   .     S
C273   C274    1.530   .     S
C274   C275    1.525   .     S
C274   H339    1.108   .     S
C274   H340    1.107   .     S
C275   H343    1.109   .     S
C275   H342    1.110   .     S
C275   H341    1.111   .     S
O102   C276    1.418   .     S
C276   C277    1.530   .     S
C276   H344    1.112   .     S
C276   H345    1.118   .     S
C277   C278    1.526   .     S
C277   H346    1.110   .     S
C277   H347    1.110   .     S
C278   H350    1.109   .     S
C278   H349    1.110   .     S
C278   H348    1.110   .     S
O103   C279    1.420   .     S
C279   C280    1.530   .     S
C279   H352    1.119   .     S
C279   H351    1.106   .     S
C280   H354    1.109   .     S
C280   H353    1.110   .     S
C280   C281    1.526   .     S
C281   H356    1.110   .     S
C281   H357    1.110   .     S
C281   H355    1.110   .     S
O104   C282    1.421   .     S
C282   H359    1.119   .     S
C282   C283    1.530   .     S
C282   H358    1.111   .     S
C283   H361    1.107   .     S
C283   C284    1.526   .     S
C283   H360    1.111   .     S
C284   H364    1.109   .     S
C284   H362    1.111   .     S
C284   H363    1.110   .     S
O105   C285    1.420   .     S
C285   H366    1.120   .     S
C285   C286    1.530   .     S
C285   H365    1.107   .     S
C286   C287    1.526   .     S
C286   H368    1.109   .     S
C286   H367    1.110   .     S
C287   H369    1.110   .     S
C287   H371    1.108   .     S
C287   H370    1.110   .     S
O106   C288    1.421   .     S
C288   H372    1.110   .     S
C288   C289    1.534   .     S
C288   H373    1.118   .     S
C289   C290    1.526   .     S
C289   H375    1.106   .     S
C289   H374    1.108   .     S
C290   H377    1.110   .     S
C290   H378    1.110   .     S
C290   H376    1.110   .     S
O107   C291    1.419   .     S
C291   H379    1.108   .     S
C291   C292    1.531   .     S
C291   H380    1.119   .     S
C292   H382    1.108   .     S
C292   C293    1.525   .     S
C292   H381    1.108   .     S
C293   H385    1.109   .     S
C293   H384    1.110   .     S
C293   H383    1.111   .     S
O108   C294    1.423   .     S
C294   H387    1.116   .     S
C294   H386    1.110   .     S
C294   C295    1.532   .     S
C295   H388    1.108   .     S
C295   C296    1.527   .     S
C295   H389    1.108   .     S
C296   H391    1.110   .     S
C296   H392    1.111   .     S
C296   H390    1.111   .     S
O109   C297    1.420   .     S
C297   H394    1.120   .     S
C297   C298    1.529   .     S
C297   H393    1.107   .     S
C298   H395    1.109   .     S
C298   C299    1.523   .     S
C298   H396    1.109   .     S
C299   H397    1.111   .     S
C299   H399    1.108   .     S
C299   H398    1.110   .     S
O110   C300    1.420   .     S
C300   H401    1.118   .     S
C300   H400    1.110   .     S
C300   C301    1.532   .     S
C301   H402    1.108   .     S
C301   C302    1.524   .     S
C301   H403    1.106   .     S
C302   H405    1.110   .     S
C302   H404    1.111   .     S
C302   H406    1.111   .     S
O111   C303    1.422   .     S
C303   H407    1.099   .     S
C303   C304    1.532   .     S
C303   H408    1.117   .     S
C304   H410    1.107   .     S
C304   H409    1.110   .     S
C304   C305    1.527   .     S
C305   H412    1.109   .     S
C305   H413    1.109   .     S
C305   H411    1.110   .     S
O112   C306    1.421   .     S
C306   C307    1.532   .     S
C306   H414    1.110   .     S
C306   H415    1.118   .     S
C307   H417    1.105   .     S
C307   C308    1.525   .     S
C307   H416    1.108   .     S
C308   H419    1.110   .     S
C308   H418    1.111   .     S
C308   H420    1.111   .     S
O113   C309    1.421   .     S
C309   H422    1.113   .     S
C309   H421    1.104   .     S
C309   C310    1.533   .     S
C310   C311    1.527   .     S
C310   H424    1.108   .     S
C310   H423    1.110   .     S
C311   H427    1.110   .     S
C311   H426    1.110   .     S
C311   H425    1.111   .     S
O114   C312    1.419   .     S
C312   C313    1.530   .     S
C312   H429    1.119   .     S
C312   H428    1.109   .     S
C313   H431    1.107   .     S
C313   H430    1.109   .     S
C313   C314    1.525   .     S
C314   H434    1.110   .     S
C314   H432    1.109   .     S
C314   H433    1.110   .     S
O115   C315    1.419   .     S
C315   H436    1.120   .     S
C315   H435    1.106   .     S
C315   C316    1.529   .     S
C316   H437    1.110   .     S
C316   H438    1.110   .     S
C316   C317    1.524   .     S
C317   H440    1.110   .     S
C317   H439    1.109   .     S
C317   H441    1.108   .     S
O116   C318    1.418   .     S
C318   C319    1.531   .     S
C318   H442    1.109   .     S
C318   H443    1.118   .     S
C319   H444    1.110   .     S
C319   C320    1.524   .     S
C319   H445    1.108   .     S
C320   H446    1.108   .     S
C320   H447    1.110   .     S
C320   H448    1.110   .     S
