data_str_m1_o10_o18_pcu_sym.42
_audit_creation_date              2020-01-03
_audit_creation_method            'Materials Studio'
_symmetry_space_group_name_H-M    'P1'
_symmetry_Int_Tables_number       1
_symmetry_cell_setting            triclinic
loop_
_symmetry_equiv_pos_as_xyz
  x,y,z
_cell_length_a                    32.7137
_cell_length_b                    32.6800
_cell_length_c                    35.3694
_cell_angle_alpha                 98.2899
_cell_angle_beta                  73.2102
_cell_angle_gamma                 98.2807
loop_
_atom_site_label
_atom_site_type_symbol
_atom_site_fract_x
_atom_site_fract_y
_atom_site_fract_z
_atom_site_U_iso_or_equiv
_atom_site_adp_type
_atom_site_occupancy
C1     C     0.05289   0.16013   0.25851   0.00000  Uiso   1.00
C2     C     0.17555   0.10952   0.46274   0.00000  Uiso   1.00
C3     C     0.19937   0.09074   0.48169   0.00000  Uiso   1.00
C4     C     0.28092   0.17358   0.24163   0.00000  Uiso   1.00
C5     C     0.20130   0.10705   0.02083   0.00000  Uiso   1.00
C6     C     0.17361   0.13769   0.04222   0.00000  Uiso   1.00
C7     C     0.22880   0.09293   0.04005   0.00000  Uiso   1.00
C8     C     0.22495   0.10518   0.08054   0.00000  Uiso   1.00
C9     C     0.17491   0.15315   0.08116   0.00000  Uiso   1.00
C10    C     0.32662   0.17650   0.23928   0.00000  Uiso   1.00
C11    C     0.00761   0.15677   0.26347   0.00000  Uiso   1.00
C12    C     0.09870   0.21543   0.42186   0.00000  Uiso   1.00
C13    C     0.17944   0.32205   0.23947   0.00000  Uiso   1.00
C14    C     0.15022   0.01302   0.26346   0.00000  Uiso   1.00
C15    C     0.15668   0.05627   0.25834   0.00000  Uiso   1.00
C16    C     0.17652   0.27761   0.24164   0.00000  Uiso   1.00
C17    C     0.18819   0.14517   0.14394   0.00000  Uiso   1.00
C18    C     0.14531   0.18757   0.35641   0.00000  Uiso   1.00
C19    C     0.13249   0.19236   0.40023   0.00000  Uiso   1.00
C20    C     0.19745   0.13518   0.10098   0.00000  Uiso   1.00
C21    C     0.08423   0.21665   0.46329   0.00000  Uiso   1.00
C22    C     0.29879   0.08978   0.00599   0.00000  Uiso   1.00
C23    C     0.15212   0.17090   0.42044   0.00000  Uiso   1.00
C24    C     0.02498   0.24043   0.22241   0.00000  Uiso   1.00
C25    C     0.31355   0.13185   0.29658   0.00000  Uiso   1.00
C26    C     0.11058   0.33219   0.29520   0.00000  Uiso   1.00
C27    C     0.27704   0.11129   0.11393   0.00000  Uiso   1.00
C28    C     0.22051   0.05229   0.46016   0.00000  Uiso   1.00
C29    C     0.01200   0.21725   0.48411   0.00000  Uiso   1.00
C30    C     0.06558   0.13940   0.09294   0.00000  Uiso   1.00
C31    C     0.13139   0.06709   0.43104   0.00000  Uiso   1.00
C32    C     0.13663   0.16942   0.46175   0.00000  Uiso   1.00
C33    C     0.10403   0.19463   0.48345   0.00000  Uiso   1.00
C34    C     0.15402   0.14472   0.48211   0.00000  Uiso   1.00
C35    C     0.14656   0.15331   0.02374   0.00000  Uiso   1.00
C36    C     0.11121   0.17603   0.04510   0.00000  Uiso   1.00
C37    C     0.09095   0.19656   0.02482   0.00000  Uiso   1.00
H38    H     0.06463   0.21400   0.04196   0.00000  Uiso   1.00
H39    H     0.32750   0.25305   0.22579   0.00000  Uiso   1.00
H40    H     0.05009   0.25685   0.19955   0.00000  Uiso   1.00
H41    H     0.00037   0.12003   0.31223   0.00000  Uiso   1.00
H42    H     0.29142   0.15169   0.31913   0.00000  Uiso   1.00
H43    H     0.29545   0.10425   0.28435   0.00000  Uiso   1.00
H44    H     0.09189   0.02534   0.31013   0.00000  Uiso   1.00
H45    H     0.08907   0.30891   0.28179   0.00000  Uiso   1.00
H46    H     0.11981   0.31918   0.31850   0.00000  Uiso   1.00
H47    H     0.26502   0.11935   0.14648   0.00000  Uiso   1.00
H48    H     0.28794   0.14032   0.09896   0.00000  Uiso   1.00
H49    H     0.20659   0.00238   0.21737   0.00000  Uiso   1.00
H50    H     0.30558   0.09442   0.10877   0.00000  Uiso   1.00
H51    H     0.25582   0.05976   0.45014   0.00000  Uiso   1.00
H52    H     0.21174   0.02701   0.47986   0.00000  Uiso   1.00
H53    H     0.21036   0.03934   0.43317   0.00000  Uiso   1.00
H54    H     0.00806   0.18810   0.49830   0.00000  Uiso   1.00
H55    H     0.00820   0.20995   0.45351   0.00000  Uiso   1.00
H56    H     0.31916   0.23598   0.00179   0.00000  Uiso   1.00
H57    H     0.08359   0.11157   0.08430   0.00000  Uiso   1.00
H58    H     0.04010   0.13630   0.07725   0.00000  Uiso   1.00
H59    H     0.04950   0.14059   0.12526   0.00000  Uiso   1.00
H60    H     0.15837   0.17933   0.09716   0.00000  Uiso   1.00
H61    H     0.10431   0.08662   0.44251   0.00000  Uiso   1.00
H62    H     0.12798   0.04273   0.45107   0.00000  Uiso   1.00
H63    H     0.12925   0.05106   0.40170   0.00000  Uiso   1.00
H64    H     0.08314   0.23234   0.40674   0.00000  Uiso   1.00
H65    H     0.18030   0.15614   0.40358   0.00000  Uiso   1.00
H66    H     0.31185   0.10525   0.03077   0.00000  Uiso   1.00
H67    H     0.29638   0.11334   0.48710   0.00000  Uiso   1.00
H68    H     0.32215   0.06856   0.48731   0.00000  Uiso   1.00
H69    H     0.03441   0.24738   0.25069   0.00000  Uiso   1.00
O70    O     0.16667   0.16667   0.25000   0.00000  Uiso   1.00
O71    O     0.15693   0.12393   0.16625   0.00000  Uiso   1.00
O72    O     0.12687   0.20646   0.33749   0.00000  Uiso   1.00
O73    O     0.21088   0.17493   0.15877   0.00000  Uiso   1.00
O74    O     0.17198   0.16135   0.33749   0.00000  Uiso   1.00
O75    O     0.25895   0.06604   0.02018   0.00000  Uiso   1.00
O76    O     0.02259   0.19745   0.20957   0.00000  Uiso   1.00
O77    O     0.24548   0.08421   0.09995   0.00000  Uiso   1.00
O78    O     0.05173   0.24072   0.48407   0.00000  Uiso   1.00
O79    O     0.09344   0.17629   0.08564   0.00000  Uiso   1.00
O80    O     0.17150   0.09151   0.42586   0.00000  Uiso   1.00
O81    O     0.17849   0.08101   0.27820   0.00000  Uiso   1.00
O82    O     0.14581   0.26136   0.26767   0.00000  Uiso   1.00
O83    O     0.07452   0.13251   0.23607   0.00000  Uiso   1.00
O84    O     0.26785   0.19179   0.21805   0.00000  Uiso   1.00
O85    O     0.06990   0.18960   0.27820   0.00000  Uiso   1.00
O86    O     0.25440   0.15277   0.26767   0.00000  Uiso   1.00
O87    O     0.13800   0.06903   0.23607   0.00000  Uiso   1.00
O88    O     0.20437   0.25527   0.21805   0.00000  Uiso   1.00
Zn89   Zn    0.19244   0.14090   0.28277   0.00000  Uiso   1.00
Zn90   Zn    0.13459   0.12378   0.22257   0.00000  Uiso   1.00
Zn91   Zn    0.21166   0.19664   0.21188   0.00000  Uiso   1.00
Zn92   Zn    0.12798   0.20535   0.28277   0.00000  Uiso   1.00
C93    C     0.38622   0.16013   0.25851   0.00000  Uiso   1.00
C94    C     0.50889   0.10952   0.46274   0.00000  Uiso   1.00
C95    C     0.53271   0.09074   0.48169   0.00000  Uiso   1.00
C96    C     0.61425   0.17358   0.24163   0.00000  Uiso   1.00
C97    C     0.53463   0.10705   0.02083   0.00000  Uiso   1.00
C98    C     0.50694   0.13769   0.04222   0.00000  Uiso   1.00
C99    C     0.56214   0.09293   0.04005   0.00000  Uiso   1.00
C100   C     0.55829   0.10518   0.08054   0.00000  Uiso   1.00
C101   C     0.50824   0.15315   0.08116   0.00000  Uiso   1.00
C102   C     0.65995   0.17650   0.23928   0.00000  Uiso   1.00
C103   C     0.34094   0.15677   0.26347   0.00000  Uiso   1.00
C104   C     0.43203   0.21543   0.42186   0.00000  Uiso   1.00
C105   C     0.51277   0.32205   0.23947   0.00000  Uiso   1.00
C106   C     0.48355   0.01302   0.26346   0.00000  Uiso   1.00
C107   C     0.49001   0.05627   0.25834   0.00000  Uiso   1.00
C108   C     0.50986   0.27761   0.24164   0.00000  Uiso   1.00
C109   C     0.52152   0.14517   0.14394   0.00000  Uiso   1.00
C110   C     0.47865   0.18757   0.35641   0.00000  Uiso   1.00
C111   C     0.46582   0.19236   0.40023   0.00000  Uiso   1.00
C112   C     0.53078   0.13518   0.10098   0.00000  Uiso   1.00
C113   C     0.41756   0.21665   0.46329   0.00000  Uiso   1.00
C114   C     0.63212   0.08978   0.00599   0.00000  Uiso   1.00
C115   C     0.48546   0.17090   0.42044   0.00000  Uiso   1.00
C116   C     0.35831   0.24043   0.22241   0.00000  Uiso   1.00
C117   C     0.64689   0.13185   0.29658   0.00000  Uiso   1.00
C118   C     0.44392   0.33219   0.29520   0.00000  Uiso   1.00
C119   C     0.61037   0.11129   0.11393   0.00000  Uiso   1.00
C120   C     0.55384   0.05229   0.46016   0.00000  Uiso   1.00
C121   C     0.34534   0.21725   0.48411   0.00000  Uiso   1.00
C122   C     0.39891   0.13940   0.09294   0.00000  Uiso   1.00
C123   C     0.46472   0.06709   0.43104   0.00000  Uiso   1.00
C124   C     0.46996   0.16942   0.46175   0.00000  Uiso   1.00
C125   C     0.43736   0.19463   0.48345   0.00000  Uiso   1.00
C126   C     0.48735   0.14472   0.48211   0.00000  Uiso   1.00
C127   C     0.47989   0.15331   0.02374   0.00000  Uiso   1.00
C128   C     0.44454   0.17603   0.04510   0.00000  Uiso   1.00
C129   C     0.42429   0.19656   0.02482   0.00000  Uiso   1.00
H130   H     0.39796   0.21400   0.04196   0.00000  Uiso   1.00
H131   H     0.66083   0.25305   0.22579   0.00000  Uiso   1.00
H132   H     0.38342   0.25685   0.19955   0.00000  Uiso   1.00
H133   H     0.33371   0.12003   0.31223   0.00000  Uiso   1.00
H134   H     0.62475   0.15169   0.31913   0.00000  Uiso   1.00
H135   H     0.62878   0.10425   0.28435   0.00000  Uiso   1.00
H136   H     0.42522   0.02534   0.31013   0.00000  Uiso   1.00
H137   H     0.42241   0.30891   0.28179   0.00000  Uiso   1.00
H138   H     0.45315   0.31918   0.31850   0.00000  Uiso   1.00
H139   H     0.59836   0.11935   0.14648   0.00000  Uiso   1.00
H140   H     0.62128   0.14032   0.09896   0.00000  Uiso   1.00
H141   H     0.53992   0.00238   0.21737   0.00000  Uiso   1.00
H142   H     0.63891   0.09442   0.10877   0.00000  Uiso   1.00
H143   H     0.58915   0.05976   0.45014   0.00000  Uiso   1.00
H144   H     0.54508   0.02701   0.47986   0.00000  Uiso   1.00
H145   H     0.54370   0.03934   0.43317   0.00000  Uiso   1.00
H146   H     0.34140   0.18810   0.49830   0.00000  Uiso   1.00
H147   H     0.34153   0.20995   0.45351   0.00000  Uiso   1.00
H148   H     0.65249   0.23598   0.00179   0.00000  Uiso   1.00
H149   H     0.41693   0.11157   0.08430   0.00000  Uiso   1.00
H150   H     0.37344   0.13630   0.07725   0.00000  Uiso   1.00
H151   H     0.38284   0.14059   0.12526   0.00000  Uiso   1.00
H152   H     0.49170   0.17933   0.09716   0.00000  Uiso   1.00
H153   H     0.43764   0.08662   0.44251   0.00000  Uiso   1.00
H154   H     0.46131   0.04273   0.45107   0.00000  Uiso   1.00
H155   H     0.46258   0.05106   0.40170   0.00000  Uiso   1.00
H156   H     0.41648   0.23234   0.40674   0.00000  Uiso   1.00
H157   H     0.51363   0.15614   0.40358   0.00000  Uiso   1.00
H158   H     0.64518   0.10525   0.03077   0.00000  Uiso   1.00
H159   H     0.62971   0.11334   0.48710   0.00000  Uiso   1.00
H160   H     0.65548   0.06856   0.48731   0.00000  Uiso   1.00
H161   H     0.36774   0.24738   0.25069   0.00000  Uiso   1.00
O162   O     0.50000   0.16667   0.25000   0.00000  Uiso   1.00
O163   O     0.49027   0.12393   0.16625   0.00000  Uiso   1.00
O164   O     0.46020   0.20646   0.33749   0.00000  Uiso   1.00
O165   O     0.54421   0.17493   0.15877   0.00000  Uiso   1.00
O166   O     0.50532   0.16135   0.33749   0.00000  Uiso   1.00
O167   O     0.59228   0.06604   0.02018   0.00000  Uiso   1.00
O168   O     0.35592   0.19745   0.20957   0.00000  Uiso   1.00
O169   O     0.57882   0.08421   0.09995   0.00000  Uiso   1.00
O170   O     0.38507   0.24072   0.48407   0.00000  Uiso   1.00
O171   O     0.42678   0.17629   0.08564   0.00000  Uiso   1.00
O172   O     0.50483   0.09151   0.42586   0.00000  Uiso   1.00
O173   O     0.51182   0.08101   0.27820   0.00000  Uiso   1.00
O174   O     0.47914   0.26136   0.26767   0.00000  Uiso   1.00
O175   O     0.40785   0.13251   0.23607   0.00000  Uiso   1.00
O176   O     0.60119   0.19179   0.21805   0.00000  Uiso   1.00
O177   O     0.40323   0.18960   0.27820   0.00000  Uiso   1.00
O178   O     0.58773   0.15277   0.26767   0.00000  Uiso   1.00
O179   O     0.47133   0.06903   0.23607   0.00000  Uiso   1.00
O180   O     0.53771   0.25527   0.21805   0.00000  Uiso   1.00
Zn181  Zn    0.52577   0.14090   0.28277   0.00000  Uiso   1.00
Zn182  Zn    0.46792   0.12378   0.22257   0.00000  Uiso   1.00
Zn183  Zn    0.54500   0.19664   0.21188   0.00000  Uiso   1.00
Zn184  Zn    0.46131   0.20535   0.28277   0.00000  Uiso   1.00
C185   C     0.71955   0.16013   0.25851   0.00000  Uiso   1.00
C186   C     0.84222   0.10952   0.46274   0.00000  Uiso   1.00
C187   C     0.86604   0.09074   0.48169   0.00000  Uiso   1.00
C188   C     0.94758   0.17358   0.24163   0.00000  Uiso   1.00
C189   C     0.86797   0.10705   0.02083   0.00000  Uiso   1.00
C190   C     0.84028   0.13769   0.04222   0.00000  Uiso   1.00
C191   C     0.89547   0.09293   0.04005   0.00000  Uiso   1.00
C192   C     0.89162   0.10518   0.08054   0.00000  Uiso   1.00
C193   C     0.84157   0.15315   0.08116   0.00000  Uiso   1.00
C194   C     0.99329   0.17650   0.23928   0.00000  Uiso   1.00
C195   C     0.67427   0.15677   0.26347   0.00000  Uiso   1.00
C196   C     0.76536   0.21543   0.42186   0.00000  Uiso   1.00
C197   C     0.84610   0.32205   0.23947   0.00000  Uiso   1.00
C198   C     0.81688   0.01302   0.26346   0.00000  Uiso   1.00
C199   C     0.82334   0.05627   0.25834   0.00000  Uiso   1.00
C200   C     0.84319   0.27761   0.24164   0.00000  Uiso   1.00
C201   C     0.85485   0.14517   0.14394   0.00000  Uiso   1.00
C202   C     0.81198   0.18757   0.35641   0.00000  Uiso   1.00
C203   C     0.79916   0.19236   0.40023   0.00000  Uiso   1.00
C204   C     0.86412   0.13518   0.10098   0.00000  Uiso   1.00
C205   C     0.75090   0.21665   0.46329   0.00000  Uiso   1.00
C206   C     0.96545   0.08978   0.00599   0.00000  Uiso   1.00
C207   C     0.81879   0.17090   0.42044   0.00000  Uiso   1.00
C208   C     0.69165   0.24043   0.22241   0.00000  Uiso   1.00
C209   C     0.98022   0.13185   0.29658   0.00000  Uiso   1.00
C210   C     0.77725   0.33219   0.29520   0.00000  Uiso   1.00
C211   C     0.94371   0.11129   0.11393   0.00000  Uiso   1.00
C212   C     0.88717   0.05229   0.46016   0.00000  Uiso   1.00
C213   C     0.67867   0.21725   0.48411   0.00000  Uiso   1.00
C214   C     0.73225   0.13940   0.09294   0.00000  Uiso   1.00
C215   C     0.79805   0.06709   0.43104   0.00000  Uiso   1.00
C216   C     0.80329   0.16942   0.46175   0.00000  Uiso   1.00
C217   C     0.77070   0.19463   0.48345   0.00000  Uiso   1.00
C218   C     0.82068   0.14472   0.48211   0.00000  Uiso   1.00
C219   C     0.81323   0.15331   0.02374   0.00000  Uiso   1.00
C220   C     0.77787   0.17603   0.04510   0.00000  Uiso   1.00
C221   C     0.75762   0.19656   0.02482   0.00000  Uiso   1.00
H222   H     0.73130   0.21400   0.04196   0.00000  Uiso   1.00
H223   H     0.99417   0.25305   0.22579   0.00000  Uiso   1.00
H224   H     0.71675   0.25685   0.19955   0.00000  Uiso   1.00
H225   H     0.66704   0.12003   0.31223   0.00000  Uiso   1.00
H226   H     0.95809   0.15169   0.31913   0.00000  Uiso   1.00
H227   H     0.96211   0.10425   0.28435   0.00000  Uiso   1.00
H228   H     0.75856   0.02534   0.31013   0.00000  Uiso   1.00
H229   H     0.75574   0.30891   0.28179   0.00000  Uiso   1.00
H230   H     0.78648   0.31918   0.31850   0.00000  Uiso   1.00
H231   H     0.93169   0.11935   0.14648   0.00000  Uiso   1.00
H232   H     0.95461   0.14032   0.09896   0.00000  Uiso   1.00
H233   H     0.87326   0.00238   0.21737   0.00000  Uiso   1.00
H234   H     0.97224   0.09442   0.10877   0.00000  Uiso   1.00
H235   H     0.92249   0.05976   0.45014   0.00000  Uiso   1.00
H236   H     0.87841   0.02701   0.47986   0.00000  Uiso   1.00
H237   H     0.87703   0.03934   0.43317   0.00000  Uiso   1.00
H238   H     0.67473   0.18810   0.49830   0.00000  Uiso   1.00
H239   H     0.67486   0.20995   0.45351   0.00000  Uiso   1.00
H240   H     0.98582   0.23598   0.00179   0.00000  Uiso   1.00
H241   H     0.75026   0.11157   0.08430   0.00000  Uiso   1.00
H242   H     0.70677   0.13630   0.07725   0.00000  Uiso   1.00
H243   H     0.71617   0.14059   0.12526   0.00000  Uiso   1.00
H244   H     0.82503   0.17933   0.09716   0.00000  Uiso   1.00
H245   H     0.77097   0.08662   0.44251   0.00000  Uiso   1.00
H246   H     0.79464   0.04273   0.45107   0.00000  Uiso   1.00
H247   H     0.79591   0.05106   0.40170   0.00000  Uiso   1.00
H248   H     0.74981   0.23234   0.40674   0.00000  Uiso   1.00
H249   H     0.84697   0.15614   0.40358   0.00000  Uiso   1.00
H250   H     0.97852   0.10525   0.03077   0.00000  Uiso   1.00
H251   H     0.96305   0.11334   0.48710   0.00000  Uiso   1.00
H252   H     0.98881   0.06856   0.48731   0.00000  Uiso   1.00
H253   H     0.70107   0.24738   0.25069   0.00000  Uiso   1.00
O254   O     0.83333   0.16667   0.25000   0.00000  Uiso   1.00
O255   O     0.82360   0.12393   0.16625   0.00000  Uiso   1.00
O256   O     0.79354   0.20646   0.33749   0.00000  Uiso   1.00
O257   O     0.87755   0.17493   0.15877   0.00000  Uiso   1.00
O258   O     0.83865   0.16135   0.33749   0.00000  Uiso   1.00
O259   O     0.92562   0.06604   0.02018   0.00000  Uiso   1.00
O260   O     0.68925   0.19745   0.20957   0.00000  Uiso   1.00
O261   O     0.91215   0.08421   0.09995   0.00000  Uiso   1.00
O262   O     0.71840   0.24072   0.48407   0.00000  Uiso   1.00
O263   O     0.76011   0.17629   0.08564   0.00000  Uiso   1.00
O264   O     0.83817   0.09151   0.42586   0.00000  Uiso   1.00
O265   O     0.84515   0.08101   0.27820   0.00000  Uiso   1.00
O266   O     0.81247   0.26136   0.26767   0.00000  Uiso   1.00
O267   O     0.74119   0.13251   0.23607   0.00000  Uiso   1.00
O268   O     0.93452   0.19179   0.21805   0.00000  Uiso   1.00
O269   O     0.73656   0.18960   0.27820   0.00000  Uiso   1.00
O270   O     0.92106   0.15277   0.26767   0.00000  Uiso   1.00
O271   O     0.80467   0.06903   0.23607   0.00000  Uiso   1.00
O272   O     0.87104   0.25527   0.21805   0.00000  Uiso   1.00
Zn273  Zn    0.85910   0.14090   0.28277   0.00000  Uiso   1.00
Zn274  Zn    0.80125   0.12378   0.22257   0.00000  Uiso   1.00
Zn275  Zn    0.87833   0.19664   0.21188   0.00000  Uiso   1.00
Zn276  Zn    0.79465   0.20535   0.28277   0.00000  Uiso   1.00
C277   C     0.05289   0.49347   0.25851   0.00000  Uiso   1.00
C278   C     0.17555   0.44286   0.46274   0.00000  Uiso   1.00
C279   C     0.19937   0.42408   0.48169   0.00000  Uiso   1.00
C280   C     0.28092   0.50691   0.24163   0.00000  Uiso   1.00
C281   C     0.20130   0.44038   0.02083   0.00000  Uiso   1.00
C282   C     0.17361   0.47102   0.04222   0.00000  Uiso   1.00
C283   C     0.22880   0.42627   0.04005   0.00000  Uiso   1.00
C284   C     0.22495   0.43851   0.08054   0.00000  Uiso   1.00
C285   C     0.17491   0.48648   0.08116   0.00000  Uiso   1.00
C286   C     0.32662   0.50984   0.23928   0.00000  Uiso   1.00
C287   C     0.00761   0.49011   0.26347   0.00000  Uiso   1.00
C288   C     0.09870   0.54877   0.42186   0.00000  Uiso   1.00
C289   C     0.17944   0.65539   0.23947   0.00000  Uiso   1.00
C290   C     0.15022   0.34635   0.26346   0.00000  Uiso   1.00
C291   C     0.15668   0.38960   0.25834   0.00000  Uiso   1.00
C292   C     0.17652   0.61095   0.24164   0.00000  Uiso   1.00
C293   C     0.18819   0.47851   0.14394   0.00000  Uiso   1.00
C294   C     0.14531   0.52091   0.35641   0.00000  Uiso   1.00
C295   C     0.13249   0.52570   0.40023   0.00000  Uiso   1.00
C296   C     0.19745   0.46851   0.10098   0.00000  Uiso   1.00
C297   C     0.08423   0.54999   0.46329   0.00000  Uiso   1.00
C298   C     0.29879   0.42312   0.00599   0.00000  Uiso   1.00
C299   C     0.15212   0.50423   0.42044   0.00000  Uiso   1.00
C300   C     0.02498   0.57376   0.22241   0.00000  Uiso   1.00
C301   C     0.31355   0.46518   0.29658   0.00000  Uiso   1.00
C302   C     0.11058   0.66552   0.29520   0.00000  Uiso   1.00
C303   C     0.27704   0.44463   0.11393   0.00000  Uiso   1.00
C304   C     0.22051   0.38563   0.46016   0.00000  Uiso   1.00
C305   C     0.01200   0.55059   0.48411   0.00000  Uiso   1.00
C306   C     0.06558   0.47273   0.09294   0.00000  Uiso   1.00
C307   C     0.13139   0.40043   0.43104   0.00000  Uiso   1.00
C308   C     0.13663   0.50276   0.46175   0.00000  Uiso   1.00
C309   C     0.10403   0.52797   0.48345   0.00000  Uiso   1.00
C310   C     0.15402   0.47806   0.48211   0.00000  Uiso   1.00
C311   C     0.14656   0.48664   0.02374   0.00000  Uiso   1.00
C312   C     0.11121   0.50937   0.04510   0.00000  Uiso   1.00
C313   C     0.09095   0.52989   0.02482   0.00000  Uiso   1.00
H314   H     0.06463   0.54734   0.04196   0.00000  Uiso   1.00
H315   H     0.32750   0.58638   0.22579   0.00000  Uiso   1.00
H316   H     0.05009   0.59018   0.19955   0.00000  Uiso   1.00
H317   H     0.00037   0.45336   0.31223   0.00000  Uiso   1.00
H318   H     0.29142   0.48503   0.31913   0.00000  Uiso   1.00
H319   H     0.29545   0.43758   0.28435   0.00000  Uiso   1.00
H320   H     0.09189   0.35867   0.31013   0.00000  Uiso   1.00
H321   H     0.08907   0.64224   0.28179   0.00000  Uiso   1.00
H322   H     0.11981   0.65251   0.31850   0.00000  Uiso   1.00
H323   H     0.26502   0.45268   0.14648   0.00000  Uiso   1.00
H324   H     0.28794   0.47366   0.09896   0.00000  Uiso   1.00
H325   H     0.20659   0.33571   0.21737   0.00000  Uiso   1.00
H326   H     0.30558   0.42776   0.10877   0.00000  Uiso   1.00
H327   H     0.25582   0.39310   0.45014   0.00000  Uiso   1.00
H328   H     0.21174   0.36034   0.47986   0.00000  Uiso   1.00
H329   H     0.21036   0.37267   0.43317   0.00000  Uiso   1.00
H330   H     0.00806   0.52144   0.49830   0.00000  Uiso   1.00
H331   H     0.00820   0.54329   0.45351   0.00000  Uiso   1.00
H332   H     0.31916   0.56932   0.00179   0.00000  Uiso   1.00
H333   H     0.08359   0.44490   0.08430   0.00000  Uiso   1.00
H334   H     0.04010   0.46963   0.07725   0.00000  Uiso   1.00
H335   H     0.04950   0.47392   0.12526   0.00000  Uiso   1.00
H336   H     0.15837   0.51266   0.09716   0.00000  Uiso   1.00
H337   H     0.10431   0.41995   0.44251   0.00000  Uiso   1.00
H338   H     0.12798   0.37606   0.45107   0.00000  Uiso   1.00
H339   H     0.12925   0.38439   0.40170   0.00000  Uiso   1.00
H340   H     0.08314   0.56567   0.40674   0.00000  Uiso   1.00
H341   H     0.18030   0.48947   0.40358   0.00000  Uiso   1.00
H342   H     0.31185   0.43858   0.03077   0.00000  Uiso   1.00
H343   H     0.29638   0.44667   0.48710   0.00000  Uiso   1.00
H344   H     0.32215   0.40190   0.48731   0.00000  Uiso   1.00
H345   H     0.03441   0.58071   0.25069   0.00000  Uiso   1.00
O346   O     0.16667   0.50000   0.25000   0.00000  Uiso   1.00
O347   O     0.15693   0.45726   0.16625   0.00000  Uiso   1.00
O348   O     0.12687   0.53979   0.33749   0.00000  Uiso   1.00
O349   O     0.21088   0.50826   0.15877   0.00000  Uiso   1.00
O350   O     0.17198   0.49468   0.33749   0.00000  Uiso   1.00
O351   O     0.25895   0.39937   0.02018   0.00000  Uiso   1.00
O352   O     0.02259   0.53079   0.20957   0.00000  Uiso   1.00
O353   O     0.24548   0.41755   0.09995   0.00000  Uiso   1.00
O354   O     0.05173   0.57405   0.48407   0.00000  Uiso   1.00
O355   O     0.09344   0.50963   0.08564   0.00000  Uiso   1.00
O356   O     0.17150   0.42484   0.42586   0.00000  Uiso   1.00
O357   O     0.17849   0.41434   0.27820   0.00000  Uiso   1.00
O358   O     0.14581   0.59469   0.26767   0.00000  Uiso   1.00
O359   O     0.07452   0.46584   0.23607   0.00000  Uiso   1.00
O360   O     0.26785   0.52512   0.21805   0.00000  Uiso   1.00
O361   O     0.06990   0.52293   0.27820   0.00000  Uiso   1.00
O362   O     0.25440   0.48610   0.26767   0.00000  Uiso   1.00
O363   O     0.13800   0.40236   0.23607   0.00000  Uiso   1.00
O364   O     0.20437   0.58860   0.21805   0.00000  Uiso   1.00
Zn365  Zn    0.19244   0.47423   0.28277   0.00000  Uiso   1.00
Zn366  Zn    0.13459   0.45711   0.22257   0.00000  Uiso   1.00
Zn367  Zn    0.21166   0.52997   0.21188   0.00000  Uiso   1.00
Zn368  Zn    0.12798   0.53868   0.28277   0.00000  Uiso   1.00
C369   C     0.38622   0.49347   0.25851   0.00000  Uiso   1.00
C370   C     0.50889   0.44286   0.46274   0.00000  Uiso   1.00
C371   C     0.53271   0.42408   0.48169   0.00000  Uiso   1.00
C372   C     0.61425   0.50691   0.24163   0.00000  Uiso   1.00
C373   C     0.53463   0.44038   0.02083   0.00000  Uiso   1.00
C374   C     0.50694   0.47102   0.04222   0.00000  Uiso   1.00
C375   C     0.56214   0.42627   0.04005   0.00000  Uiso   1.00
C376   C     0.55829   0.43851   0.08054   0.00000  Uiso   1.00
C377   C     0.50824   0.48648   0.08116   0.00000  Uiso   1.00
C378   C     0.65995   0.50984   0.23928   0.00000  Uiso   1.00
C379   C     0.34094   0.49011   0.26347   0.00000  Uiso   1.00
C380   C     0.43203   0.54877   0.42186   0.00000  Uiso   1.00
C381   C     0.51277   0.65539   0.23947   0.00000  Uiso   1.00
C382   C     0.48355   0.34635   0.26346   0.00000  Uiso   1.00
C383   C     0.49001   0.38960   0.25834   0.00000  Uiso   1.00
C384   C     0.50986   0.61095   0.24164   0.00000  Uiso   1.00
C385   C     0.52152   0.47851   0.14394   0.00000  Uiso   1.00
C386   C     0.47865   0.52091   0.35641   0.00000  Uiso   1.00
C387   C     0.46582   0.52570   0.40023   0.00000  Uiso   1.00
C388   C     0.53078   0.46851   0.10098   0.00000  Uiso   1.00
C389   C     0.41756   0.54999   0.46329   0.00000  Uiso   1.00
C390   C     0.63212   0.42312   0.00599   0.00000  Uiso   1.00
C391   C     0.48546   0.50423   0.42044   0.00000  Uiso   1.00
C392   C     0.35831   0.57376   0.22241   0.00000  Uiso   1.00
C393   C     0.64689   0.46518   0.29658   0.00000  Uiso   1.00
C394   C     0.44392   0.66552   0.29520   0.00000  Uiso   1.00
C395   C     0.61037   0.44463   0.11393   0.00000  Uiso   1.00
C396   C     0.55384   0.38563   0.46016   0.00000  Uiso   1.00
C397   C     0.34534   0.55059   0.48411   0.00000  Uiso   1.00
C398   C     0.39891   0.47273   0.09294   0.00000  Uiso   1.00
C399   C     0.46472   0.40043   0.43104   0.00000  Uiso   1.00
C400   C     0.46996   0.50276   0.46175   0.00000  Uiso   1.00
C401   C     0.43736   0.52797   0.48345   0.00000  Uiso   1.00
C402   C     0.48735   0.47806   0.48211   0.00000  Uiso   1.00
C403   C     0.47989   0.48664   0.02374   0.00000  Uiso   1.00
C404   C     0.44454   0.50937   0.04510   0.00000  Uiso   1.00
C405   C     0.42429   0.52989   0.02482   0.00000  Uiso   1.00
H406   H     0.39796   0.54734   0.04196   0.00000  Uiso   1.00
H407   H     0.66083   0.58638   0.22579   0.00000  Uiso   1.00
H408   H     0.38342   0.59018   0.19955   0.00000  Uiso   1.00
H409   H     0.33371   0.45336   0.31223   0.00000  Uiso   1.00
H410   H     0.62475   0.48503   0.31913   0.00000  Uiso   1.00
H411   H     0.62878   0.43758   0.28435   0.00000  Uiso   1.00
H412   H     0.42522   0.35867   0.31013   0.00000  Uiso   1.00
H413   H     0.42241   0.64224   0.28179   0.00000  Uiso   1.00
H414   H     0.45315   0.65251   0.31850   0.00000  Uiso   1.00
H415   H     0.59836   0.45268   0.14648   0.00000  Uiso   1.00
H416   H     0.62128   0.47366   0.09896   0.00000  Uiso   1.00
H417   H     0.53992   0.33571   0.21737   0.00000  Uiso   1.00
H418   H     0.63891   0.42776   0.10877   0.00000  Uiso   1.00
H419   H     0.58915   0.39310   0.45014   0.00000  Uiso   1.00
H420   H     0.54508   0.36034   0.47986   0.00000  Uiso   1.00
H421   H     0.54370   0.37267   0.43317   0.00000  Uiso   1.00
H422   H     0.34140   0.52144   0.49830   0.00000  Uiso   1.00
H423   H     0.34153   0.54329   0.45351   0.00000  Uiso   1.00
H424   H     0.65249   0.56932   0.00179   0.00000  Uiso   1.00
H425   H     0.41693   0.44490   0.08430   0.00000  Uiso   1.00
H426   H     0.37344   0.46963   0.07725   0.00000  Uiso   1.00
H427   H     0.38284   0.47392   0.12526   0.00000  Uiso   1.00
H428   H     0.49170   0.51266   0.09716   0.00000  Uiso   1.00
H429   H     0.43764   0.41995   0.44251   0.00000  Uiso   1.00
H430   H     0.46131   0.37606   0.45107   0.00000  Uiso   1.00
H431   H     0.46258   0.38439   0.40170   0.00000  Uiso   1.00
H432   H     0.41648   0.56567   0.40674   0.00000  Uiso   1.00
H433   H     0.51363   0.48947   0.40358   0.00000  Uiso   1.00
H434   H     0.64518   0.43858   0.03077   0.00000  Uiso   1.00
H435   H     0.62971   0.44667   0.48710   0.00000  Uiso   1.00
H436   H     0.65548   0.40190   0.48731   0.00000  Uiso   1.00
H437   H     0.36774   0.58071   0.25069   0.00000  Uiso   1.00
O438   O     0.50000   0.50000   0.25000   0.00000  Uiso   1.00
O439   O     0.49027   0.45726   0.16625   0.00000  Uiso   1.00
O440   O     0.46020   0.53979   0.33749   0.00000  Uiso   1.00
O441   O     0.54421   0.50826   0.15877   0.00000  Uiso   1.00
O442   O     0.50532   0.49468   0.33749   0.00000  Uiso   1.00
O443   O     0.59228   0.39937   0.02018   0.00000  Uiso   1.00
O444   O     0.35592   0.53079   0.20957   0.00000  Uiso   1.00
O445   O     0.57882   0.41755   0.09995   0.00000  Uiso   1.00
O446   O     0.38507   0.57405   0.48407   0.00000  Uiso   1.00
O447   O     0.42678   0.50963   0.08564   0.00000  Uiso   1.00
O448   O     0.50483   0.42484   0.42586   0.00000  Uiso   1.00
O449   O     0.51182   0.41434   0.27820   0.00000  Uiso   1.00
O450   O     0.47914   0.59469   0.26767   0.00000  Uiso   1.00
O451   O     0.40785   0.46584   0.23607   0.00000  Uiso   1.00
O452   O     0.60119   0.52512   0.21805   0.00000  Uiso   1.00
O453   O     0.40323   0.52293   0.27820   0.00000  Uiso   1.00
O454   O     0.58773   0.48610   0.26767   0.00000  Uiso   1.00
O455   O     0.47133   0.40236   0.23607   0.00000  Uiso   1.00
O456   O     0.53771   0.58860   0.21805   0.00000  Uiso   1.00
Zn457  Zn    0.52577   0.47423   0.28277   0.00000  Uiso   1.00
Zn458  Zn    0.46792   0.45711   0.22257   0.00000  Uiso   1.00
Zn459  Zn    0.54500   0.52997   0.21188   0.00000  Uiso   1.00
Zn460  Zn    0.46131   0.53868   0.28277   0.00000  Uiso   1.00
C461   C     0.71955   0.49347   0.25851   0.00000  Uiso   1.00
C462   C     0.84222   0.44286   0.46274   0.00000  Uiso   1.00
C463   C     0.86604   0.42408   0.48169   0.00000  Uiso   1.00
C464   C     0.94758   0.50691   0.24163   0.00000  Uiso   1.00
C465   C     0.86797   0.44038   0.02083   0.00000  Uiso   1.00
C466   C     0.84028   0.47102   0.04222   0.00000  Uiso   1.00
C467   C     0.89547   0.42627   0.04005   0.00000  Uiso   1.00
C468   C     0.89162   0.43851   0.08054   0.00000  Uiso   1.00
C469   C     0.84157   0.48648   0.08116   0.00000  Uiso   1.00
C470   C     0.99329   0.50984   0.23928   0.00000  Uiso   1.00
C471   C     0.67427   0.49011   0.26347   0.00000  Uiso   1.00
C472   C     0.76536   0.54877   0.42186   0.00000  Uiso   1.00
C473   C     0.84610   0.65539   0.23947   0.00000  Uiso   1.00
C474   C     0.81688   0.34635   0.26346   0.00000  Uiso   1.00
C475   C     0.82334   0.38960   0.25834   0.00000  Uiso   1.00
C476   C     0.84319   0.61095   0.24164   0.00000  Uiso   1.00
C477   C     0.85485   0.47851   0.14394   0.00000  Uiso   1.00
C478   C     0.81198   0.52091   0.35641   0.00000  Uiso   1.00
C479   C     0.79916   0.52570   0.40023   0.00000  Uiso   1.00
C480   C     0.86412   0.46851   0.10098   0.00000  Uiso   1.00
C481   C     0.75090   0.54999   0.46329   0.00000  Uiso   1.00
C482   C     0.96545   0.42312   0.00599   0.00000  Uiso   1.00
C483   C     0.81879   0.50423   0.42044   0.00000  Uiso   1.00
C484   C     0.69165   0.57376   0.22241   0.00000  Uiso   1.00
C485   C     0.98022   0.46518   0.29658   0.00000  Uiso   1.00
C486   C     0.77725   0.66552   0.29520   0.00000  Uiso   1.00
C487   C     0.94371   0.44463   0.11393   0.00000  Uiso   1.00
C488   C     0.88717   0.38563   0.46016   0.00000  Uiso   1.00
C489   C     0.67867   0.55059   0.48411   0.00000  Uiso   1.00
C490   C     0.73225   0.47273   0.09294   0.00000  Uiso   1.00
C491   C     0.79805   0.40043   0.43104   0.00000  Uiso   1.00
C492   C     0.80329   0.50276   0.46175   0.00000  Uiso   1.00
C493   C     0.77070   0.52797   0.48345   0.00000  Uiso   1.00
C494   C     0.82068   0.47806   0.48211   0.00000  Uiso   1.00
C495   C     0.81323   0.48664   0.02374   0.00000  Uiso   1.00
C496   C     0.77787   0.50937   0.04510   0.00000  Uiso   1.00
C497   C     0.75762   0.52989   0.02482   0.00000  Uiso   1.00
H498   H     0.73130   0.54734   0.04196   0.00000  Uiso   1.00
H499   H     0.99417   0.58638   0.22579   0.00000  Uiso   1.00
H500   H     0.71675   0.59018   0.19955   0.00000  Uiso   1.00
H501   H     0.66704   0.45336   0.31223   0.00000  Uiso   1.00
H502   H     0.95809   0.48503   0.31913   0.00000  Uiso   1.00
H503   H     0.96211   0.43758   0.28435   0.00000  Uiso   1.00
H504   H     0.75856   0.35867   0.31013   0.00000  Uiso   1.00
H505   H     0.75574   0.64224   0.28179   0.00000  Uiso   1.00
H506   H     0.78648   0.65251   0.31850   0.00000  Uiso   1.00
H507   H     0.93169   0.45268   0.14648   0.00000  Uiso   1.00
H508   H     0.95461   0.47366   0.09896   0.00000  Uiso   1.00
H509   H     0.87326   0.33571   0.21737   0.00000  Uiso   1.00
H510   H     0.97224   0.42776   0.10877   0.00000  Uiso   1.00
H511   H     0.92249   0.39310   0.45014   0.00000  Uiso   1.00
H512   H     0.87841   0.36034   0.47986   0.00000  Uiso   1.00
H513   H     0.87703   0.37267   0.43317   0.00000  Uiso   1.00
H514   H     0.67473   0.52144   0.49830   0.00000  Uiso   1.00
H515   H     0.67486   0.54329   0.45351   0.00000  Uiso   1.00
H516   H     0.98582   0.56932   0.00179   0.00000  Uiso   1.00
H517   H     0.75026   0.44490   0.08430   0.00000  Uiso   1.00
H518   H     0.70677   0.46963   0.07725   0.00000  Uiso   1.00
H519   H     0.71617   0.47392   0.12526   0.00000  Uiso   1.00
H520   H     0.82503   0.51266   0.09716   0.00000  Uiso   1.00
H521   H     0.77097   0.41995   0.44251   0.00000  Uiso   1.00
H522   H     0.79464   0.37606   0.45107   0.00000  Uiso   1.00
H523   H     0.79591   0.38439   0.40170   0.00000  Uiso   1.00
H524   H     0.74981   0.56567   0.40674   0.00000  Uiso   1.00
H525   H     0.84697   0.48947   0.40358   0.00000  Uiso   1.00
H526   H     0.97852   0.43858   0.03077   0.00000  Uiso   1.00
H527   H     0.96305   0.44667   0.48710   0.00000  Uiso   1.00
H528   H     0.98881   0.40190   0.48731   0.00000  Uiso   1.00
H529   H     0.70107   0.58071   0.25069   0.00000  Uiso   1.00
O530   O     0.83333   0.50000   0.25000   0.00000  Uiso   1.00
O531   O     0.82360   0.45726   0.16625   0.00000  Uiso   1.00
O532   O     0.79354   0.53979   0.33749   0.00000  Uiso   1.00
O533   O     0.87755   0.50826   0.15877   0.00000  Uiso   1.00
O534   O     0.83865   0.49468   0.33749   0.00000  Uiso   1.00
O535   O     0.92562   0.39937   0.02018   0.00000  Uiso   1.00
O536   O     0.68925   0.53079   0.20957   0.00000  Uiso   1.00
O537   O     0.91215   0.41755   0.09995   0.00000  Uiso   1.00
O538   O     0.71840   0.57405   0.48407   0.00000  Uiso   1.00
O539   O     0.76011   0.50963   0.08564   0.00000  Uiso   1.00
O540   O     0.83817   0.42484   0.42586   0.00000  Uiso   1.00
O541   O     0.84515   0.41434   0.27820   0.00000  Uiso   1.00
O542   O     0.81247   0.59469   0.26767   0.00000  Uiso   1.00
O543   O     0.74119   0.46584   0.23607   0.00000  Uiso   1.00
O544   O     0.93452   0.52512   0.21805   0.00000  Uiso   1.00
O545   O     0.73656   0.52293   0.27820   0.00000  Uiso   1.00
O546   O     0.92106   0.48610   0.26767   0.00000  Uiso   1.00
O547   O     0.80467   0.40236   0.23607   0.00000  Uiso   1.00
O548   O     0.87104   0.58860   0.21805   0.00000  Uiso   1.00
Zn549  Zn    0.85910   0.47423   0.28277   0.00000  Uiso   1.00
Zn550  Zn    0.80125   0.45711   0.22257   0.00000  Uiso   1.00
Zn551  Zn    0.87833   0.52997   0.21188   0.00000  Uiso   1.00
Zn552  Zn    0.79465   0.53868   0.28277   0.00000  Uiso   1.00
C553   C     0.05289   0.82680   0.25851   0.00000  Uiso   1.00
C554   C     0.17555   0.77619   0.46274   0.00000  Uiso   1.00
C555   C     0.19937   0.75741   0.48169   0.00000  Uiso   1.00
C556   C     0.28092   0.84025   0.24163   0.00000  Uiso   1.00
C557   C     0.20130   0.77371   0.02083   0.00000  Uiso   1.00
C558   C     0.17361   0.80435   0.04222   0.00000  Uiso   1.00
C559   C     0.22880   0.75960   0.04005   0.00000  Uiso   1.00
C560   C     0.22495   0.77184   0.08054   0.00000  Uiso   1.00
C561   C     0.17491   0.81981   0.08116   0.00000  Uiso   1.00
C562   C     0.32662   0.84317   0.23928   0.00000  Uiso   1.00
C563   C     0.00761   0.82344   0.26347   0.00000  Uiso   1.00
C564   C     0.09870   0.88210   0.42186   0.00000  Uiso   1.00
C565   C     0.17944   0.98872   0.23947   0.00000  Uiso   1.00
C566   C     0.15022   0.67969   0.26346   0.00000  Uiso   1.00
C567   C     0.15668   0.72294   0.25834   0.00000  Uiso   1.00
C568   C     0.17652   0.94428   0.24164   0.00000  Uiso   1.00
C569   C     0.18819   0.81184   0.14394   0.00000  Uiso   1.00
C570   C     0.14531   0.85424   0.35641   0.00000  Uiso   1.00
C571   C     0.13249   0.85903   0.40023   0.00000  Uiso   1.00
C572   C     0.19745   0.80185   0.10098   0.00000  Uiso   1.00
C573   C     0.08423   0.88332   0.46329   0.00000  Uiso   1.00
C574   C     0.29879   0.75645   0.00599   0.00000  Uiso   1.00
C575   C     0.15212   0.83756   0.42044   0.00000  Uiso   1.00
C576   C     0.02498   0.90709   0.22241   0.00000  Uiso   1.00
C577   C     0.31355   0.79852   0.29658   0.00000  Uiso   1.00
C578   C     0.11058   0.99885   0.29520   0.00000  Uiso   1.00
C579   C     0.27704   0.77796   0.11393   0.00000  Uiso   1.00
C580   C     0.22051   0.71896   0.46016   0.00000  Uiso   1.00
C581   C     0.01200   0.88392   0.48411   0.00000  Uiso   1.00
C582   C     0.06558   0.80607   0.09294   0.00000  Uiso   1.00
C583   C     0.13139   0.73376   0.43104   0.00000  Uiso   1.00
C584   C     0.13663   0.83609   0.46175   0.00000  Uiso   1.00
C585   C     0.10403   0.86130   0.48345   0.00000  Uiso   1.00
C586   C     0.15402   0.81139   0.48211   0.00000  Uiso   1.00
C587   C     0.14656   0.81997   0.02374   0.00000  Uiso   1.00
C588   C     0.11121   0.84270   0.04510   0.00000  Uiso   1.00
C589   C     0.09095   0.86323   0.02482   0.00000  Uiso   1.00
H590   H     0.06463   0.88067   0.04196   0.00000  Uiso   1.00
H591   H     0.32750   0.91972   0.22579   0.00000  Uiso   1.00
H592   H     0.05009   0.92352   0.19955   0.00000  Uiso   1.00
H593   H     0.00037   0.78669   0.31223   0.00000  Uiso   1.00
H594   H     0.29142   0.81836   0.31913   0.00000  Uiso   1.00
H595   H     0.29545   0.77091   0.28435   0.00000  Uiso   1.00
H596   H     0.09189   0.69200   0.31013   0.00000  Uiso   1.00
H597   H     0.08907   0.97557   0.28179   0.00000  Uiso   1.00
H598   H     0.11981   0.98584   0.31850   0.00000  Uiso   1.00
H599   H     0.26502   0.78602   0.14648   0.00000  Uiso   1.00
H600   H     0.28794   0.80699   0.09896   0.00000  Uiso   1.00
H601   H     0.20659   0.66905   0.21737   0.00000  Uiso   1.00
H602   H     0.30558   0.76109   0.10877   0.00000  Uiso   1.00
H603   H     0.25582   0.72643   0.45014   0.00000  Uiso   1.00
H604   H     0.21174   0.69367   0.47986   0.00000  Uiso   1.00
H605   H     0.21036   0.70600   0.43317   0.00000  Uiso   1.00
H606   H     0.00806   0.85477   0.49830   0.00000  Uiso   1.00
H607   H     0.00820   0.87662   0.45351   0.00000  Uiso   1.00
H608   H     0.31916   0.90265   0.00179   0.00000  Uiso   1.00
H609   H     0.08359   0.77824   0.08430   0.00000  Uiso   1.00
H610   H     0.04010   0.80297   0.07725   0.00000  Uiso   1.00
H611   H     0.04950   0.80725   0.12526   0.00000  Uiso   1.00
H612   H     0.15837   0.84599   0.09716   0.00000  Uiso   1.00
H613   H     0.10431   0.75328   0.44251   0.00000  Uiso   1.00
H614   H     0.12798   0.70939   0.45107   0.00000  Uiso   1.00
H615   H     0.12925   0.71772   0.40170   0.00000  Uiso   1.00
H616   H     0.08314   0.89900   0.40674   0.00000  Uiso   1.00
H617   H     0.18030   0.82280   0.40358   0.00000  Uiso   1.00
H618   H     0.31185   0.77191   0.03077   0.00000  Uiso   1.00
H619   H     0.29638   0.78000   0.48710   0.00000  Uiso   1.00
H620   H     0.32215   0.73523   0.48731   0.00000  Uiso   1.00
H621   H     0.03441   0.91404   0.25069   0.00000  Uiso   1.00
O622   O     0.16667   0.83333   0.25000   0.00000  Uiso   1.00
O623   O     0.15693   0.79060   0.16625   0.00000  Uiso   1.00
O624   O     0.12687   0.87313   0.33749   0.00000  Uiso   1.00
O625   O     0.21088   0.84159   0.15877   0.00000  Uiso   1.00
O626   O     0.17198   0.82802   0.33749   0.00000  Uiso   1.00
O627   O     0.25895   0.73271   0.02018   0.00000  Uiso   1.00
O628   O     0.02259   0.86412   0.20957   0.00000  Uiso   1.00
O629   O     0.24548   0.75088   0.09995   0.00000  Uiso   1.00
O630   O     0.05173   0.90739   0.48407   0.00000  Uiso   1.00
O631   O     0.09344   0.84296   0.08564   0.00000  Uiso   1.00
O632   O     0.17150   0.75818   0.42586   0.00000  Uiso   1.00
O633   O     0.17849   0.74768   0.27820   0.00000  Uiso   1.00
O634   O     0.14581   0.92803   0.26767   0.00000  Uiso   1.00
O635   O     0.07452   0.79917   0.23607   0.00000  Uiso   1.00
O636   O     0.26785   0.85845   0.21805   0.00000  Uiso   1.00
O637   O     0.06990   0.85627   0.27820   0.00000  Uiso   1.00
O638   O     0.25440   0.81944   0.26767   0.00000  Uiso   1.00
O639   O     0.13800   0.73570   0.23607   0.00000  Uiso   1.00
O640   O     0.20437   0.92193   0.21805   0.00000  Uiso   1.00
Zn641  Zn    0.19244   0.80756   0.28277   0.00000  Uiso   1.00
Zn642  Zn    0.13459   0.79044   0.22257   0.00000  Uiso   1.00
Zn643  Zn    0.21166   0.86331   0.21188   0.00000  Uiso   1.00
Zn644  Zn    0.12798   0.87202   0.28277   0.00000  Uiso   1.00
C645   C     0.38622   0.82680   0.25851   0.00000  Uiso   1.00
C646   C     0.50889   0.77619   0.46274   0.00000  Uiso   1.00
C647   C     0.53271   0.75741   0.48169   0.00000  Uiso   1.00
C648   C     0.61425   0.84025   0.24163   0.00000  Uiso   1.00
C649   C     0.53463   0.77371   0.02083   0.00000  Uiso   1.00
C650   C     0.50694   0.80435   0.04222   0.00000  Uiso   1.00
C651   C     0.56214   0.75960   0.04005   0.00000  Uiso   1.00
C652   C     0.55829   0.77184   0.08054   0.00000  Uiso   1.00
C653   C     0.50824   0.81981   0.08116   0.00000  Uiso   1.00
C654   C     0.65995   0.84317   0.23928   0.00000  Uiso   1.00
C655   C     0.34094   0.82344   0.26347   0.00000  Uiso   1.00
C656   C     0.43203   0.88210   0.42186   0.00000  Uiso   1.00
C657   C     0.51277   0.98872   0.23947   0.00000  Uiso   1.00
C658   C     0.48355   0.67969   0.26346   0.00000  Uiso   1.00
C659   C     0.49001   0.72294   0.25834   0.00000  Uiso   1.00
C660   C     0.50986   0.94428   0.24164   0.00000  Uiso   1.00
C661   C     0.52152   0.81184   0.14394   0.00000  Uiso   1.00
C662   C     0.47865   0.85424   0.35641   0.00000  Uiso   1.00
C663   C     0.46582   0.85903   0.40023   0.00000  Uiso   1.00
C664   C     0.53078   0.80185   0.10098   0.00000  Uiso   1.00
C665   C     0.41756   0.88332   0.46329   0.00000  Uiso   1.00
C666   C     0.63212   0.75645   0.00599   0.00000  Uiso   1.00
C667   C     0.48546   0.83756   0.42044   0.00000  Uiso   1.00
C668   C     0.35831   0.90709   0.22241   0.00000  Uiso   1.00
C669   C     0.64689   0.79852   0.29658   0.00000  Uiso   1.00
C670   C     0.44392   0.99885   0.29520   0.00000  Uiso   1.00
C671   C     0.61037   0.77796   0.11393   0.00000  Uiso   1.00
C672   C     0.55384   0.71896   0.46016   0.00000  Uiso   1.00
C673   C     0.34534   0.88392   0.48411   0.00000  Uiso   1.00
C674   C     0.39891   0.80607   0.09294   0.00000  Uiso   1.00
C675   C     0.46472   0.73376   0.43104   0.00000  Uiso   1.00
C676   C     0.46996   0.83609   0.46175   0.00000  Uiso   1.00
C677   C     0.43736   0.86130   0.48345   0.00000  Uiso   1.00
C678   C     0.48735   0.81139   0.48211   0.00000  Uiso   1.00
C679   C     0.47989   0.81997   0.02374   0.00000  Uiso   1.00
C680   C     0.44454   0.84270   0.04510   0.00000  Uiso   1.00
C681   C     0.42429   0.86323   0.02482   0.00000  Uiso   1.00
H682   H     0.39796   0.88067   0.04196   0.00000  Uiso   1.00
H683   H     0.66083   0.91972   0.22579   0.00000  Uiso   1.00
H684   H     0.38342   0.92352   0.19955   0.00000  Uiso   1.00
H685   H     0.33371   0.78669   0.31223   0.00000  Uiso   1.00
H686   H     0.62475   0.81836   0.31913   0.00000  Uiso   1.00
H687   H     0.62878   0.77091   0.28435   0.00000  Uiso   1.00
H688   H     0.42522   0.69200   0.31013   0.00000  Uiso   1.00
H689   H     0.42241   0.97557   0.28179   0.00000  Uiso   1.00
H690   H     0.45315   0.98584   0.31850   0.00000  Uiso   1.00
H691   H     0.59836   0.78602   0.14648   0.00000  Uiso   1.00
H692   H     0.62128   0.80699   0.09896   0.00000  Uiso   1.00
H693   H     0.53992   0.66905   0.21737   0.00000  Uiso   1.00
H694   H     0.63891   0.76109   0.10877   0.00000  Uiso   1.00
H695   H     0.58915   0.72643   0.45014   0.00000  Uiso   1.00
H696   H     0.54508   0.69367   0.47986   0.00000  Uiso   1.00
H697   H     0.54370   0.70600   0.43317   0.00000  Uiso   1.00
H698   H     0.34140   0.85477   0.49830   0.00000  Uiso   1.00
H699   H     0.34153   0.87662   0.45351   0.00000  Uiso   1.00
H700   H     0.65249   0.90265   0.00179   0.00000  Uiso   1.00
H701   H     0.41693   0.77824   0.08430   0.00000  Uiso   1.00
H702   H     0.37344   0.80297   0.07725   0.00000  Uiso   1.00
H703   H     0.38284   0.80725   0.12526   0.00000  Uiso   1.00
H704   H     0.49170   0.84599   0.09716   0.00000  Uiso   1.00
H705   H     0.43764   0.75328   0.44251   0.00000  Uiso   1.00
H706   H     0.46131   0.70939   0.45107   0.00000  Uiso   1.00
H707   H     0.46258   0.71772   0.40170   0.00000  Uiso   1.00
H708   H     0.41648   0.89900   0.40674   0.00000  Uiso   1.00
H709   H     0.51363   0.82280   0.40358   0.00000  Uiso   1.00
H710   H     0.64518   0.77191   0.03077   0.00000  Uiso   1.00
H711   H     0.62971   0.78000   0.48710   0.00000  Uiso   1.00
H712   H     0.65548   0.73523   0.48731   0.00000  Uiso   1.00
H713   H     0.36774   0.91404   0.25069   0.00000  Uiso   1.00
O714   O     0.50000   0.83333   0.25000   0.00000  Uiso   1.00
O715   O     0.49027   0.79060   0.16625   0.00000  Uiso   1.00
O716   O     0.46020   0.87313   0.33749   0.00000  Uiso   1.00
O717   O     0.54421   0.84159   0.15877   0.00000  Uiso   1.00
O718   O     0.50532   0.82802   0.33749   0.00000  Uiso   1.00
O719   O     0.59228   0.73271   0.02018   0.00000  Uiso   1.00
O720   O     0.35592   0.86412   0.20957   0.00000  Uiso   1.00
O721   O     0.57882   0.75088   0.09995   0.00000  Uiso   1.00
O722   O     0.38507   0.90739   0.48407   0.00000  Uiso   1.00
O723   O     0.42678   0.84296   0.08564   0.00000  Uiso   1.00
O724   O     0.50483   0.75818   0.42586   0.00000  Uiso   1.00
O725   O     0.51182   0.74768   0.27820   0.00000  Uiso   1.00
O726   O     0.47914   0.92803   0.26767   0.00000  Uiso   1.00
O727   O     0.40785   0.79917   0.23607   0.00000  Uiso   1.00
O728   O     0.60119   0.85845   0.21805   0.00000  Uiso   1.00
O729   O     0.40323   0.85627   0.27820   0.00000  Uiso   1.00
O730   O     0.58773   0.81944   0.26767   0.00000  Uiso   1.00
O731   O     0.47133   0.73570   0.23607   0.00000  Uiso   1.00
O732   O     0.53771   0.92193   0.21805   0.00000  Uiso   1.00
Zn733  Zn    0.52577   0.80756   0.28277   0.00000  Uiso   1.00
Zn734  Zn    0.46792   0.79044   0.22257   0.00000  Uiso   1.00
Zn735  Zn    0.54500   0.86331   0.21188   0.00000  Uiso   1.00
Zn736  Zn    0.46131   0.87202   0.28277   0.00000  Uiso   1.00
C737   C     0.71955   0.82680   0.25851   0.00000  Uiso   1.00
C738   C     0.84222   0.77619   0.46274   0.00000  Uiso   1.00
C739   C     0.86604   0.75741   0.48169   0.00000  Uiso   1.00
C740   C     0.94758   0.84025   0.24163   0.00000  Uiso   1.00
C741   C     0.86797   0.77371   0.02083   0.00000  Uiso   1.00
C742   C     0.84028   0.80435   0.04222   0.00000  Uiso   1.00
C743   C     0.89547   0.75960   0.04005   0.00000  Uiso   1.00
C744   C     0.89162   0.77184   0.08054   0.00000  Uiso   1.00
C745   C     0.84157   0.81981   0.08116   0.00000  Uiso   1.00
C746   C     0.99329   0.84317   0.23928   0.00000  Uiso   1.00
C747   C     0.67427   0.82344   0.26347   0.00000  Uiso   1.00
C748   C     0.76536   0.88210   0.42186   0.00000  Uiso   1.00
C749   C     0.84610   0.98872   0.23947   0.00000  Uiso   1.00
C750   C     0.81688   0.67969   0.26346   0.00000  Uiso   1.00
C751   C     0.82334   0.72294   0.25834   0.00000  Uiso   1.00
C752   C     0.84319   0.94428   0.24164   0.00000  Uiso   1.00
C753   C     0.85485   0.81184   0.14394   0.00000  Uiso   1.00
C754   C     0.81198   0.85424   0.35641   0.00000  Uiso   1.00
C755   C     0.79916   0.85903   0.40023   0.00000  Uiso   1.00
C756   C     0.86412   0.80185   0.10098   0.00000  Uiso   1.00
C757   C     0.75090   0.88332   0.46329   0.00000  Uiso   1.00
C758   C     0.96545   0.75645   0.00599   0.00000  Uiso   1.00
C759   C     0.81879   0.83756   0.42044   0.00000  Uiso   1.00
C760   C     0.69165   0.90709   0.22241   0.00000  Uiso   1.00
C761   C     0.98022   0.79852   0.29658   0.00000  Uiso   1.00
C762   C     0.77725   0.99885   0.29520   0.00000  Uiso   1.00
C763   C     0.94371   0.77796   0.11393   0.00000  Uiso   1.00
C764   C     0.88717   0.71896   0.46016   0.00000  Uiso   1.00
C765   C     0.67867   0.88392   0.48411   0.00000  Uiso   1.00
C766   C     0.73225   0.80607   0.09294   0.00000  Uiso   1.00
C767   C     0.79805   0.73376   0.43104   0.00000  Uiso   1.00
C768   C     0.80329   0.83609   0.46175   0.00000  Uiso   1.00
C769   C     0.77070   0.86130   0.48345   0.00000  Uiso   1.00
C770   C     0.82068   0.81139   0.48211   0.00000  Uiso   1.00
C771   C     0.81323   0.81997   0.02374   0.00000  Uiso   1.00
C772   C     0.77787   0.84270   0.04510   0.00000  Uiso   1.00
C773   C     0.75762   0.86323   0.02482   0.00000  Uiso   1.00
H774   H     0.73130   0.88067   0.04196   0.00000  Uiso   1.00
H775   H     0.99417   0.91972   0.22579   0.00000  Uiso   1.00
H776   H     0.71675   0.92352   0.19955   0.00000  Uiso   1.00
H777   H     0.66704   0.78669   0.31223   0.00000  Uiso   1.00
H778   H     0.95809   0.81836   0.31913   0.00000  Uiso   1.00
H779   H     0.96211   0.77091   0.28435   0.00000  Uiso   1.00
H780   H     0.75856   0.69200   0.31013   0.00000  Uiso   1.00
H781   H     0.75574   0.97557   0.28179   0.00000  Uiso   1.00
H782   H     0.78648   0.98584   0.31850   0.00000  Uiso   1.00
H783   H     0.93169   0.78602   0.14648   0.00000  Uiso   1.00
H784   H     0.95461   0.80699   0.09896   0.00000  Uiso   1.00
H785   H     0.87326   0.66905   0.21737   0.00000  Uiso   1.00
H786   H     0.97224   0.76109   0.10877   0.00000  Uiso   1.00
H787   H     0.92249   0.72643   0.45014   0.00000  Uiso   1.00
H788   H     0.87841   0.69367   0.47986   0.00000  Uiso   1.00
H789   H     0.87703   0.70600   0.43317   0.00000  Uiso   1.00
H790   H     0.67473   0.85477   0.49830   0.00000  Uiso   1.00
H791   H     0.67486   0.87662   0.45351   0.00000  Uiso   1.00
H792   H     0.98582   0.90265   0.00179   0.00000  Uiso   1.00
H793   H     0.75026   0.77824   0.08430   0.00000  Uiso   1.00
H794   H     0.70677   0.80297   0.07725   0.00000  Uiso   1.00
H795   H     0.71617   0.80725   0.12526   0.00000  Uiso   1.00
H796   H     0.82503   0.84599   0.09716   0.00000  Uiso   1.00
H797   H     0.77097   0.75328   0.44251   0.00000  Uiso   1.00
H798   H     0.79464   0.70939   0.45107   0.00000  Uiso   1.00
H799   H     0.79591   0.71772   0.40170   0.00000  Uiso   1.00
H800   H     0.74981   0.89900   0.40674   0.00000  Uiso   1.00
H801   H     0.84697   0.82280   0.40358   0.00000  Uiso   1.00
H802   H     0.97852   0.77191   0.03077   0.00000  Uiso   1.00
H803   H     0.96305   0.78000   0.48710   0.00000  Uiso   1.00
H804   H     0.98881   0.73523   0.48731   0.00000  Uiso   1.00
H805   H     0.70107   0.91404   0.25069   0.00000  Uiso   1.00
O806   O     0.83333   0.83333   0.25000   0.00000  Uiso   1.00
O807   O     0.82360   0.79060   0.16625   0.00000  Uiso   1.00
O808   O     0.79354   0.87313   0.33749   0.00000  Uiso   1.00
O809   O     0.87755   0.84159   0.15877   0.00000  Uiso   1.00
O810   O     0.83865   0.82802   0.33749   0.00000  Uiso   1.00
O811   O     0.92562   0.73271   0.02018   0.00000  Uiso   1.00
O812   O     0.68925   0.86412   0.20957   0.00000  Uiso   1.00
O813   O     0.91215   0.75088   0.09995   0.00000  Uiso   1.00
O814   O     0.71840   0.90739   0.48407   0.00000  Uiso   1.00
O815   O     0.76011   0.84296   0.08564   0.00000  Uiso   1.00
O816   O     0.83817   0.75818   0.42586   0.00000  Uiso   1.00
O817   O     0.84515   0.74768   0.27820   0.00000  Uiso   1.00
O818   O     0.81247   0.92803   0.26767   0.00000  Uiso   1.00
O819   O     0.74119   0.79917   0.23607   0.00000  Uiso   1.00
O820   O     0.93452   0.85845   0.21805   0.00000  Uiso   1.00
O821   O     0.73656   0.85627   0.27820   0.00000  Uiso   1.00
O822   O     0.92106   0.81944   0.26767   0.00000  Uiso   1.00
O823   O     0.80467   0.73570   0.23607   0.00000  Uiso   1.00
O824   O     0.87104   0.92193   0.21805   0.00000  Uiso   1.00
Zn825  Zn    0.85910   0.80756   0.28277   0.00000  Uiso   1.00
Zn826  Zn    0.80125   0.79044   0.22257   0.00000  Uiso   1.00
Zn827  Zn    0.87833   0.86331   0.21188   0.00000  Uiso   1.00
Zn828  Zn    0.79465   0.87202   0.28277   0.00000  Uiso   1.00
C829   C     0.05289   0.16013   0.75851   0.00000  Uiso   1.00
C830   C     0.17555   0.10952   0.96274   0.00000  Uiso   1.00
C831   C     0.19937   0.09074   0.98169   0.00000  Uiso   1.00
C832   C     0.28092   0.17358   0.74163   0.00000  Uiso   1.00
C833   C     0.20130   0.10705   0.52083   0.00000  Uiso   1.00
C834   C     0.17361   0.13769   0.54222   0.00000  Uiso   1.00
C835   C     0.22880   0.09293   0.54005   0.00000  Uiso   1.00
C836   C     0.22495   0.10518   0.58054   0.00000  Uiso   1.00
C837   C     0.17491   0.15315   0.58116   0.00000  Uiso   1.00
C838   C     0.32662   0.17650   0.73928   0.00000  Uiso   1.00
C839   C     0.00761   0.15677   0.76347   0.00000  Uiso   1.00
C840   C     0.09870   0.21543   0.92186   0.00000  Uiso   1.00
C841   C     0.17944   0.32205   0.73947   0.00000  Uiso   1.00
C842   C     0.15022   0.01302   0.76346   0.00000  Uiso   1.00
C843   C     0.15668   0.05627   0.75834   0.00000  Uiso   1.00
C844   C     0.17652   0.27761   0.74164   0.00000  Uiso   1.00
C845   C     0.18819   0.14517   0.64394   0.00000  Uiso   1.00
C846   C     0.14531   0.18757   0.85641   0.00000  Uiso   1.00
C847   C     0.13249   0.19236   0.90023   0.00000  Uiso   1.00
C848   C     0.19745   0.13518   0.60098   0.00000  Uiso   1.00
C849   C     0.08423   0.21665   0.96329   0.00000  Uiso   1.00
C850   C     0.29879   0.08978   0.50599   0.00000  Uiso   1.00
C851   C     0.15212   0.17090   0.92044   0.00000  Uiso   1.00
C852   C     0.02498   0.24043   0.72241   0.00000  Uiso   1.00
C853   C     0.31355   0.13185   0.79658   0.00000  Uiso   1.00
C854   C     0.11058   0.33219   0.79520   0.00000  Uiso   1.00
C855   C     0.27704   0.11129   0.61393   0.00000  Uiso   1.00
C856   C     0.22051   0.05229   0.96016   0.00000  Uiso   1.00
C857   C     0.01200   0.21725   0.98411   0.00000  Uiso   1.00
C858   C     0.06558   0.13940   0.59294   0.00000  Uiso   1.00
C859   C     0.13139   0.06709   0.93104   0.00000  Uiso   1.00
C860   C     0.13663   0.16942   0.96175   0.00000  Uiso   1.00
C861   C     0.10403   0.19463   0.98345   0.00000  Uiso   1.00
C862   C     0.15402   0.14472   0.98211   0.00000  Uiso   1.00
C863   C     0.14656   0.15331   0.52374   0.00000  Uiso   1.00
C864   C     0.11121   0.17603   0.54510   0.00000  Uiso   1.00
C865   C     0.09095   0.19656   0.52482   0.00000  Uiso   1.00
H866   H     0.06463   0.21400   0.54196   0.00000  Uiso   1.00
H867   H     0.32750   0.25305   0.72579   0.00000  Uiso   1.00
H868   H     0.05009   0.25685   0.69955   0.00000  Uiso   1.00
H869   H     0.00037   0.12003   0.81223   0.00000  Uiso   1.00
H870   H     0.29142   0.15169   0.81913   0.00000  Uiso   1.00
H871   H     0.29545   0.10425   0.78435   0.00000  Uiso   1.00
H872   H     0.09189   0.02534   0.81013   0.00000  Uiso   1.00
H873   H     0.08907   0.30891   0.78179   0.00000  Uiso   1.00
H874   H     0.11981   0.31918   0.81850   0.00000  Uiso   1.00
H875   H     0.26502   0.11935   0.64648   0.00000  Uiso   1.00
H876   H     0.28794   0.14032   0.59896   0.00000  Uiso   1.00
H877   H     0.20659   0.00238   0.71737   0.00000  Uiso   1.00
H878   H     0.30558   0.09442   0.60877   0.00000  Uiso   1.00
H879   H     0.25582   0.05976   0.95014   0.00000  Uiso   1.00
H880   H     0.21174   0.02701   0.97986   0.00000  Uiso   1.00
H881   H     0.21036   0.03934   0.93317   0.00000  Uiso   1.00
H882   H     0.00806   0.18810   0.99830   0.00000  Uiso   1.00
H883   H     0.00820   0.20995   0.95351   0.00000  Uiso   1.00
H884   H     0.31916   0.23598   0.50179   0.00000  Uiso   1.00
H885   H     0.08359   0.11157   0.58430   0.00000  Uiso   1.00
H886   H     0.04010   0.13630   0.57725   0.00000  Uiso   1.00
H887   H     0.04950   0.14059   0.62526   0.00000  Uiso   1.00
H888   H     0.15837   0.17933   0.59716   0.00000  Uiso   1.00
H889   H     0.10431   0.08662   0.94251   0.00000  Uiso   1.00
H890   H     0.12798   0.04273   0.95107   0.00000  Uiso   1.00
H891   H     0.12925   0.05106   0.90170   0.00000  Uiso   1.00
H892   H     0.08314   0.23234   0.90674   0.00000  Uiso   1.00
H893   H     0.18030   0.15614   0.90358   0.00000  Uiso   1.00
H894   H     0.31185   0.10525   0.53077   0.00000  Uiso   1.00
H895   H     0.29638   0.11334   0.98710   0.00000  Uiso   1.00
H896   H     0.32215   0.06856   0.98731   0.00000  Uiso   1.00
H897   H     0.03441   0.24738   0.75069   0.00000  Uiso   1.00
O898   O     0.16667   0.16667   0.75000   0.00000  Uiso   1.00
O899   O     0.15693   0.12393   0.66625   0.00000  Uiso   1.00
O900   O     0.12687   0.20646   0.83749   0.00000  Uiso   1.00
O901   O     0.21088   0.17493   0.65877   0.00000  Uiso   1.00
O902   O     0.17198   0.16135   0.83749   0.00000  Uiso   1.00
O903   O     0.25895   0.06604   0.52018   0.00000  Uiso   1.00
O904   O     0.02259   0.19745   0.70957   0.00000  Uiso   1.00
O905   O     0.24548   0.08421   0.59995   0.00000  Uiso   1.00
O906   O     0.05173   0.24072   0.98407   0.00000  Uiso   1.00
O907   O     0.09344   0.17629   0.58564   0.00000  Uiso   1.00
O908   O     0.17150   0.09151   0.92586   0.00000  Uiso   1.00
O909   O     0.17849   0.08101   0.77820   0.00000  Uiso   1.00
O910   O     0.14581   0.26136   0.76767   0.00000  Uiso   1.00
O911   O     0.07452   0.13251   0.73607   0.00000  Uiso   1.00
O912   O     0.26785   0.19179   0.71805   0.00000  Uiso   1.00
O913   O     0.06990   0.18960   0.77820   0.00000  Uiso   1.00
O914   O     0.25440   0.15277   0.76767   0.00000  Uiso   1.00
O915   O     0.13800   0.06903   0.73607   0.00000  Uiso   1.00
O916   O     0.20437   0.25527   0.71805   0.00000  Uiso   1.00
Zn917  Zn    0.19244   0.14090   0.78277   0.00000  Uiso   1.00
Zn918  Zn    0.13459   0.12378   0.72257   0.00000  Uiso   1.00
Zn919  Zn    0.21166   0.19664   0.71188   0.00000  Uiso   1.00
Zn920  Zn    0.12798   0.20535   0.78277   0.00000  Uiso   1.00
C921   C     0.38622   0.16013   0.75851   0.00000  Uiso   1.00
C922   C     0.50889   0.10952   0.96274   0.00000  Uiso   1.00
C923   C     0.53271   0.09074   0.98169   0.00000  Uiso   1.00
C924   C     0.61425   0.17358   0.74163   0.00000  Uiso   1.00
C925   C     0.53463   0.10705   0.52083   0.00000  Uiso   1.00
C926   C     0.50694   0.13769   0.54222   0.00000  Uiso   1.00
C927   C     0.56214   0.09293   0.54005   0.00000  Uiso   1.00
C928   C     0.55829   0.10518   0.58054   0.00000  Uiso   1.00
C929   C     0.50824   0.15315   0.58116   0.00000  Uiso   1.00
C930   C     0.65995   0.17650   0.73928   0.00000  Uiso   1.00
C931   C     0.34094   0.15677   0.76347   0.00000  Uiso   1.00
C932   C     0.43203   0.21543   0.92186   0.00000  Uiso   1.00
C933   C     0.51277   0.32205   0.73947   0.00000  Uiso   1.00
C934   C     0.48355   0.01302   0.76346   0.00000  Uiso   1.00
C935   C     0.49001   0.05627   0.75834   0.00000  Uiso   1.00
C936   C     0.50986   0.27761   0.74164   0.00000  Uiso   1.00
C937   C     0.52152   0.14517   0.64394   0.00000  Uiso   1.00
C938   C     0.47865   0.18757   0.85641   0.00000  Uiso   1.00
C939   C     0.46582   0.19236   0.90023   0.00000  Uiso   1.00
C940   C     0.53078   0.13518   0.60098   0.00000  Uiso   1.00
C941   C     0.41756   0.21665   0.96329   0.00000  Uiso   1.00
C942   C     0.63212   0.08978   0.50599   0.00000  Uiso   1.00
C943   C     0.48546   0.17090   0.92044   0.00000  Uiso   1.00
C944   C     0.35831   0.24043   0.72241   0.00000  Uiso   1.00
C945   C     0.64689   0.13185   0.79658   0.00000  Uiso   1.00
C946   C     0.44392   0.33219   0.79520   0.00000  Uiso   1.00
C947   C     0.61037   0.11129   0.61393   0.00000  Uiso   1.00
C948   C     0.55384   0.05229   0.96016   0.00000  Uiso   1.00
C949   C     0.34534   0.21725   0.98411   0.00000  Uiso   1.00
C950   C     0.39891   0.13940   0.59294   0.00000  Uiso   1.00
C951   C     0.46472   0.06709   0.93104   0.00000  Uiso   1.00
C952   C     0.46996   0.16942   0.96175   0.00000  Uiso   1.00
C953   C     0.43736   0.19463   0.98345   0.00000  Uiso   1.00
C954   C     0.48735   0.14472   0.98211   0.00000  Uiso   1.00
C955   C     0.47989   0.15331   0.52374   0.00000  Uiso   1.00
C956   C     0.44454   0.17603   0.54510   0.00000  Uiso   1.00
C957   C     0.42429   0.19656   0.52482   0.00000  Uiso   1.00
H958   H     0.39796   0.21400   0.54196   0.00000  Uiso   1.00
H959   H     0.66083   0.25305   0.72579   0.00000  Uiso   1.00
H960   H     0.38342   0.25685   0.69955   0.00000  Uiso   1.00
H961   H     0.33371   0.12003   0.81223   0.00000  Uiso   1.00
H962   H     0.62475   0.15169   0.81913   0.00000  Uiso   1.00
H963   H     0.62878   0.10425   0.78435   0.00000  Uiso   1.00
H964   H     0.42522   0.02534   0.81013   0.00000  Uiso   1.00
H965   H     0.42241   0.30891   0.78179   0.00000  Uiso   1.00
H966   H     0.45315   0.31918   0.81850   0.00000  Uiso   1.00
H967   H     0.59836   0.11935   0.64648   0.00000  Uiso   1.00
H968   H     0.62128   0.14032   0.59896   0.00000  Uiso   1.00
H969   H     0.53992   0.00238   0.71737   0.00000  Uiso   1.00
H970   H     0.63891   0.09442   0.60877   0.00000  Uiso   1.00
H971   H     0.58915   0.05976   0.95014   0.00000  Uiso   1.00
H972   H     0.54508   0.02701   0.97986   0.00000  Uiso   1.00
H973   H     0.54370   0.03934   0.93317   0.00000  Uiso   1.00
H974   H     0.34140   0.18810   0.99830   0.00000  Uiso   1.00
H975   H     0.34153   0.20995   0.95351   0.00000  Uiso   1.00
H976   H     0.65249   0.23598   0.50179   0.00000  Uiso   1.00
H977   H     0.41693   0.11157   0.58430   0.00000  Uiso   1.00
H978   H     0.37344   0.13630   0.57725   0.00000  Uiso   1.00
H979   H     0.38284   0.14059   0.62526   0.00000  Uiso   1.00
H980   H     0.49170   0.17933   0.59716   0.00000  Uiso   1.00
H981   H     0.43764   0.08662   0.94251   0.00000  Uiso   1.00
H982   H     0.46131   0.04273   0.95107   0.00000  Uiso   1.00
H983   H     0.46258   0.05106   0.90170   0.00000  Uiso   1.00
H984   H     0.41648   0.23234   0.90674   0.00000  Uiso   1.00
H985   H     0.51363   0.15614   0.90358   0.00000  Uiso   1.00
H986   H     0.64518   0.10525   0.53077   0.00000  Uiso   1.00
H987   H     0.62971   0.11334   0.98710   0.00000  Uiso   1.00
H988   H     0.65548   0.06856   0.98731   0.00000  Uiso   1.00
H989   H     0.36774   0.24738   0.75069   0.00000  Uiso   1.00
O990   O     0.50000   0.16667   0.75000   0.00000  Uiso   1.00
O991   O     0.49027   0.12393   0.66625   0.00000  Uiso   1.00
O992   O     0.46020   0.20646   0.83749   0.00000  Uiso   1.00
O993   O     0.54421   0.17493   0.65877   0.00000  Uiso   1.00
O994   O     0.50532   0.16135   0.83749   0.00000  Uiso   1.00
O995   O     0.59228   0.06604   0.52018   0.00000  Uiso   1.00
O996   O     0.35592   0.19745   0.70957   0.00000  Uiso   1.00
O997   O     0.57882   0.08421   0.59995   0.00000  Uiso   1.00
O998   O     0.38507   0.24072   0.98407   0.00000  Uiso   1.00
O999   O     0.42678   0.17629   0.58564   0.00000  Uiso   1.00
O1000  O     0.50483   0.09151   0.92586   0.00000  Uiso   1.00
O1001  O     0.51182   0.08101   0.77820   0.00000  Uiso   1.00
O1002  O     0.47914   0.26136   0.76767   0.00000  Uiso   1.00
O1003  O     0.40785   0.13251   0.73607   0.00000  Uiso   1.00
O1004  O     0.60119   0.19179   0.71805   0.00000  Uiso   1.00
O1005  O     0.40323   0.18960   0.77820   0.00000  Uiso   1.00
O1006  O     0.58773   0.15277   0.76767   0.00000  Uiso   1.00
O1007  O     0.47133   0.06903   0.73607   0.00000  Uiso   1.00
O1008  O     0.53771   0.25527   0.71805   0.00000  Uiso   1.00
Zn1009 Zn    0.52577   0.14090   0.78277   0.00000  Uiso   1.00
Zn1010 Zn    0.46792   0.12378   0.72257   0.00000  Uiso   1.00
Zn1011 Zn    0.54500   0.19664   0.71188   0.00000  Uiso   1.00
Zn1012 Zn    0.46131   0.20535   0.78277   0.00000  Uiso   1.00
C1013  C     0.71955   0.16013   0.75851   0.00000  Uiso   1.00
C1014  C     0.84222   0.10952   0.96274   0.00000  Uiso   1.00
C1015  C     0.86604   0.09074   0.98169   0.00000  Uiso   1.00
C1016  C     0.94758   0.17358   0.74163   0.00000  Uiso   1.00
C1017  C     0.86797   0.10705   0.52083   0.00000  Uiso   1.00
C1018  C     0.84028   0.13769   0.54222   0.00000  Uiso   1.00
C1019  C     0.89547   0.09293   0.54005   0.00000  Uiso   1.00
C1020  C     0.89162   0.10518   0.58054   0.00000  Uiso   1.00
C1021  C     0.84157   0.15315   0.58116   0.00000  Uiso   1.00
C1022  C     0.99329   0.17650   0.73928   0.00000  Uiso   1.00
C1023  C     0.67427   0.15677   0.76347   0.00000  Uiso   1.00
C1024  C     0.76536   0.21543   0.92186   0.00000  Uiso   1.00
C1025  C     0.84610   0.32205   0.73947   0.00000  Uiso   1.00
C1026  C     0.81688   0.01302   0.76346   0.00000  Uiso   1.00
C1027  C     0.82334   0.05627   0.75834   0.00000  Uiso   1.00
C1028  C     0.84319   0.27761   0.74164   0.00000  Uiso   1.00
C1029  C     0.85485   0.14517   0.64394   0.00000  Uiso   1.00
C1030  C     0.81198   0.18757   0.85641   0.00000  Uiso   1.00
C1031  C     0.79916   0.19236   0.90023   0.00000  Uiso   1.00
C1032  C     0.86412   0.13518   0.60098   0.00000  Uiso   1.00
C1033  C     0.75090   0.21665   0.96329   0.00000  Uiso   1.00
C1034  C     0.96545   0.08978   0.50599   0.00000  Uiso   1.00
C1035  C     0.81879   0.17090   0.92044   0.00000  Uiso   1.00
C1036  C     0.69165   0.24043   0.72241   0.00000  Uiso   1.00
C1037  C     0.98022   0.13185   0.79658   0.00000  Uiso   1.00
C1038  C     0.77725   0.33219   0.79520   0.00000  Uiso   1.00
C1039  C     0.94371   0.11129   0.61393   0.00000  Uiso   1.00
C1040  C     0.88717   0.05229   0.96016   0.00000  Uiso   1.00
C1041  C     0.67867   0.21725   0.98411   0.00000  Uiso   1.00
C1042  C     0.73225   0.13940   0.59294   0.00000  Uiso   1.00
C1043  C     0.79805   0.06709   0.93104   0.00000  Uiso   1.00
C1044  C     0.80329   0.16942   0.96175   0.00000  Uiso   1.00
C1045  C     0.77070   0.19463   0.98345   0.00000  Uiso   1.00
C1046  C     0.82068   0.14472   0.98211   0.00000  Uiso   1.00
C1047  C     0.81323   0.15331   0.52374   0.00000  Uiso   1.00
C1048  C     0.77787   0.17603   0.54510   0.00000  Uiso   1.00
C1049  C     0.75762   0.19656   0.52482   0.00000  Uiso   1.00
H1050  H     0.73130   0.21400   0.54196   0.00000  Uiso   1.00
H1051  H     0.99417   0.25305   0.72579   0.00000  Uiso   1.00
H1052  H     0.71675   0.25685   0.69955   0.00000  Uiso   1.00
H1053  H     0.66704   0.12003   0.81223   0.00000  Uiso   1.00
H1054  H     0.95809   0.15169   0.81913   0.00000  Uiso   1.00
H1055  H     0.96211   0.10425   0.78435   0.00000  Uiso   1.00
H1056  H     0.75856   0.02534   0.81013   0.00000  Uiso   1.00
H1057  H     0.75574   0.30891   0.78179   0.00000  Uiso   1.00
H1058  H     0.78648   0.31918   0.81850   0.00000  Uiso   1.00
H1059  H     0.93169   0.11935   0.64648   0.00000  Uiso   1.00
H1060  H     0.95461   0.14032   0.59896   0.00000  Uiso   1.00
H1061  H     0.87326   0.00238   0.71737   0.00000  Uiso   1.00
H1062  H     0.97224   0.09442   0.60877   0.00000  Uiso   1.00
H1063  H     0.92249   0.05976   0.95014   0.00000  Uiso   1.00
H1064  H     0.87841   0.02701   0.97986   0.00000  Uiso   1.00
H1065  H     0.87703   0.03934   0.93317   0.00000  Uiso   1.00
H1066  H     0.67473   0.18810   0.99830   0.00000  Uiso   1.00
H1067  H     0.67486   0.20995   0.95351   0.00000  Uiso   1.00
H1068  H     0.98582   0.23598   0.50179   0.00000  Uiso   1.00
H1069  H     0.75026   0.11157   0.58430   0.00000  Uiso   1.00
H1070  H     0.70677   0.13630   0.57725   0.00000  Uiso   1.00
H1071  H     0.71617   0.14059   0.62526   0.00000  Uiso   1.00
H1072  H     0.82503   0.17933   0.59716   0.00000  Uiso   1.00
H1073  H     0.77097   0.08662   0.94251   0.00000  Uiso   1.00
H1074  H     0.79464   0.04273   0.95107   0.00000  Uiso   1.00
H1075  H     0.79591   0.05106   0.90170   0.00000  Uiso   1.00
H1076  H     0.74981   0.23234   0.90674   0.00000  Uiso   1.00
H1077  H     0.84697   0.15614   0.90358   0.00000  Uiso   1.00
H1078  H     0.97852   0.10525   0.53077   0.00000  Uiso   1.00
H1079  H     0.96305   0.11334   0.98710   0.00000  Uiso   1.00
H1080  H     0.98881   0.06856   0.98731   0.00000  Uiso   1.00
H1081  H     0.70107   0.24738   0.75069   0.00000  Uiso   1.00
O1082  O     0.83333   0.16667   0.75000   0.00000  Uiso   1.00
O1083  O     0.82360   0.12393   0.66625   0.00000  Uiso   1.00
O1084  O     0.79354   0.20646   0.83749   0.00000  Uiso   1.00
O1085  O     0.87755   0.17493   0.65877   0.00000  Uiso   1.00
O1086  O     0.83865   0.16135   0.83749   0.00000  Uiso   1.00
O1087  O     0.92562   0.06604   0.52018   0.00000  Uiso   1.00
O1088  O     0.68925   0.19745   0.70957   0.00000  Uiso   1.00
O1089  O     0.91215   0.08421   0.59995   0.00000  Uiso   1.00
O1090  O     0.71840   0.24072   0.98407   0.00000  Uiso   1.00
O1091  O     0.76011   0.17629   0.58564   0.00000  Uiso   1.00
O1092  O     0.83817   0.09151   0.92586   0.00000  Uiso   1.00
O1093  O     0.84515   0.08101   0.77820   0.00000  Uiso   1.00
O1094  O     0.81247   0.26136   0.76767   0.00000  Uiso   1.00
O1095  O     0.74119   0.13251   0.73607   0.00000  Uiso   1.00
O1096  O     0.93452   0.19179   0.71805   0.00000  Uiso   1.00
O1097  O     0.73656   0.18960   0.77820   0.00000  Uiso   1.00
O1098  O     0.92106   0.15277   0.76767   0.00000  Uiso   1.00
O1099  O     0.80467   0.06903   0.73607   0.00000  Uiso   1.00
O1100  O     0.87104   0.25527   0.71805   0.00000  Uiso   1.00
Zn1101 Zn    0.85910   0.14090   0.78277   0.00000  Uiso   1.00
Zn1102 Zn    0.80125   0.12378   0.72257   0.00000  Uiso   1.00
Zn1103 Zn    0.87833   0.19664   0.71188   0.00000  Uiso   1.00
Zn1104 Zn    0.79465   0.20535   0.78277   0.00000  Uiso   1.00
C1105  C     0.05289   0.49347   0.75851   0.00000  Uiso   1.00
C1106  C     0.17555   0.44286   0.96274   0.00000  Uiso   1.00
C1107  C     0.19937   0.42408   0.98169   0.00000  Uiso   1.00
C1108  C     0.28092   0.50691   0.74163   0.00000  Uiso   1.00
C1109  C     0.20130   0.44038   0.52083   0.00000  Uiso   1.00
C1110  C     0.17361   0.47102   0.54222   0.00000  Uiso   1.00
C1111  C     0.22880   0.42627   0.54005   0.00000  Uiso   1.00
C1112  C     0.22495   0.43851   0.58054   0.00000  Uiso   1.00
C1113  C     0.17491   0.48648   0.58116   0.00000  Uiso   1.00
C1114  C     0.32662   0.50984   0.73928   0.00000  Uiso   1.00
C1115  C     0.00761   0.49011   0.76347   0.00000  Uiso   1.00
C1116  C     0.09870   0.54877   0.92186   0.00000  Uiso   1.00
C1117  C     0.17944   0.65539   0.73947   0.00000  Uiso   1.00
C1118  C     0.15022   0.34635   0.76346   0.00000  Uiso   1.00
C1119  C     0.15668   0.38960   0.75834   0.00000  Uiso   1.00
C1120  C     0.17652   0.61095   0.74164   0.00000  Uiso   1.00
C1121  C     0.18819   0.47851   0.64394   0.00000  Uiso   1.00
C1122  C     0.14531   0.52091   0.85641   0.00000  Uiso   1.00
C1123  C     0.13249   0.52570   0.90023   0.00000  Uiso   1.00
C1124  C     0.19745   0.46851   0.60098   0.00000  Uiso   1.00
C1125  C     0.08423   0.54999   0.96329   0.00000  Uiso   1.00
C1126  C     0.29879   0.42312   0.50599   0.00000  Uiso   1.00
C1127  C     0.15212   0.50423   0.92044   0.00000  Uiso   1.00
C1128  C     0.02498   0.57376   0.72241   0.00000  Uiso   1.00
C1129  C     0.31355   0.46518   0.79658   0.00000  Uiso   1.00
C1130  C     0.11058   0.66552   0.79520   0.00000  Uiso   1.00
C1131  C     0.27704   0.44463   0.61393   0.00000  Uiso   1.00
C1132  C     0.22051   0.38563   0.96016   0.00000  Uiso   1.00
C1133  C     0.01200   0.55059   0.98411   0.00000  Uiso   1.00
C1134  C     0.06558   0.47273   0.59294   0.00000  Uiso   1.00
C1135  C     0.13139   0.40043   0.93104   0.00000  Uiso   1.00
C1136  C     0.13663   0.50276   0.96175   0.00000  Uiso   1.00
C1137  C     0.10403   0.52797   0.98345   0.00000  Uiso   1.00
C1138  C     0.15402   0.47806   0.98211   0.00000  Uiso   1.00
C1139  C     0.14656   0.48664   0.52374   0.00000  Uiso   1.00
C1140  C     0.11121   0.50937   0.54510   0.00000  Uiso   1.00
C1141  C     0.09095   0.52989   0.52482   0.00000  Uiso   1.00
H1142  H     0.06463   0.54734   0.54196   0.00000  Uiso   1.00
H1143  H     0.32750   0.58638   0.72579   0.00000  Uiso   1.00
H1144  H     0.05009   0.59018   0.69955   0.00000  Uiso   1.00
H1145  H     0.00037   0.45336   0.81223   0.00000  Uiso   1.00
H1146  H     0.29142   0.48503   0.81913   0.00000  Uiso   1.00
H1147  H     0.29545   0.43758   0.78435   0.00000  Uiso   1.00
H1148  H     0.09189   0.35867   0.81013   0.00000  Uiso   1.00
H1149  H     0.08907   0.64224   0.78179   0.00000  Uiso   1.00
H1150  H     0.11981   0.65251   0.81850   0.00000  Uiso   1.00
H1151  H     0.26502   0.45268   0.64648   0.00000  Uiso   1.00
H1152  H     0.28794   0.47366   0.59896   0.00000  Uiso   1.00
H1153  H     0.20659   0.33571   0.71737   0.00000  Uiso   1.00
H1154  H     0.30558   0.42776   0.60877   0.00000  Uiso   1.00
H1155  H     0.25582   0.39310   0.95014   0.00000  Uiso   1.00
H1156  H     0.21174   0.36034   0.97986   0.00000  Uiso   1.00
H1157  H     0.21036   0.37267   0.93317   0.00000  Uiso   1.00
H1158  H     0.00806   0.52144   0.99830   0.00000  Uiso   1.00
H1159  H     0.00820   0.54329   0.95351   0.00000  Uiso   1.00
H1160  H     0.31916   0.56932   0.50179   0.00000  Uiso   1.00
H1161  H     0.08359   0.44490   0.58430   0.00000  Uiso   1.00
H1162  H     0.04010   0.46963   0.57725   0.00000  Uiso   1.00
H1163  H     0.04950   0.47392   0.62526   0.00000  Uiso   1.00
H1164  H     0.15837   0.51266   0.59716   0.00000  Uiso   1.00
H1165  H     0.10431   0.41995   0.94251   0.00000  Uiso   1.00
H1166  H     0.12798   0.37606   0.95107   0.00000  Uiso   1.00
H1167  H     0.12925   0.38439   0.90170   0.00000  Uiso   1.00
H1168  H     0.08314   0.56567   0.90674   0.00000  Uiso   1.00
H1169  H     0.18030   0.48947   0.90358   0.00000  Uiso   1.00
H1170  H     0.31185   0.43858   0.53077   0.00000  Uiso   1.00
H1171  H     0.29638   0.44667   0.98710   0.00000  Uiso   1.00
H1172  H     0.32215   0.40190   0.98731   0.00000  Uiso   1.00
H1173  H     0.03441   0.58071   0.75069   0.00000  Uiso   1.00
O1174  O     0.16667   0.50000   0.75000   0.00000  Uiso   1.00
O1175  O     0.15693   0.45726   0.66625   0.00000  Uiso   1.00
O1176  O     0.12687   0.53979   0.83749   0.00000  Uiso   1.00
O1177  O     0.21088   0.50826   0.65877   0.00000  Uiso   1.00
O1178  O     0.17198   0.49468   0.83749   0.00000  Uiso   1.00
O1179  O     0.25895   0.39937   0.52018   0.00000  Uiso   1.00
O1180  O     0.02259   0.53079   0.70957   0.00000  Uiso   1.00
O1181  O     0.24548   0.41755   0.59995   0.00000  Uiso   1.00
O1182  O     0.05173   0.57405   0.98407   0.00000  Uiso   1.00
O1183  O     0.09344   0.50963   0.58564   0.00000  Uiso   1.00
O1184  O     0.17150   0.42484   0.92586   0.00000  Uiso   1.00
O1185  O     0.17849   0.41434   0.77820   0.00000  Uiso   1.00
O1186  O     0.14581   0.59469   0.76767   0.00000  Uiso   1.00
O1187  O     0.07452   0.46584   0.73607   0.00000  Uiso   1.00
O1188  O     0.26785   0.52512   0.71805   0.00000  Uiso   1.00
O1189  O     0.06990   0.52293   0.77820   0.00000  Uiso   1.00
O1190  O     0.25440   0.48610   0.76767   0.00000  Uiso   1.00
O1191  O     0.13800   0.40236   0.73607   0.00000  Uiso   1.00
O1192  O     0.20437   0.58860   0.71805   0.00000  Uiso   1.00
Zn1193 Zn    0.19244   0.47423   0.78277   0.00000  Uiso   1.00
Zn1194 Zn    0.13459   0.45711   0.72257   0.00000  Uiso   1.00
Zn1195 Zn    0.21166   0.52997   0.71188   0.00000  Uiso   1.00
Zn1196 Zn    0.12798   0.53868   0.78277   0.00000  Uiso   1.00
C1197  C     0.38622   0.49347   0.75851   0.00000  Uiso   1.00
C1198  C     0.50889   0.44286   0.96274   0.00000  Uiso   1.00
C1199  C     0.53271   0.42408   0.98169   0.00000  Uiso   1.00
C1200  C     0.61425   0.50691   0.74163   0.00000  Uiso   1.00
C1201  C     0.53463   0.44038   0.52083   0.00000  Uiso   1.00
C1202  C     0.50694   0.47102   0.54222   0.00000  Uiso   1.00
C1203  C     0.56214   0.42627   0.54005   0.00000  Uiso   1.00
C1204  C     0.55829   0.43851   0.58054   0.00000  Uiso   1.00
C1205  C     0.50824   0.48648   0.58116   0.00000  Uiso   1.00
C1206  C     0.65995   0.50984   0.73928   0.00000  Uiso   1.00
C1207  C     0.34094   0.49011   0.76347   0.00000  Uiso   1.00
C1208  C     0.43203   0.54877   0.92186   0.00000  Uiso   1.00
C1209  C     0.51277   0.65539   0.73947   0.00000  Uiso   1.00
C1210  C     0.48355   0.34635   0.76346   0.00000  Uiso   1.00
C1211  C     0.49001   0.38960   0.75834   0.00000  Uiso   1.00
C1212  C     0.50986   0.61095   0.74164   0.00000  Uiso   1.00
C1213  C     0.52152   0.47851   0.64394   0.00000  Uiso   1.00
C1214  C     0.47865   0.52091   0.85641   0.00000  Uiso   1.00
C1215  C     0.46582   0.52570   0.90023   0.00000  Uiso   1.00
C1216  C     0.53078   0.46851   0.60098   0.00000  Uiso   1.00
C1217  C     0.41756   0.54999   0.96329   0.00000  Uiso   1.00
C1218  C     0.63212   0.42312   0.50599   0.00000  Uiso   1.00
C1219  C     0.48546   0.50423   0.92044   0.00000  Uiso   1.00
C1220  C     0.35831   0.57376   0.72241   0.00000  Uiso   1.00
C1221  C     0.64689   0.46518   0.79658   0.00000  Uiso   1.00
C1222  C     0.44392   0.66552   0.79520   0.00000  Uiso   1.00
C1223  C     0.61037   0.44463   0.61393   0.00000  Uiso   1.00
C1224  C     0.55384   0.38563   0.96016   0.00000  Uiso   1.00
C1225  C     0.34534   0.55059   0.98411   0.00000  Uiso   1.00
C1226  C     0.39891   0.47273   0.59294   0.00000  Uiso   1.00
C1227  C     0.46472   0.40043   0.93104   0.00000  Uiso   1.00
C1228  C     0.46996   0.50276   0.96175   0.00000  Uiso   1.00
C1229  C     0.43736   0.52797   0.98345   0.00000  Uiso   1.00
C1230  C     0.48735   0.47806   0.98211   0.00000  Uiso   1.00
C1231  C     0.47989   0.48664   0.52374   0.00000  Uiso   1.00
C1232  C     0.44454   0.50937   0.54510   0.00000  Uiso   1.00
C1233  C     0.42429   0.52989   0.52482   0.00000  Uiso   1.00
H1234  H     0.39796   0.54734   0.54196   0.00000  Uiso   1.00
H1235  H     0.66083   0.58638   0.72579   0.00000  Uiso   1.00
H1236  H     0.38342   0.59018   0.69955   0.00000  Uiso   1.00
H1237  H     0.33371   0.45336   0.81223   0.00000  Uiso   1.00
H1238  H     0.62475   0.48503   0.81913   0.00000  Uiso   1.00
H1239  H     0.62878   0.43758   0.78435   0.00000  Uiso   1.00
H1240  H     0.42522   0.35867   0.81013   0.00000  Uiso   1.00
H1241  H     0.42241   0.64224   0.78179   0.00000  Uiso   1.00
H1242  H     0.45315   0.65251   0.81850   0.00000  Uiso   1.00
H1243  H     0.59836   0.45268   0.64648   0.00000  Uiso   1.00
H1244  H     0.62128   0.47366   0.59896   0.00000  Uiso   1.00
H1245  H     0.53992   0.33571   0.71737   0.00000  Uiso   1.00
H1246  H     0.63891   0.42776   0.60877   0.00000  Uiso   1.00
H1247  H     0.58915   0.39310   0.95014   0.00000  Uiso   1.00
H1248  H     0.54508   0.36034   0.97986   0.00000  Uiso   1.00
H1249  H     0.54370   0.37267   0.93317   0.00000  Uiso   1.00
H1250  H     0.34140   0.52144   0.99830   0.00000  Uiso   1.00
H1251  H     0.34153   0.54329   0.95351   0.00000  Uiso   1.00
H1252  H     0.65249   0.56932   0.50179   0.00000  Uiso   1.00
H1253  H     0.41693   0.44490   0.58430   0.00000  Uiso   1.00
H1254  H     0.37344   0.46963   0.57725   0.00000  Uiso   1.00
H1255  H     0.38284   0.47392   0.62526   0.00000  Uiso   1.00
H1256  H     0.49170   0.51266   0.59716   0.00000  Uiso   1.00
H1257  H     0.43764   0.41995   0.94251   0.00000  Uiso   1.00
H1258  H     0.46131   0.37606   0.95107   0.00000  Uiso   1.00
H1259  H     0.46258   0.38439   0.90170   0.00000  Uiso   1.00
H1260  H     0.41648   0.56567   0.90674   0.00000  Uiso   1.00
H1261  H     0.51363   0.48947   0.90358   0.00000  Uiso   1.00
H1262  H     0.64518   0.43858   0.53077   0.00000  Uiso   1.00
H1263  H     0.62971   0.44667   0.98710   0.00000  Uiso   1.00
H1264  H     0.65548   0.40190   0.98731   0.00000  Uiso   1.00
H1265  H     0.36774   0.58071   0.75069   0.00000  Uiso   1.00
O1266  O     0.50000   0.50000   0.75000   0.00000  Uiso   1.00
O1267  O     0.49027   0.45726   0.66625   0.00000  Uiso   1.00
O1268  O     0.46020   0.53979   0.83749   0.00000  Uiso   1.00
O1269  O     0.54421   0.50826   0.65877   0.00000  Uiso   1.00
O1270  O     0.50532   0.49468   0.83749   0.00000  Uiso   1.00
O1271  O     0.59228   0.39937   0.52018   0.00000  Uiso   1.00
O1272  O     0.35592   0.53079   0.70957   0.00000  Uiso   1.00
O1273  O     0.57882   0.41755   0.59995   0.00000  Uiso   1.00
O1274  O     0.38507   0.57405   0.98407   0.00000  Uiso   1.00
O1275  O     0.42678   0.50963   0.58564   0.00000  Uiso   1.00
O1276  O     0.50483   0.42484   0.92586   0.00000  Uiso   1.00
O1277  O     0.51182   0.41434   0.77820   0.00000  Uiso   1.00
O1278  O     0.47914   0.59469   0.76767   0.00000  Uiso   1.00
O1279  O     0.40785   0.46584   0.73607   0.00000  Uiso   1.00
O1280  O     0.60119   0.52512   0.71805   0.00000  Uiso   1.00
O1281  O     0.40323   0.52293   0.77820   0.00000  Uiso   1.00
O1282  O     0.58773   0.48610   0.76767   0.00000  Uiso   1.00
O1283  O     0.47133   0.40236   0.73607   0.00000  Uiso   1.00
O1284  O     0.53771   0.58860   0.71805   0.00000  Uiso   1.00
Zn1285 Zn    0.52577   0.47423   0.78277   0.00000  Uiso   1.00
Zn1286 Zn    0.46792   0.45711   0.72257   0.00000  Uiso   1.00
Zn1287 Zn    0.54500   0.52997   0.71188   0.00000  Uiso   1.00
Zn1288 Zn    0.46131   0.53868   0.78277   0.00000  Uiso   1.00
C1289  C     0.71955   0.49347   0.75851   0.00000  Uiso   1.00
C1290  C     0.84222   0.44286   0.96274   0.00000  Uiso   1.00
C1291  C     0.86604   0.42408   0.98169   0.00000  Uiso   1.00
C1292  C     0.94758   0.50691   0.74163   0.00000  Uiso   1.00
C1293  C     0.86797   0.44038   0.52083   0.00000  Uiso   1.00
C1294  C     0.84028   0.47102   0.54222   0.00000  Uiso   1.00
C1295  C     0.89547   0.42627   0.54005   0.00000  Uiso   1.00
C1296  C     0.89162   0.43851   0.58054   0.00000  Uiso   1.00
C1297  C     0.84157   0.48648   0.58116   0.00000  Uiso   1.00
C1298  C     0.99329   0.50984   0.73928   0.00000  Uiso   1.00
C1299  C     0.67427   0.49011   0.76347   0.00000  Uiso   1.00
C1300  C     0.76536   0.54877   0.92186   0.00000  Uiso   1.00
C1301  C     0.84610   0.65539   0.73947   0.00000  Uiso   1.00
C1302  C     0.81688   0.34635   0.76346   0.00000  Uiso   1.00
C1303  C     0.82334   0.38960   0.75834   0.00000  Uiso   1.00
C1304  C     0.84319   0.61095   0.74164   0.00000  Uiso   1.00
C1305  C     0.85485   0.47851   0.64394   0.00000  Uiso   1.00
C1306  C     0.81198   0.52091   0.85641   0.00000  Uiso   1.00
C1307  C     0.79916   0.52570   0.90023   0.00000  Uiso   1.00
C1308  C     0.86412   0.46851   0.60098   0.00000  Uiso   1.00
C1309  C     0.75090   0.54999   0.96329   0.00000  Uiso   1.00
C1310  C     0.96545   0.42312   0.50599   0.00000  Uiso   1.00
C1311  C     0.81879   0.50423   0.92044   0.00000  Uiso   1.00
C1312  C     0.69165   0.57376   0.72241   0.00000  Uiso   1.00
C1313  C     0.98022   0.46518   0.79658   0.00000  Uiso   1.00
C1314  C     0.77725   0.66552   0.79520   0.00000  Uiso   1.00
C1315  C     0.94371   0.44463   0.61393   0.00000  Uiso   1.00
C1316  C     0.88717   0.38563   0.96016   0.00000  Uiso   1.00
C1317  C     0.67867   0.55059   0.98411   0.00000  Uiso   1.00
C1318  C     0.73225   0.47273   0.59294   0.00000  Uiso   1.00
C1319  C     0.79805   0.40043   0.93104   0.00000  Uiso   1.00
C1320  C     0.80329   0.50276   0.96175   0.00000  Uiso   1.00
C1321  C     0.77070   0.52797   0.98345   0.00000  Uiso   1.00
C1322  C     0.82068   0.47806   0.98211   0.00000  Uiso   1.00
C1323  C     0.81323   0.48664   0.52374   0.00000  Uiso   1.00
C1324  C     0.77787   0.50937   0.54510   0.00000  Uiso   1.00
C1325  C     0.75762   0.52989   0.52482   0.00000  Uiso   1.00
H1326  H     0.73130   0.54734   0.54196   0.00000  Uiso   1.00
H1327  H     0.99417   0.58638   0.72579   0.00000  Uiso   1.00
H1328  H     0.71675   0.59018   0.69955   0.00000  Uiso   1.00
H1329  H     0.66704   0.45336   0.81223   0.00000  Uiso   1.00
H1330  H     0.95809   0.48503   0.81913   0.00000  Uiso   1.00
H1331  H     0.96211   0.43758   0.78435   0.00000  Uiso   1.00
H1332  H     0.75856   0.35867   0.81013   0.00000  Uiso   1.00
H1333  H     0.75574   0.64224   0.78179   0.00000  Uiso   1.00
H1334  H     0.78648   0.65251   0.81850   0.00000  Uiso   1.00
H1335  H     0.93169   0.45268   0.64648   0.00000  Uiso   1.00
H1336  H     0.95461   0.47366   0.59896   0.00000  Uiso   1.00
H1337  H     0.87326   0.33571   0.71737   0.00000  Uiso   1.00
H1338  H     0.97224   0.42776   0.60877   0.00000  Uiso   1.00
H1339  H     0.92249   0.39310   0.95014   0.00000  Uiso   1.00
H1340  H     0.87841   0.36034   0.97986   0.00000  Uiso   1.00
H1341  H     0.87703   0.37267   0.93317   0.00000  Uiso   1.00
H1342  H     0.67473   0.52144   0.99830   0.00000  Uiso   1.00
H1343  H     0.67486   0.54329   0.95351   0.00000  Uiso   1.00
H1344  H     0.98582   0.56932   0.50179   0.00000  Uiso   1.00
H1345  H     0.75026   0.44490   0.58430   0.00000  Uiso   1.00
H1346  H     0.70677   0.46963   0.57725   0.00000  Uiso   1.00
H1347  H     0.71617   0.47392   0.62526   0.00000  Uiso   1.00
H1348  H     0.82503   0.51266   0.59716   0.00000  Uiso   1.00
H1349  H     0.77097   0.41995   0.94251   0.00000  Uiso   1.00
H1350  H     0.79464   0.37606   0.95107   0.00000  Uiso   1.00
H1351  H     0.79591   0.38439   0.90170   0.00000  Uiso   1.00
H1352  H     0.74981   0.56567   0.90674   0.00000  Uiso   1.00
H1353  H     0.84697   0.48947   0.90358   0.00000  Uiso   1.00
H1354  H     0.97852   0.43858   0.53077   0.00000  Uiso   1.00
H1355  H     0.96305   0.44667   0.98710   0.00000  Uiso   1.00
H1356  H     0.98881   0.40190   0.98731   0.00000  Uiso   1.00
H1357  H     0.70107   0.58071   0.75069   0.00000  Uiso   1.00
O1358  O     0.83333   0.50000   0.75000   0.00000  Uiso   1.00
O1359  O     0.82360   0.45726   0.66625   0.00000  Uiso   1.00
O1360  O     0.79354   0.53979   0.83749   0.00000  Uiso   1.00
O1361  O     0.87755   0.50826   0.65877   0.00000  Uiso   1.00
O1362  O     0.83865   0.49468   0.83749   0.00000  Uiso   1.00
O1363  O     0.92562   0.39937   0.52018   0.00000  Uiso   1.00
O1364  O     0.68925   0.53079   0.70957   0.00000  Uiso   1.00
O1365  O     0.91215   0.41755   0.59995   0.00000  Uiso   1.00
O1366  O     0.71840   0.57405   0.98407   0.00000  Uiso   1.00
O1367  O     0.76011   0.50963   0.58564   0.00000  Uiso   1.00
O1368  O     0.83817   0.42484   0.92586   0.00000  Uiso   1.00
O1369  O     0.84515   0.41434   0.77820   0.00000  Uiso   1.00
O1370  O     0.81247   0.59469   0.76767   0.00000  Uiso   1.00
O1371  O     0.74119   0.46584   0.73607   0.00000  Uiso   1.00
O1372  O     0.93452   0.52512   0.71805   0.00000  Uiso   1.00
O1373  O     0.73656   0.52293   0.77820   0.00000  Uiso   1.00
O1374  O     0.92106   0.48610   0.76767   0.00000  Uiso   1.00
O1375  O     0.80467   0.40236   0.73607   0.00000  Uiso   1.00
O1376  O     0.87104   0.58860   0.71805   0.00000  Uiso   1.00
Zn1377 Zn    0.85910   0.47423   0.78277   0.00000  Uiso   1.00
Zn1378 Zn    0.80125   0.45711   0.72257   0.00000  Uiso   1.00
Zn1379 Zn    0.87833   0.52997   0.71188   0.00000  Uiso   1.00
Zn1380 Zn    0.79465   0.53868   0.78277   0.00000  Uiso   1.00
C1381  C     0.05289   0.82680   0.75851   0.00000  Uiso   1.00
C1382  C     0.17555   0.77619   0.96274   0.00000  Uiso   1.00
C1383  C     0.19937   0.75741   0.98169   0.00000  Uiso   1.00
C1384  C     0.28092   0.84025   0.74163   0.00000  Uiso   1.00
C1385  C     0.20130   0.77371   0.52083   0.00000  Uiso   1.00
C1386  C     0.17361   0.80435   0.54222   0.00000  Uiso   1.00
C1387  C     0.22880   0.75960   0.54005   0.00000  Uiso   1.00
C1388  C     0.22495   0.77184   0.58054   0.00000  Uiso   1.00
C1389  C     0.17491   0.81981   0.58116   0.00000  Uiso   1.00
C1390  C     0.32662   0.84317   0.73928   0.00000  Uiso   1.00
C1391  C     0.00761   0.82344   0.76347   0.00000  Uiso   1.00
C1392  C     0.09870   0.88210   0.92186   0.00000  Uiso   1.00
C1393  C     0.17944   0.98872   0.73947   0.00000  Uiso   1.00
C1394  C     0.15022   0.67969   0.76346   0.00000  Uiso   1.00
C1395  C     0.15668   0.72294   0.75834   0.00000  Uiso   1.00
C1396  C     0.17652   0.94428   0.74164   0.00000  Uiso   1.00
C1397  C     0.18819   0.81184   0.64394   0.00000  Uiso   1.00
C1398  C     0.14531   0.85424   0.85641   0.00000  Uiso   1.00
C1399  C     0.13249   0.85903   0.90023   0.00000  Uiso   1.00
C1400  C     0.19745   0.80185   0.60098   0.00000  Uiso   1.00
C1401  C     0.08423   0.88332   0.96329   0.00000  Uiso   1.00
C1402  C     0.29879   0.75645   0.50599   0.00000  Uiso   1.00
C1403  C     0.15212   0.83756   0.92044   0.00000  Uiso   1.00
C1404  C     0.02498   0.90709   0.72241   0.00000  Uiso   1.00
C1405  C     0.31355   0.79852   0.79658   0.00000  Uiso   1.00
C1406  C     0.11058   0.99885   0.79520   0.00000  Uiso   1.00
C1407  C     0.27704   0.77796   0.61393   0.00000  Uiso   1.00
C1408  C     0.22051   0.71896   0.96016   0.00000  Uiso   1.00
C1409  C     0.01200   0.88392   0.98411   0.00000  Uiso   1.00
C1410  C     0.06558   0.80607   0.59294   0.00000  Uiso   1.00
C1411  C     0.13139   0.73376   0.93104   0.00000  Uiso   1.00
C1412  C     0.13663   0.83609   0.96175   0.00000  Uiso   1.00
C1413  C     0.10403   0.86130   0.98345   0.00000  Uiso   1.00
C1414  C     0.15402   0.81139   0.98211   0.00000  Uiso   1.00
C1415  C     0.14656   0.81997   0.52374   0.00000  Uiso   1.00
C1416  C     0.11121   0.84270   0.54510   0.00000  Uiso   1.00
C1417  C     0.09095   0.86323   0.52482   0.00000  Uiso   1.00
H1418  H     0.06463   0.88067   0.54196   0.00000  Uiso   1.00
H1419  H     0.32750   0.91972   0.72579   0.00000  Uiso   1.00
H1420  H     0.05009   0.92352   0.69955   0.00000  Uiso   1.00
H1421  H     0.00037   0.78669   0.81223   0.00000  Uiso   1.00
H1422  H     0.29142   0.81836   0.81913   0.00000  Uiso   1.00
H1423  H     0.29545   0.77091   0.78435   0.00000  Uiso   1.00
H1424  H     0.09189   0.69200   0.81013   0.00000  Uiso   1.00
H1425  H     0.08907   0.97557   0.78179   0.00000  Uiso   1.00
H1426  H     0.11981   0.98584   0.81850   0.00000  Uiso   1.00
H1427  H     0.26502   0.78602   0.64648   0.00000  Uiso   1.00
H1428  H     0.28794   0.80699   0.59896   0.00000  Uiso   1.00
H1429  H     0.20659   0.66905   0.71737   0.00000  Uiso   1.00
H1430  H     0.30558   0.76109   0.60877   0.00000  Uiso   1.00
H1431  H     0.25582   0.72643   0.95014   0.00000  Uiso   1.00
H1432  H     0.21174   0.69367   0.97986   0.00000  Uiso   1.00
H1433  H     0.21036   0.70600   0.93317   0.00000  Uiso   1.00
H1434  H     0.00806   0.85477   0.99830   0.00000  Uiso   1.00
H1435  H     0.00820   0.87662   0.95351   0.00000  Uiso   1.00
H1436  H     0.31916   0.90265   0.50179   0.00000  Uiso   1.00
H1437  H     0.08359   0.77824   0.58430   0.00000  Uiso   1.00
H1438  H     0.04010   0.80297   0.57725   0.00000  Uiso   1.00
H1439  H     0.04950   0.80725   0.62526   0.00000  Uiso   1.00
H1440  H     0.15837   0.84599   0.59716   0.00000  Uiso   1.00
H1441  H     0.10431   0.75328   0.94251   0.00000  Uiso   1.00
H1442  H     0.12798   0.70939   0.95107   0.00000  Uiso   1.00
H1443  H     0.12925   0.71772   0.90170   0.00000  Uiso   1.00
H1444  H     0.08314   0.89900   0.90674   0.00000  Uiso   1.00
H1445  H     0.18030   0.82280   0.90358   0.00000  Uiso   1.00
H1446  H     0.31185   0.77191   0.53077   0.00000  Uiso   1.00
H1447  H     0.29638   0.78000   0.98710   0.00000  Uiso   1.00
H1448  H     0.32215   0.73523   0.98731   0.00000  Uiso   1.00
H1449  H     0.03441   0.91404   0.75069   0.00000  Uiso   1.00
O1450  O     0.16667   0.83333   0.75000   0.00000  Uiso   1.00
O1451  O     0.15693   0.79060   0.66625   0.00000  Uiso   1.00
O1452  O     0.12687   0.87313   0.83749   0.00000  Uiso   1.00
O1453  O     0.21088   0.84159   0.65877   0.00000  Uiso   1.00
O1454  O     0.17198   0.82802   0.83749   0.00000  Uiso   1.00
O1455  O     0.25895   0.73271   0.52018   0.00000  Uiso   1.00
O1456  O     0.02259   0.86412   0.70957   0.00000  Uiso   1.00
O1457  O     0.24548   0.75088   0.59995   0.00000  Uiso   1.00
O1458  O     0.05173   0.90739   0.98407   0.00000  Uiso   1.00
O1459  O     0.09344   0.84296   0.58564   0.00000  Uiso   1.00
O1460  O     0.17150   0.75818   0.92586   0.00000  Uiso   1.00
O1461  O     0.17849   0.74768   0.77820   0.00000  Uiso   1.00
O1462  O     0.14581   0.92803   0.76767   0.00000  Uiso   1.00
O1463  O     0.07452   0.79917   0.73607   0.00000  Uiso   1.00
O1464  O     0.26785   0.85845   0.71805   0.00000  Uiso   1.00
O1465  O     0.06990   0.85627   0.77820   0.00000  Uiso   1.00
O1466  O     0.25440   0.81944   0.76767   0.00000  Uiso   1.00
O1467  O     0.13800   0.73570   0.73607   0.00000  Uiso   1.00
O1468  O     0.20437   0.92193   0.71805   0.00000  Uiso   1.00
Zn1469 Zn    0.19244   0.80756   0.78277   0.00000  Uiso   1.00
Zn1470 Zn    0.13459   0.79044   0.72257   0.00000  Uiso   1.00
Zn1471 Zn    0.21166   0.86331   0.71188   0.00000  Uiso   1.00
Zn1472 Zn    0.12798   0.87202   0.78277   0.00000  Uiso   1.00
C1473  C     0.38622   0.82680   0.75851   0.00000  Uiso   1.00
C1474  C     0.50889   0.77619   0.96274   0.00000  Uiso   1.00
C1475  C     0.53271   0.75741   0.98169   0.00000  Uiso   1.00
C1476  C     0.61425   0.84025   0.74163   0.00000  Uiso   1.00
C1477  C     0.53463   0.77371   0.52083   0.00000  Uiso   1.00
C1478  C     0.50694   0.80435   0.54222   0.00000  Uiso   1.00
C1479  C     0.56214   0.75960   0.54005   0.00000  Uiso   1.00
C1480  C     0.55829   0.77184   0.58054   0.00000  Uiso   1.00
C1481  C     0.50824   0.81981   0.58116   0.00000  Uiso   1.00
C1482  C     0.65995   0.84317   0.73928   0.00000  Uiso   1.00
C1483  C     0.34094   0.82344   0.76347   0.00000  Uiso   1.00
C1484  C     0.43203   0.88210   0.92186   0.00000  Uiso   1.00
C1485  C     0.51277   0.98872   0.73947   0.00000  Uiso   1.00
C1486  C     0.48355   0.67969   0.76346   0.00000  Uiso   1.00
C1487  C     0.49001   0.72294   0.75834   0.00000  Uiso   1.00
C1488  C     0.50986   0.94428   0.74164   0.00000  Uiso   1.00
C1489  C     0.52152   0.81184   0.64394   0.00000  Uiso   1.00
C1490  C     0.47865   0.85424   0.85641   0.00000  Uiso   1.00
C1491  C     0.46582   0.85903   0.90023   0.00000  Uiso   1.00
C1492  C     0.53078   0.80185   0.60098   0.00000  Uiso   1.00
C1493  C     0.41756   0.88332   0.96329   0.00000  Uiso   1.00
C1494  C     0.63212   0.75645   0.50599   0.00000  Uiso   1.00
C1495  C     0.48546   0.83756   0.92044   0.00000  Uiso   1.00
C1496  C     0.35831   0.90709   0.72241   0.00000  Uiso   1.00
C1497  C     0.64689   0.79852   0.79658   0.00000  Uiso   1.00
C1498  C     0.44392   0.99885   0.79520   0.00000  Uiso   1.00
C1499  C     0.61037   0.77796   0.61393   0.00000  Uiso   1.00
C1500  C     0.55384   0.71896   0.96016   0.00000  Uiso   1.00
C1501  C     0.34534   0.88392   0.98411   0.00000  Uiso   1.00
C1502  C     0.39891   0.80607   0.59294   0.00000  Uiso   1.00
C1503  C     0.46472   0.73376   0.93104   0.00000  Uiso   1.00
C1504  C     0.46996   0.83609   0.96175   0.00000  Uiso   1.00
C1505  C     0.43736   0.86130   0.98345   0.00000  Uiso   1.00
C1506  C     0.48735   0.81139   0.98211   0.00000  Uiso   1.00
C1507  C     0.47989   0.81997   0.52374   0.00000  Uiso   1.00
C1508  C     0.44454   0.84270   0.54510   0.00000  Uiso   1.00
C1509  C     0.42429   0.86323   0.52482   0.00000  Uiso   1.00
H1510  H     0.39796   0.88067   0.54196   0.00000  Uiso   1.00
H1511  H     0.66083   0.91972   0.72579   0.00000  Uiso   1.00
H1512  H     0.38342   0.92352   0.69955   0.00000  Uiso   1.00
H1513  H     0.33371   0.78669   0.81223   0.00000  Uiso   1.00
H1514  H     0.62475   0.81836   0.81913   0.00000  Uiso   1.00
H1515  H     0.62878   0.77091   0.78435   0.00000  Uiso   1.00
H1516  H     0.42522   0.69200   0.81013   0.00000  Uiso   1.00
H1517  H     0.42241   0.97557   0.78179   0.00000  Uiso   1.00
H1518  H     0.45315   0.98584   0.81850   0.00000  Uiso   1.00
H1519  H     0.59836   0.78602   0.64648   0.00000  Uiso   1.00
H1520  H     0.62128   0.80699   0.59896   0.00000  Uiso   1.00
H1521  H     0.53992   0.66905   0.71737   0.00000  Uiso   1.00
H1522  H     0.63891   0.76109   0.60877   0.00000  Uiso   1.00
H1523  H     0.58915   0.72643   0.95014   0.00000  Uiso   1.00
H1524  H     0.54508   0.69367   0.97986   0.00000  Uiso   1.00
H1525  H     0.54370   0.70600   0.93317   0.00000  Uiso   1.00
H1526  H     0.34140   0.85477   0.99830   0.00000  Uiso   1.00
H1527  H     0.34153   0.87662   0.95351   0.00000  Uiso   1.00
H1528  H     0.65249   0.90265   0.50179   0.00000  Uiso   1.00
H1529  H     0.41693   0.77824   0.58430   0.00000  Uiso   1.00
H1530  H     0.37344   0.80297   0.57725   0.00000  Uiso   1.00
H1531  H     0.38284   0.80725   0.62526   0.00000  Uiso   1.00
H1532  H     0.49170   0.84599   0.59716   0.00000  Uiso   1.00
H1533  H     0.43764   0.75328   0.94251   0.00000  Uiso   1.00
H1534  H     0.46131   0.70939   0.95107   0.00000  Uiso   1.00
H1535  H     0.46258   0.71772   0.90170   0.00000  Uiso   1.00
H1536  H     0.41648   0.89900   0.90674   0.00000  Uiso   1.00
H1537  H     0.51363   0.82280   0.90358   0.00000  Uiso   1.00
H1538  H     0.64518   0.77191   0.53077   0.00000  Uiso   1.00
H1539  H     0.62971   0.78000   0.98710   0.00000  Uiso   1.00
H1540  H     0.65548   0.73523   0.98731   0.00000  Uiso   1.00
H1541  H     0.36774   0.91404   0.75069   0.00000  Uiso   1.00
O1542  O     0.50000   0.83333   0.75000   0.00000  Uiso   1.00
O1543  O     0.49027   0.79060   0.66625   0.00000  Uiso   1.00
O1544  O     0.46020   0.87313   0.83749   0.00000  Uiso   1.00
O1545  O     0.54421   0.84159   0.65877   0.00000  Uiso   1.00
O1546  O     0.50532   0.82802   0.83749   0.00000  Uiso   1.00
O1547  O     0.59228   0.73271   0.52018   0.00000  Uiso   1.00
O1548  O     0.35592   0.86412   0.70957   0.00000  Uiso   1.00
O1549  O     0.57882   0.75088   0.59995   0.00000  Uiso   1.00
O1550  O     0.38507   0.90739   0.98407   0.00000  Uiso   1.00
O1551  O     0.42678   0.84296   0.58564   0.00000  Uiso   1.00
O1552  O     0.50483   0.75818   0.92586   0.00000  Uiso   1.00
O1553  O     0.51182   0.74768   0.77820   0.00000  Uiso   1.00
O1554  O     0.47914   0.92803   0.76767   0.00000  Uiso   1.00
O1555  O     0.40785   0.79917   0.73607   0.00000  Uiso   1.00
O1556  O     0.60119   0.85845   0.71805   0.00000  Uiso   1.00
O1557  O     0.40323   0.85627   0.77820   0.00000  Uiso   1.00
O1558  O     0.58773   0.81944   0.76767   0.00000  Uiso   1.00
O1559  O     0.47133   0.73570   0.73607   0.00000  Uiso   1.00
O1560  O     0.53771   0.92193   0.71805   0.00000  Uiso   1.00
Zn1561 Zn    0.52577   0.80756   0.78277   0.00000  Uiso   1.00
Zn1562 Zn    0.46792   0.79044   0.72257   0.00000  Uiso   1.00
Zn1563 Zn    0.54500   0.86331   0.71188   0.00000  Uiso   1.00
Zn1564 Zn    0.46131   0.87202   0.78277   0.00000  Uiso   1.00
C1565  C     0.71955   0.82680   0.75851   0.00000  Uiso   1.00
C1566  C     0.84222   0.77619   0.96274   0.00000  Uiso   1.00
C1567  C     0.86604   0.75741   0.98169   0.00000  Uiso   1.00
C1568  C     0.94758   0.84025   0.74163   0.00000  Uiso   1.00
C1569  C     0.86797   0.77371   0.52083   0.00000  Uiso   1.00
C1570  C     0.84028   0.80435   0.54222   0.00000  Uiso   1.00
C1571  C     0.89547   0.75960   0.54005   0.00000  Uiso   1.00
C1572  C     0.89162   0.77184   0.58054   0.00000  Uiso   1.00
C1573  C     0.84157   0.81981   0.58116   0.00000  Uiso   1.00
C1574  C     0.99329   0.84317   0.73928   0.00000  Uiso   1.00
C1575  C     0.67427   0.82344   0.76347   0.00000  Uiso   1.00
C1576  C     0.76536   0.88210   0.92186   0.00000  Uiso   1.00
C1577  C     0.84610   0.98872   0.73947   0.00000  Uiso   1.00
C1578  C     0.81688   0.67969   0.76346   0.00000  Uiso   1.00
C1579  C     0.82334   0.72294   0.75834   0.00000  Uiso   1.00
C1580  C     0.84319   0.94428   0.74164   0.00000  Uiso   1.00
C1581  C     0.85485   0.81184   0.64394   0.00000  Uiso   1.00
C1582  C     0.81198   0.85424   0.85641   0.00000  Uiso   1.00
C1583  C     0.79916   0.85903   0.90023   0.00000  Uiso   1.00
C1584  C     0.86412   0.80185   0.60098   0.00000  Uiso   1.00
C1585  C     0.75090   0.88332   0.96329   0.00000  Uiso   1.00
C1586  C     0.96545   0.75645   0.50599   0.00000  Uiso   1.00
C1587  C     0.81879   0.83756   0.92044   0.00000  Uiso   1.00
C1588  C     0.69165   0.90709   0.72241   0.00000  Uiso   1.00
C1589  C     0.98022   0.79852   0.79658   0.00000  Uiso   1.00
C1590  C     0.77725   0.99885   0.79520   0.00000  Uiso   1.00
C1591  C     0.94371   0.77796   0.61393   0.00000  Uiso   1.00
C1592  C     0.88717   0.71896   0.96016   0.00000  Uiso   1.00
C1593  C     0.67867   0.88392   0.98411   0.00000  Uiso   1.00
C1594  C     0.73225   0.80607   0.59294   0.00000  Uiso   1.00
C1595  C     0.79805   0.73376   0.93104   0.00000  Uiso   1.00
C1596  C     0.80329   0.83609   0.96175   0.00000  Uiso   1.00
C1597  C     0.77070   0.86130   0.98345   0.00000  Uiso   1.00
C1598  C     0.82068   0.81139   0.98211   0.00000  Uiso   1.00
C1599  C     0.81323   0.81997   0.52374   0.00000  Uiso   1.00
C1600  C     0.77787   0.84270   0.54510   0.00000  Uiso   1.00
C1601  C     0.75762   0.86323   0.52482   0.00000  Uiso   1.00
H1602  H     0.73130   0.88067   0.54196   0.00000  Uiso   1.00
H1603  H     0.99417   0.91972   0.72579   0.00000  Uiso   1.00
H1604  H     0.71675   0.92352   0.69955   0.00000  Uiso   1.00
H1605  H     0.66704   0.78669   0.81223   0.00000  Uiso   1.00
H1606  H     0.95809   0.81836   0.81913   0.00000  Uiso   1.00
H1607  H     0.96211   0.77091   0.78435   0.00000  Uiso   1.00
H1608  H     0.75856   0.69200   0.81013   0.00000  Uiso   1.00
H1609  H     0.75574   0.97557   0.78179   0.00000  Uiso   1.00
H1610  H     0.78648   0.98584   0.81850   0.00000  Uiso   1.00
H1611  H     0.93169   0.78602   0.64648   0.00000  Uiso   1.00
H1612  H     0.95461   0.80699   0.59896   0.00000  Uiso   1.00
H1613  H     0.87326   0.66905   0.71737   0.00000  Uiso   1.00
H1614  H     0.97224   0.76109   0.60877   0.00000  Uiso   1.00
H1615  H     0.92249   0.72643   0.95014   0.00000  Uiso   1.00
H1616  H     0.87841   0.69367   0.97986   0.00000  Uiso   1.00
H1617  H     0.87703   0.70600   0.93317   0.00000  Uiso   1.00
H1618  H     0.67473   0.85477   0.99830   0.00000  Uiso   1.00
H1619  H     0.67486   0.87662   0.95351   0.00000  Uiso   1.00
H1620  H     0.98582   0.90265   0.50179   0.00000  Uiso   1.00
H1621  H     0.75026   0.77824   0.58430   0.00000  Uiso   1.00
H1622  H     0.70677   0.80297   0.57725   0.00000  Uiso   1.00
H1623  H     0.71617   0.80725   0.62526   0.00000  Uiso   1.00
H1624  H     0.82503   0.84599   0.59716   0.00000  Uiso   1.00
H1625  H     0.77097   0.75328   0.94251   0.00000  Uiso   1.00
H1626  H     0.79464   0.70939   0.95107   0.00000  Uiso   1.00
H1627  H     0.79591   0.71772   0.90170   0.00000  Uiso   1.00
H1628  H     0.74981   0.89900   0.90674   0.00000  Uiso   1.00
H1629  H     0.84697   0.82280   0.90358   0.00000  Uiso   1.00
H1630  H     0.97852   0.77191   0.53077   0.00000  Uiso   1.00
H1631  H     0.96305   0.78000   0.98710   0.00000  Uiso   1.00
H1632  H     0.98881   0.73523   0.98731   0.00000  Uiso   1.00
H1633  H     0.70107   0.91404   0.75069   0.00000  Uiso   1.00
O1634  O     0.83333   0.83333   0.75000   0.00000  Uiso   1.00
O1635  O     0.82360   0.79060   0.66625   0.00000  Uiso   1.00
O1636  O     0.79354   0.87313   0.83749   0.00000  Uiso   1.00
O1637  O     0.87755   0.84159   0.65877   0.00000  Uiso   1.00
O1638  O     0.83865   0.82802   0.83749   0.00000  Uiso   1.00
O1639  O     0.92562   0.73271   0.52018   0.00000  Uiso   1.00
O1640  O     0.68925   0.86412   0.70957   0.00000  Uiso   1.00
O1641  O     0.91215   0.75088   0.59995   0.00000  Uiso   1.00
O1642  O     0.71840   0.90739   0.98407   0.00000  Uiso   1.00
O1643  O     0.76011   0.84296   0.58564   0.00000  Uiso   1.00
O1644  O     0.83817   0.75818   0.92586   0.00000  Uiso   1.00
O1645  O     0.84515   0.74768   0.77820   0.00000  Uiso   1.00
O1646  O     0.81247   0.92803   0.76767   0.00000  Uiso   1.00
O1647  O     0.74119   0.79917   0.73607   0.00000  Uiso   1.00
O1648  O     0.93452   0.85845   0.71805   0.00000  Uiso   1.00
O1649  O     0.73656   0.85627   0.77820   0.00000  Uiso   1.00
O1650  O     0.92106   0.81944   0.76767   0.00000  Uiso   1.00
O1651  O     0.80467   0.73570   0.73607   0.00000  Uiso   1.00
O1652  O     0.87104   0.92193   0.71805   0.00000  Uiso   1.00
Zn1653 Zn    0.85910   0.80756   0.78277   0.00000  Uiso   1.00
Zn1654 Zn    0.80125   0.79044   0.72257   0.00000  Uiso   1.00
Zn1655 Zn    0.87833   0.86331   0.71188   0.00000  Uiso   1.00
Zn1656 Zn    0.79465   0.87202   0.78277   0.00000  Uiso   1.00
loop_
_geom_bond_atom_site_label_1
_geom_bond_atom_site_label_2
_geom_bond_distance
_geom_bond_site_symmetry_2
_ccdc_geom_bond_type
C1     C11     1.430   .     S
C1     O85     1.264   .     A
C1     O83     1.264   .     A
C2     C34     1.420   .     A
C2     C3      1.411   .     A
C2     O80     1.386   .     S
C3     C28     1.519   .     S
C3     C833    1.425   .     S
C4     O84     1.286   .     A
C4     C10     1.463   .     S
C4     O86     1.270   .     A
C5     C6      1.429   .     A
C5     C7      1.431   .     A
C5     C831    1.425   1_554 S
C6     C9      1.407   .     A
C6     C35     1.425   .     A
C7     C8      1.404   .     A
C7     O75     1.382   .     S
C8     C20     1.403   .     A
C8     O77     1.388   .     S
C9     C20     1.386   .     A
C9     H60     1.078   .     S
C10    C103    1.358   .     S
C10    O168    1.389   .     S
C11    C194    1.358   1_455 S
C11    C209    1.515   1_455 S
C12    H64     1.083   .     S
C12    C21     1.400   .     A
C12    C19     1.400   .     A
C13    C16     1.453   .     S
C13    C290    1.349   .     S
C13    H325    1.088   .     S
C14    C15     1.429   .     S
C14    C565    1.349   1_545 S
C14    C578    1.514   1_545 S
C15    O81     1.271   .     A
C15    O87     1.270   .     A
C16    O82     1.262   .     A
C16    O88     1.279   .     A
C17    C20     1.458   .     S
C17    O73     1.281   .     A
C17    O71     1.280   .     A
C18    C19     1.475   .     S
C18    O74     1.287   .     A
C18    O72     1.286   .     A
C19    C23     1.398   .     A
C21    C33     1.412   .     A
C21    O78     1.383   .     S
C22    H66     1.110   .     S
C22    O75     1.413   .     S
C22    H895    1.114   1_554 S
C22    H896    1.109   1_554 S
C23    C32     1.407   .     A
C23    H65     1.080   .     S
C24    H69     1.113   .     S
C24    O76     1.411   .     S
C24    H40     1.109   .     S
C24    H223    1.112   1_455 S
C25    H43     1.110   .     S
C25    H42     1.111   .     S
C25    C103    1.515   .     S
C25    H133    1.112   .     S
C26    H45     1.111   .     S
C26    H46     1.110   .     S
C26    C290    1.514   .     S
C26    H320    1.112   .     S
C27    H48     1.116   .     S
C27    H50     1.109   .     S
C27    H47     1.109   .     S
C27    O77     1.414   .     S
C28    H51     1.108   .     S
C28    H53     1.108   .     S
C28    H52     1.110   .     S
C29    H54     1.114   .     S
C29    O78     1.410   .     S
C29    H55     1.113   .     S
C29    H1068   1.109   1_455 S
C30    H57     1.113   .     S
C30    H59     1.109   .     S
C30    O79     1.410   .     S
C30    H58     1.113   .     S
C31    H61     1.112   .     S
C31    H62     1.114   .     S
C31    H63     1.109   .     S
C31    O80     1.412   .     S
C32    C34     1.425   .     A
C32    C33     1.415   .     A
C33    C865    1.395   .     S
C34    C863    1.414   .     S
C35    C36     1.429   .     A
C35    C862    1.414   1_554 S
C36    C37     1.395   .     A
C36    O79     1.382   .     S
C37    H38     1.084   .     S
C37    C861    1.395   1_554 S
H39    C116    1.112   .     S
H41    C209    1.112   1_455 S
H44    C578    1.112   1_545 S
H49    C565    1.088   1_545 S
H56    C949    1.109   1_554 S
H67    C850    1.114   .     S
H68    C850    1.109   .     S
O70    Zn91    1.940   .     S
O70    Zn90    1.944   .     S
O70    Zn92    1.932   .     S
O70    Zn89    1.953   .     S
O71    Zn90    1.914   .     S
O72    Zn92    1.920   .     S
O73    Zn91    1.916   .     S
O74    Zn89    1.910   .     S
O76    C194    1.389   1_455 S
O81    Zn89    1.939   .     S
O82    Zn92    1.942   .     S
O83    Zn90    1.937   .     S
O84    Zn91    1.944   .     S
O85    Zn92    1.942   .     S
O86    Zn89    1.937   .     S
O87    Zn90    1.943   .     S
O88    Zn91    1.938   .     S
C93    C103    1.430   .     S
C93    O177    1.264   .     A
C93    O175    1.264   .     A
C94    C126    1.420   .     A
C94    C95     1.411   .     A
C94    O172    1.386   .     S
C95    C120    1.519   .     S
C95    C925    1.425   .     S
C96    O176    1.286   .     A
C96    C102    1.463   .     S
C96    O178    1.270   .     A
C97    C98     1.429   .     A
C97    C99     1.431   .     A
C97    C923    1.425   1_554 S
C98    C101    1.407   .     A
C98    C127    1.425   .     A
C99    C100    1.404   .     A
C99    O167    1.382   .     S
C100   C112    1.403   .     A
C100   O169    1.388   .     S
C101   C112    1.386   .     A
C101   H152    1.078   .     S
C102   C195    1.358   .     S
C102   O260    1.389   .     S
C104   H156    1.083   .     S
C104   C113    1.400   .     A
C104   C111    1.400   .     A
C105   C108    1.453   .     S
C105   C382    1.349   .     S
C105   H417    1.088   .     S
C106   C107    1.429   .     S
C106   C657    1.349   1_545 S
C106   C670    1.514   1_545 S
C107   O173    1.271   .     A
C107   O179    1.270   .     A
C108   O174    1.262   .     A
C108   O180    1.279   .     A
C109   C112    1.458   .     S
C109   O165    1.281   .     A
C109   O163    1.280   .     A
C110   C111    1.475   .     S
C110   O166    1.287   .     A
C110   O164    1.286   .     A
C111   C115    1.398   .     A
C113   C125    1.412   .     A
C113   O170    1.383   .     S
C114   H158    1.110   .     S
C114   O167    1.413   .     S
C114   H987    1.114   1_554 S
C114   H988    1.109   1_554 S
C115   C124    1.407   .     A
C115   H157    1.080   .     S
C116   H161    1.113   .     S
C116   O168    1.411   .     S
C116   H132    1.109   .     S
C117   H135    1.110   .     S
C117   H134    1.111   .     S
C117   C195    1.515   .     S
C117   H225    1.112   .     S
C118   H137    1.111   .     S
C118   H138    1.110   .     S
C118   C382    1.514   .     S
C118   H412    1.112   .     S
C119   H140    1.116   .     S
C119   H142    1.109   .     S
C119   H139    1.109   .     S
C119   O169    1.414   .     S
C120   H143    1.108   .     S
C120   H145    1.108   .     S
C120   H144    1.110   .     S
C121   H146    1.114   .     S
C121   O170    1.410   .     S
C121   H147    1.113   .     S
C121   H884    1.109   .     S
C122   H149    1.113   .     S
C122   H151    1.109   .     S
C122   O171    1.410   .     S
C122   H150    1.113   .     S
C123   H153    1.112   .     S
C123   H154    1.114   .     S
C123   H155    1.109   .     S
C123   O172    1.412   .     S
C124   C126    1.425   .     A
C124   C125    1.415   .     A
C125   C957    1.395   .     S
C126   C955    1.414   .     S
C127   C128    1.429   .     A
C127   C954    1.414   1_554 S
C128   C129    1.395   .     A
C128   O171    1.382   .     S
C129   H130    1.084   .     S
C129   C953    1.395   1_554 S
H131   C208    1.112   .     S
H136   C670    1.112   1_545 S
H141   C657    1.088   1_545 S
H148   C1041   1.109   1_554 S
H159   C942    1.114   .     S
H160   C942    1.109   .     S
O162   Zn183   1.940   .     S
O162   Zn182   1.944   .     S
O162   Zn184   1.932   .     S
O162   Zn181   1.953   .     S
O163   Zn182   1.914   .     S
O164   Zn184   1.920   .     S
O165   Zn183   1.916   .     S
O166   Zn181   1.910   .     S
O173   Zn181   1.939   .     S
O174   Zn184   1.942   .     S
O175   Zn182   1.937   .     S
O176   Zn183   1.944   .     S
O177   Zn184   1.942   .     S
O178   Zn181   1.937   .     S
O179   Zn182   1.943   .     S
O180   Zn183   1.938   .     S
C185   C195    1.430   .     S
C185   O269    1.264   .     A
C185   O267    1.264   .     A
C186   C218    1.420   .     A
C186   C187    1.411   .     A
C186   O264    1.386   .     S
C187   C212    1.519   .     S
C187   C1017   1.425   .     S
C188   O268    1.286   .     A
C188   C194    1.463   .     S
C188   O270    1.270   .     A
C189   C190    1.429   .     A
C189   C191    1.431   .     A
C189   C1015   1.425   1_554 S
C190   C193    1.407   .     A
C190   C219    1.425   .     A
C191   C192    1.404   .     A
C191   O259    1.382   .     S
C192   C204    1.403   .     A
C192   O261    1.388   .     S
C193   C204    1.386   .     A
C193   H244    1.078   .     S
C194   C11     1.358   1_655 S
C194   O76     1.389   1_655 S
C196   H248    1.083   .     S
C196   C205    1.400   .     A
C196   C203    1.400   .     A
C197   C200    1.453   .     S
C197   C474    1.349   .     S
C197   H509    1.088   .     S
C198   C199    1.429   .     S
C198   C749    1.349   1_545 S
C198   C762    1.514   1_545 S
C199   O265    1.271   .     A
C199   O271    1.270   .     A
C200   O266    1.262   .     A
C200   O272    1.279   .     A
C201   C204    1.458   .     S
C201   O257    1.281   .     A
C201   O255    1.280   .     A
C202   C203    1.475   .     S
C202   O258    1.287   .     A
C202   O256    1.286   .     A
C203   C207    1.398   .     A
C205   C217    1.412   .     A
C205   O262    1.383   .     S
C206   H250    1.110   .     S
C206   O259    1.413   .     S
C206   H1079   1.114   1_554 S
C206   H1080   1.109   1_554 S
C207   C216    1.407   .     A
C207   H249    1.080   .     S
C208   H253    1.113   .     S
C208   O260    1.411   .     S
C208   H224    1.109   .     S
C209   H227    1.110   .     S
C209   H226    1.111   .     S
C209   C11     1.515   1_655 S
C209   H41     1.112   1_655 S
C210   H229    1.111   .     S
C210   H230    1.110   .     S
C210   C474    1.514   .     S
C210   H504    1.112   .     S
C211   H232    1.116   .     S
C211   H234    1.109   .     S
C211   H231    1.109   .     S
C211   O261    1.414   .     S
C212   H235    1.108   .     S
C212   H237    1.108   .     S
C212   H236    1.110   .     S
C213   H238    1.114   .     S
C213   O262    1.410   .     S
C213   H239    1.113   .     S
C213   H976    1.109   .     S
C214   H241    1.113   .     S
C214   H243    1.109   .     S
C214   O263    1.410   .     S
C214   H242    1.113   .     S
C215   H245    1.112   .     S
C215   H246    1.114   .     S
C215   H247    1.109   .     S
C215   O264    1.412   .     S
C216   C218    1.425   .     A
C216   C217    1.415   .     A
C217   C1049   1.395   .     S
C218   C1047   1.414   .     S
C219   C220    1.429   .     A
C219   C1046   1.414   1_554 S
C220   C221    1.395   .     A
C220   O263    1.382   .     S
C221   H222    1.084   .     S
C221   C1045   1.395   1_554 S
H223   C24     1.112   1_655 S
H228   C762    1.112   1_545 S
H233   C749    1.088   1_545 S
H240   C857    1.109   1_654 S
H251   C1034   1.114   .     S
H252   C1034   1.109   .     S
O254   Zn275   1.940   .     S
O254   Zn274   1.944   .     S
O254   Zn276   1.932   .     S
O254   Zn273   1.953   .     S
O255   Zn274   1.914   .     S
O256   Zn276   1.920   .     S
O257   Zn275   1.916   .     S
O258   Zn273   1.910   .     S
O265   Zn273   1.939   .     S
O266   Zn276   1.942   .     S
O267   Zn274   1.937   .     S
O268   Zn275   1.944   .     S
O269   Zn276   1.942   .     S
O270   Zn273   1.937   .     S
O271   Zn274   1.943   .     S
O272   Zn275   1.938   .     S
C277   C287    1.430   .     S
C277   O361    1.264   .     A
C277   O359    1.264   .     A
C278   C310    1.420   .     A
C278   C279    1.411   .     A
C278   O356    1.386   .     S
C279   C304    1.519   .     S
C279   C1109   1.425   .     S
C280   O360    1.286   .     A
C280   C286    1.463   .     S
C280   O362    1.270   .     A
C281   C282    1.429   .     A
C281   C283    1.431   .     A
C281   C1107   1.425   1_554 S
C282   C285    1.407   .     A
C282   C311    1.425   .     A
C283   C284    1.404   .     A
C283   O351    1.382   .     S
C284   C296    1.403   .     A
C284   O353    1.388   .     S
C285   C296    1.386   .     A
C285   H336    1.078   .     S
C286   C379    1.358   .     S
C286   O444    1.389   .     S
C287   C470    1.358   1_455 S
C287   C485    1.515   1_455 S
C288   H340    1.083   .     S
C288   C297    1.400   .     A
C288   C295    1.400   .     A
C289   C292    1.453   .     S
C289   C566    1.349   .     S
C289   H601    1.088   .     S
C290   C291    1.429   .     S
C291   O357    1.271   .     A
C291   O363    1.270   .     A
C292   O358    1.262   .     A
C292   O364    1.279   .     A
C293   C296    1.458   .     S
C293   O349    1.281   .     A
C293   O347    1.280   .     A
C294   C295    1.475   .     S
C294   O350    1.287   .     A
C294   O348    1.286   .     A
C295   C299    1.398   .     A
C297   C309    1.412   .     A
C297   O354    1.383   .     S
C298   H342    1.110   .     S
C298   O351    1.413   .     S
C298   H1171   1.114   1_554 S
C298   H1172   1.109   1_554 S
C299   C308    1.407   .     A
C299   H341    1.080   .     S
C300   H345    1.113   .     S
C300   O352    1.411   .     S
C300   H316    1.109   .     S
C300   H499    1.112   1_455 S
C301   H319    1.110   .     S
C301   H318    1.111   .     S
C301   C379    1.515   .     S
C301   H409    1.112   .     S
C302   H321    1.111   .     S
C302   H322    1.110   .     S
C302   C566    1.514   .     S
C302   H596    1.112   .     S
C303   H324    1.116   .     S
C303   H326    1.109   .     S
C303   H323    1.109   .     S
C303   O353    1.414   .     S
C304   H327    1.108   .     S
C304   H329    1.108   .     S
C304   H328    1.110   .     S
C305   H330    1.114   .     S
C305   O354    1.410   .     S
C305   H331    1.113   .     S
C305   H1344   1.109   1_455 S
C306   H333    1.113   .     S
C306   H335    1.109   .     S
C306   O355    1.410   .     S
C306   H334    1.113   .     S
C307   H337    1.112   .     S
C307   H338    1.114   .     S
C307   H339    1.109   .     S
C307   O356    1.412   .     S
C308   C310    1.425   .     A
C308   C309    1.415   .     A
C309   C1141   1.395   .     S
C310   C1139   1.414   .     S
C311   C312    1.429   .     A
C311   C1138   1.414   1_554 S
C312   C313    1.395   .     A
C312   O355    1.382   .     S
C313   H314    1.084   .     S
C313   C1137   1.395   1_554 S
H315   C392    1.112   .     S
H317   C485    1.112   1_455 S
H332   C1225   1.109   1_554 S
H343   C1126   1.114   .     S
H344   C1126   1.109   .     S
O346   Zn367   1.940   .     S
O346   Zn366   1.944   .     S
O346   Zn368   1.932   .     S
O346   Zn365   1.953   .     S
O347   Zn366   1.914   .     S
O348   Zn368   1.920   .     S
O349   Zn367   1.916   .     S
O350   Zn365   1.910   .     S
O352   C470    1.389   1_455 S
O357   Zn365   1.939   .     S
O358   Zn368   1.942   .     S
O359   Zn366   1.937   .     S
O360   Zn367   1.944   .     S
O361   Zn368   1.942   .     S
O362   Zn365   1.937   .     S
O363   Zn366   1.943   .     S
O364   Zn367   1.938   .     S
C369   C379    1.430   .     S
C369   O453    1.264   .     A
C369   O451    1.264   .     A
C370   C402    1.420   .     A
C370   C371    1.411   .     A
C370   O448    1.386   .     S
C371   C396    1.519   .     S
C371   C1201   1.425   .     S
C372   O452    1.286   .     A
C372   C378    1.463   .     S
C372   O454    1.270   .     A
C373   C374    1.429   .     A
C373   C375    1.431   .     A
C373   C1199   1.425   1_554 S
C374   C377    1.407   .     A
C374   C403    1.425   .     A
C375   C376    1.404   .     A
C375   O443    1.382   .     S
C376   C388    1.403   .     A
C376   O445    1.388   .     S
C377   C388    1.386   .     A
C377   H428    1.078   .     S
C378   C471    1.358   .     S
C378   O536    1.389   .     S
C380   H432    1.083   .     S
C380   C389    1.400   .     A
C380   C387    1.400   .     A
C381   C384    1.453   .     S
C381   C658    1.349   .     S
C381   H693    1.088   .     S
C382   C383    1.429   .     S
C383   O449    1.271   .     A
C383   O455    1.270   .     A
C384   O450    1.262   .     A
C384   O456    1.279   .     A
C385   C388    1.458   .     S
C385   O441    1.281   .     A
C385   O439    1.280   .     A
C386   C387    1.475   .     S
C386   O442    1.287   .     A
C386   O440    1.286   .     A
C387   C391    1.398   .     A
C389   C401    1.412   .     A
C389   O446    1.383   .     S
C390   H434    1.110   .     S
C390   O443    1.413   .     S
C390   H1263   1.114   1_554 S
C390   H1264   1.109   1_554 S
C391   C400    1.407   .     A
C391   H433    1.080   .     S
C392   H437    1.113   .     S
C392   O444    1.411   .     S
C392   H408    1.109   .     S
C393   H411    1.110   .     S
C393   H410    1.111   .     S
C393   C471    1.515   .     S
C393   H501    1.112   .     S
C394   H413    1.111   .     S
C394   H414    1.110   .     S
C394   C658    1.514   .     S
C394   H688    1.112   .     S
C395   H416    1.116   .     S
C395   H418    1.109   .     S
C395   H415    1.109   .     S
C395   O445    1.414   .     S
C396   H419    1.108   .     S
C396   H421    1.108   .     S
C396   H420    1.110   .     S
C397   H422    1.114   .     S
C397   O446    1.410   .     S
C397   H423    1.113   .     S
C397   H1160   1.109   .     S
C398   H425    1.113   .     S
C398   H427    1.109   .     S
C398   O447    1.410   .     S
C398   H426    1.113   .     S
C399   H429    1.112   .     S
C399   H430    1.114   .     S
C399   H431    1.109   .     S
C399   O448    1.412   .     S
C400   C402    1.425   .     A
C400   C401    1.415   .     A
C401   C1233   1.395   .     S
C402   C1231   1.414   .     S
C403   C404    1.429   .     A
C403   C1230   1.414   1_554 S
C404   C405    1.395   .     A
C404   O447    1.382   .     S
C405   H406    1.084   .     S
C405   C1229   1.395   1_554 S
H407   C484    1.112   .     S
H424   C1317   1.109   1_554 S
H435   C1218   1.114   .     S
H436   C1218   1.109   .     S
O438   Zn459   1.940   .     S
O438   Zn458   1.944   .     S
O438   Zn460   1.932   .     S
O438   Zn457   1.953   .     S
O439   Zn458   1.914   .     S
O440   Zn460   1.920   .     S
O441   Zn459   1.916   .     S
O442   Zn457   1.910   .     S
O449   Zn457   1.939   .     S
O450   Zn460   1.942   .     S
O451   Zn458   1.937   .     S
O452   Zn459   1.944   .     S
O453   Zn460   1.942   .     S
O454   Zn457   1.937   .     S
O455   Zn458   1.943   .     S
O456   Zn459   1.938   .     S
C461   C471    1.430   .     S
C461   O545    1.264   .     A
C461   O543    1.264   .     A
C462   C494    1.420   .     A
C462   C463    1.411   .     A
C462   O540    1.386   .     S
C463   C488    1.519   .     S
C463   C1293   1.425   .     S
C464   O544    1.286   .     A
C464   C470    1.463   .     S
C464   O546    1.270   .     A
C465   C466    1.429   .     A
C465   C467    1.431   .     A
C465   C1291   1.425   1_554 S
C466   C469    1.407   .     A
C466   C495    1.425   .     A
C467   C468    1.404   .     A
C467   O535    1.382   .     S
C468   C480    1.403   .     A
C468   O537    1.388   .     S
C469   C480    1.386   .     A
C469   H520    1.078   .     S
C470   C287    1.358   1_655 S
C470   O352    1.389   1_655 S
C472   H524    1.083   .     S
C472   C481    1.400   .     A
C472   C479    1.400   .     A
C473   C476    1.453   .     S
C473   C750    1.349   .     S
C473   H785    1.088   .     S
C474   C475    1.429   .     S
C475   O541    1.271   .     A
C475   O547    1.270   .     A
C476   O542    1.262   .     A
C476   O548    1.279   .     A
C477   C480    1.458   .     S
C477   O533    1.281   .     A
C477   O531    1.280   .     A
C478   C479    1.475   .     S
C478   O534    1.287   .     A
C478   O532    1.286   .     A
C479   C483    1.398   .     A
C481   C493    1.412   .     A
C481   O538    1.383   .     S
C482   H526    1.110   .     S
C482   O535    1.413   .     S
C482   H1355   1.114   1_554 S
C482   H1356   1.109   1_554 S
C483   C492    1.407   .     A
C483   H525    1.080   .     S
C484   H529    1.113   .     S
C484   O536    1.411   .     S
C484   H500    1.109   .     S
C485   H503    1.110   .     S
C485   H502    1.111   .     S
C485   C287    1.515   1_655 S
C485   H317    1.112   1_655 S
C486   H505    1.111   .     S
C486   H506    1.110   .     S
C486   C750    1.514   .     S
C486   H780    1.112   .     S
C487   H508    1.116   .     S
C487   H510    1.109   .     S
C487   H507    1.109   .     S
C487   O537    1.414   .     S
C488   H511    1.108   .     S
C488   H513    1.108   .     S
C488   H512    1.110   .     S
C489   H514    1.114   .     S
C489   O538    1.410   .     S
C489   H515    1.113   .     S
C489   H1252   1.109   .     S
C490   H517    1.113   .     S
C490   H519    1.109   .     S
C490   O539    1.410   .     S
C490   H518    1.113   .     S
C491   H521    1.112   .     S
C491   H522    1.114   .     S
C491   H523    1.109   .     S
C491   O540    1.412   .     S
C492   C494    1.425   .     A
C492   C493    1.415   .     A
C493   C1325   1.395   .     S
C494   C1323   1.414   .     S
C495   C496    1.429   .     A
C495   C1322   1.414   1_554 S
C496   C497    1.395   .     A
C496   O539    1.382   .     S
C497   H498    1.084   .     S
C497   C1321   1.395   1_554 S
H499   C300    1.112   1_655 S
H516   C1133   1.109   1_654 S
H527   C1310   1.114   .     S
H528   C1310   1.109   .     S
O530   Zn551   1.940   .     S
O530   Zn550   1.944   .     S
O530   Zn552   1.932   .     S
O530   Zn549   1.953   .     S
O531   Zn550   1.914   .     S
O532   Zn552   1.920   .     S
O533   Zn551   1.916   .     S
O534   Zn549   1.910   .     S
O541   Zn549   1.939   .     S
O542   Zn552   1.942   .     S
O543   Zn550   1.937   .     S
O544   Zn551   1.944   .     S
O545   Zn552   1.942   .     S
O546   Zn549   1.937   .     S
O547   Zn550   1.943   .     S
O548   Zn551   1.938   .     S
C553   C563    1.430   .     S
C553   O637    1.264   .     A
C553   O635    1.264   .     A
C554   C586    1.420   .     A
C554   C555    1.411   .     A
C554   O632    1.386   .     S
C555   C580    1.519   .     S
C555   C1385   1.425   .     S
C556   O636    1.286   .     A
C556   C562    1.463   .     S
C556   O638    1.270   .     A
C557   C558    1.429   .     A
C557   C559    1.431   .     A
C557   C1383   1.425   1_554 S
C558   C561    1.407   .     A
C558   C587    1.425   .     A
C559   C560    1.404   .     A
C559   O627    1.382   .     S
C560   C572    1.403   .     A
C560   O629    1.388   .     S
C561   C572    1.386   .     A
C561   H612    1.078   .     S
C562   C655    1.358   .     S
C562   O720    1.389   .     S
C563   C746    1.358   1_455 S
C563   C761    1.515   1_455 S
C564   H616    1.083   .     S
C564   C573    1.400   .     A
C564   C571    1.400   .     A
C565   C568    1.453   .     S
C565   C14     1.349   1_565 S
C565   H49     1.088   1_565 S
C566   C567    1.429   .     S
C567   O633    1.271   .     A
C567   O639    1.270   .     A
C568   O634    1.262   .     A
C568   O640    1.279   .     A
C569   C572    1.458   .     S
C569   O625    1.281   .     A
C569   O623    1.280   .     A
C570   C571    1.475   .     S
C570   O626    1.287   .     A
C570   O624    1.286   .     A
C571   C575    1.398   .     A
C573   C585    1.412   .     A
C573   O630    1.383   .     S
C574   H618    1.110   .     S
C574   O627    1.413   .     S
C574   H1447   1.114   1_554 S
C574   H1448   1.109   1_554 S
C575   C584    1.407   .     A
C575   H617    1.080   .     S
C576   H621    1.113   .     S
C576   O628    1.411   .     S
C576   H592    1.109   .     S
C576   H775    1.112   1_455 S
C577   H595    1.110   .     S
C577   H594    1.111   .     S
C577   C655    1.515   .     S
C577   H685    1.112   .     S
C578   H597    1.111   .     S
C578   H598    1.110   .     S
C578   C14     1.514   1_565 S
C578   H44     1.112   1_565 S
C579   H600    1.116   .     S
C579   H602    1.109   .     S
C579   H599    1.109   .     S
C579   O629    1.414   .     S
C580   H603    1.108   .     S
C580   H605    1.108   .     S
C580   H604    1.110   .     S
C581   H606    1.114   .     S
C581   O630    1.410   .     S
C581   H607    1.113   .     S
C581   H1620   1.109   1_455 S
C582   H609    1.113   .     S
C582   H611    1.109   .     S
C582   O631    1.410   .     S
C582   H610    1.113   .     S
C583   H613    1.112   .     S
C583   H614    1.114   .     S
C583   H615    1.109   .     S
C583   O632    1.412   .     S
C584   C586    1.425   .     A
C584   C585    1.415   .     A
C585   C1417   1.395   .     S
C586   C1415   1.414   .     S
C587   C588    1.429   .     A
C587   C1414   1.414   1_554 S
C588   C589    1.395   .     A
C588   O631    1.382   .     S
C589   H590    1.084   .     S
C589   C1413   1.395   1_554 S
H591   C668    1.112   .     S
H593   C761    1.112   1_455 S
H608   C1501   1.109   1_554 S
H619   C1402   1.114   .     S
H620   C1402   1.109   .     S
O622   Zn643   1.940   .     S
O622   Zn642   1.944   .     S
O622   Zn644   1.932   .     S
O622   Zn641   1.953   .     S
O623   Zn642   1.914   .     S
O624   Zn644   1.920   .     S
O625   Zn643   1.916   .     S
O626   Zn641   1.910   .     S
O628   C746    1.389   1_455 S
O633   Zn641   1.939   .     S
O634   Zn644   1.942   .     S
O635   Zn642   1.937   .     S
O636   Zn643   1.944   .     S
O637   Zn644   1.942   .     S
O638   Zn641   1.937   .     S
O639   Zn642   1.943   .     S
O640   Zn643   1.938   .     S
C645   C655    1.430   .     S
C645   O729    1.264   .     A
C645   O727    1.264   .     A
C646   C678    1.420   .     A
C646   C647    1.411   .     A
C646   O724    1.386   .     S
C647   C672    1.519   .     S
C647   C1477   1.425   .     S
C648   O728    1.286   .     A
C648   C654    1.463   .     S
C648   O730    1.270   .     A
C649   C650    1.429   .     A
C649   C651    1.431   .     A
C649   C1475   1.425   1_554 S
C650   C653    1.407   .     A
C650   C679    1.425   .     A
C651   C652    1.404   .     A
C651   O719    1.382   .     S
C652   C664    1.403   .     A
C652   O721    1.388   .     S
C653   C664    1.386   .     A
C653   H704    1.078   .     S
C654   C747    1.358   .     S
C654   O812    1.389   .     S
C656   H708    1.083   .     S
C656   C665    1.400   .     A
C656   C663    1.400   .     A
C657   C660    1.453   .     S
C657   C106    1.349   1_565 S
C657   H141    1.088   1_565 S
C658   C659    1.429   .     S
C659   O725    1.271   .     A
C659   O731    1.270   .     A
C660   O726    1.262   .     A
C660   O732    1.279   .     A
C661   C664    1.458   .     S
C661   O717    1.281   .     A
C661   O715    1.280   .     A
C662   C663    1.475   .     S
C662   O718    1.287   .     A
C662   O716    1.286   .     A
C663   C667    1.398   .     A
C665   C677    1.412   .     A
C665   O722    1.383   .     S
C666   H710    1.110   .     S
C666   O719    1.413   .     S
C666   H1539   1.114   1_554 S
C666   H1540   1.109   1_554 S
C667   C676    1.407   .     A
C667   H709    1.080   .     S
C668   H713    1.113   .     S
C668   O720    1.411   .     S
C668   H684    1.109   .     S
C669   H687    1.110   .     S
C669   H686    1.111   .     S
C669   C747    1.515   .     S
C669   H777    1.112   .     S
C670   H689    1.111   .     S
C670   H690    1.110   .     S
C670   C106    1.514   1_565 S
C670   H136    1.112   1_565 S
C671   H692    1.116   .     S
C671   H694    1.109   .     S
C671   H691    1.109   .     S
C671   O721    1.414   .     S
C672   H695    1.108   .     S
C672   H697    1.108   .     S
C672   H696    1.110   .     S
C673   H698    1.114   .     S
C673   O722    1.410   .     S
C673   H699    1.113   .     S
C673   H1436   1.109   .     S
C674   H701    1.113   .     S
C674   H703    1.109   .     S
C674   O723    1.410   .     S
C674   H702    1.113   .     S
C675   H705    1.112   .     S
C675   H706    1.114   .     S
C675   H707    1.109   .     S
C675   O724    1.412   .     S
C676   C678    1.425   .     A
C676   C677    1.415   .     A
C677   C1509   1.395   .     S
C678   C1507   1.414   .     S
C679   C680    1.429   .     A
C679   C1506   1.414   1_554 S
C680   C681    1.395   .     A
C680   O723    1.382   .     S
C681   H682    1.084   .     S
C681   C1505   1.395   1_554 S
H683   C760    1.112   .     S
H700   C1593   1.109   1_554 S
H711   C1494   1.114   .     S
H712   C1494   1.109   .     S
O714   Zn735   1.940   .     S
O714   Zn734   1.944   .     S
O714   Zn736   1.932   .     S
O714   Zn733   1.953   .     S
O715   Zn734   1.914   .     S
O716   Zn736   1.920   .     S
O717   Zn735   1.916   .     S
O718   Zn733   1.910   .     S
O725   Zn733   1.939   .     S
O726   Zn736   1.942   .     S
O727   Zn734   1.937   .     S
O728   Zn735   1.944   .     S
O729   Zn736   1.942   .     S
O730   Zn733   1.937   .     S
O731   Zn734   1.943   .     S
O732   Zn735   1.938   .     S
C737   C747    1.430   .     S
C737   O821    1.264   .     A
C737   O819    1.264   .     A
C738   C770    1.420   .     A
C738   C739    1.411   .     A
C738   O816    1.386   .     S
C739   C764    1.519   .     S
C739   C1569   1.425   .     S
C740   O820    1.286   .     A
C740   C746    1.463   .     S
C740   O822    1.270   .     A
C741   C742    1.429   .     A
C741   C743    1.431   .     A
C741   C1567   1.425   1_554 S
C742   C745    1.407   .     A
C742   C771    1.425   .     A
C743   C744    1.404   .     A
C743   O811    1.382   .     S
C744   C756    1.403   .     A
C744   O813    1.388   .     S
C745   C756    1.386   .     A
C745   H796    1.078   .     S
C746   C563    1.358   1_655 S
C746   O628    1.389   1_655 S
C748   H800    1.083   .     S
C748   C757    1.400   .     A
C748   C755    1.400   .     A
C749   C752    1.453   .     S
C749   C198    1.349   1_565 S
C749   H233    1.088   1_565 S
C750   C751    1.429   .     S
C751   O817    1.271   .     A
C751   O823    1.270   .     A
C752   O818    1.262   .     A
C752   O824    1.279   .     A
C753   C756    1.458   .     S
C753   O809    1.281   .     A
C753   O807    1.280   .     A
C754   C755    1.475   .     S
C754   O810    1.287   .     A
C754   O808    1.286   .     A
C755   C759    1.398   .     A
C757   C769    1.412   .     A
C757   O814    1.383   .     S
C758   H802    1.110   .     S
C758   O811    1.413   .     S
C758   H1631   1.114   1_554 S
C758   H1632   1.109   1_554 S
C759   C768    1.407   .     A
C759   H801    1.080   .     S
C760   H805    1.113   .     S
C760   O812    1.411   .     S
C760   H776    1.109   .     S
C761   H779    1.110   .     S
C761   H778    1.111   .     S
C761   C563    1.515   1_655 S
C761   H593    1.112   1_655 S
C762   H781    1.111   .     S
C762   H782    1.110   .     S
C762   C198    1.514   1_565 S
C762   H228    1.112   1_565 S
C763   H784    1.116   .     S
C763   H786    1.109   .     S
C763   H783    1.109   .     S
C763   O813    1.414   .     S
C764   H787    1.108   .     S
C764   H789    1.108   .     S
C764   H788    1.110   .     S
C765   H790    1.114   .     S
C765   O814    1.410   .     S
C765   H791    1.113   .     S
C765   H1528   1.109   .     S
C766   H793    1.113   .     S
C766   H795    1.109   .     S
C766   O815    1.410   .     S
C766   H794    1.113   .     S
C767   H797    1.112   .     S
C767   H798    1.114   .     S
C767   H799    1.109   .     S
C767   O816    1.412   .     S
C768   C770    1.425   .     A
C768   C769    1.415   .     A
C769   C1601   1.395   .     S
C770   C1599   1.414   .     S
C771   C772    1.429   .     A
C771   C1598   1.414   1_554 S
C772   C773    1.395   .     A
C772   O815    1.382   .     S
C773   H774    1.084   .     S
C773   C1597   1.395   1_554 S
H775   C576    1.112   1_655 S
H792   C1409   1.109   1_654 S
H803   C1586   1.114   .     S
H804   C1586   1.109   .     S
O806   Zn827   1.940   .     S
O806   Zn826   1.944   .     S
O806   Zn828   1.932   .     S
O806   Zn825   1.953   .     S
O807   Zn826   1.914   .     S
O808   Zn828   1.920   .     S
O809   Zn827   1.916   .     S
O810   Zn825   1.910   .     S
O817   Zn825   1.939   .     S
O818   Zn828   1.942   .     S
O819   Zn826   1.937   .     S
O820   Zn827   1.944   .     S
O821   Zn828   1.942   .     S
O822   Zn825   1.937   .     S
O823   Zn826   1.943   .     S
O824   Zn827   1.938   .     S
C829   C839    1.430   .     S
C829   O913    1.264   .     A
C829   O911    1.264   .     A
C830   C862    1.420   .     A
C830   C831    1.411   .     A
C830   O908    1.386   .     S
C831   C856    1.519   .     S
C831   C5      1.425   1_556 S
C832   O912    1.286   .     A
C832   C838    1.463   .     S
C832   O914    1.270   .     A
C833   C834    1.429   .     A
C833   C835    1.431   .     A
C834   C837    1.407   .     A
C834   C863    1.425   .     A
C835   C836    1.404   .     A
C835   O903    1.382   .     S
C836   C848    1.403   .     A
C836   O905    1.388   .     S
C837   C848    1.386   .     A
C837   H888    1.078   .     S
C838   C931    1.358   .     S
C838   O996    1.389   .     S
C839   C1022   1.358   1_455 S
C839   C1037   1.515   1_455 S
C840   H892    1.083   .     S
C840   C849    1.400   .     A
C840   C847    1.400   .     A
C841   C844    1.453   .     S
C841   C1118   1.349   .     S
C841   H1153   1.088   .     S
C842   C843    1.429   .     S
C842   C1393   1.349   1_545 S
C842   C1406   1.514   1_545 S
C843   O909    1.271   .     A
C843   O915    1.270   .     A
C844   O910    1.262   .     A
C844   O916    1.279   .     A
C845   C848    1.458   .     S
C845   O901    1.281   .     A
C845   O899    1.280   .     A
C846   C847    1.475   .     S
C846   O902    1.287   .     A
C846   O900    1.286   .     A
C847   C851    1.398   .     A
C849   C861    1.412   .     A
C849   O906    1.383   .     S
C850   H894    1.110   .     S
C850   O903    1.413   .     S
C851   C860    1.407   .     A
C851   H893    1.080   .     S
C852   H897    1.113   .     S
C852   O904    1.411   .     S
C852   H868    1.109   .     S
C852   H1051   1.112   1_455 S
C853   H871    1.110   .     S
C853   H870    1.111   .     S
C853   C931    1.515   .     S
C853   H961    1.112   .     S
C854   H873    1.111   .     S
C854   H874    1.110   .     S
C854   C1118   1.514   .     S
C854   H1148   1.112   .     S
C855   H876    1.116   .     S
C855   H878    1.109   .     S
C855   H875    1.109   .     S
C855   O905    1.414   .     S
C856   H879    1.108   .     S
C856   H881    1.108   .     S
C856   H880    1.110   .     S
C857   H882    1.114   .     S
C857   O906    1.410   .     S
C857   H883    1.113   .     S
C857   H240    1.109   1_456 S
C858   H885    1.113   .     S
C858   H887    1.109   .     S
C858   O907    1.410   .     S
C858   H886    1.113   .     S
C859   H889    1.112   .     S
C859   H890    1.114   .     S
C859   H891    1.109   .     S
C859   O908    1.412   .     S
C860   C862    1.425   .     A
C860   C861    1.415   .     A
C861   C37     1.395   1_556 S
C862   C35     1.414   1_556 S
C863   C864    1.429   .     A
C864   C865    1.395   .     A
C864   O907    1.382   .     S
C865   H866    1.084   .     S
H867   C944    1.112   .     S
H869   C1037   1.112   1_455 S
H872   C1406   1.112   1_545 S
H877   C1393   1.088   1_545 S
H895   C22     1.114   1_556 S
H896   C22     1.109   1_556 S
O898   Zn919   1.940   .     S
O898   Zn918   1.944   .     S
O898   Zn920   1.932   .     S
O898   Zn917   1.953   .     S
O899   Zn918   1.914   .     S
O900   Zn920   1.920   .     S
O901   Zn919   1.916   .     S
O902   Zn917   1.910   .     S
O904   C1022   1.389   1_455 S
O909   Zn917   1.939   .     S
O910   Zn920   1.942   .     S
O911   Zn918   1.937   .     S
O912   Zn919   1.944   .     S
O913   Zn920   1.942   .     S
O914   Zn917   1.937   .     S
O915   Zn918   1.943   .     S
O916   Zn919   1.938   .     S
C921   C931    1.430   .     S
C921   O1005   1.264   .     A
C921   O1003   1.264   .     A
C922   C954    1.420   .     A
C922   C923    1.411   .     A
C922   O1000   1.386   .     S
C923   C948    1.519   .     S
C923   C97     1.425   1_556 S
C924   O1004   1.286   .     A
C924   C930    1.463   .     S
C924   O1006   1.270   .     A
C925   C926    1.429   .     A
C925   C927    1.431   .     A
C926   C929    1.407   .     A
C926   C955    1.425   .     A
C927   C928    1.404   .     A
C927   O995    1.382   .     S
C928   C940    1.403   .     A
C928   O997    1.388   .     S
C929   C940    1.386   .     A
C929   H980    1.078   .     S
C930   C1023   1.358   .     S
C930   O1088   1.389   .     S
C932   H984    1.083   .     S
C932   C941    1.400   .     A
C932   C939    1.400   .     A
C933   C936    1.453   .     S
C933   C1210   1.349   .     S
C933   H1245   1.088   .     S
C934   C935    1.429   .     S
C934   C1485   1.349   1_545 S
C934   C1498   1.514   1_545 S
C935   O1001   1.271   .     A
C935   O1007   1.270   .     A
C936   O1002   1.262   .     A
C936   O1008   1.279   .     A
C937   C940    1.458   .     S
C937   O993    1.281   .     A
C937   O991    1.280   .     A
C938   C939    1.475   .     S
C938   O994    1.287   .     A
C938   O992    1.286   .     A
C939   C943    1.398   .     A
C941   C953    1.412   .     A
C941   O998    1.383   .     S
C942   H986    1.110   .     S
C942   O995    1.413   .     S
C943   C952    1.407   .     A
C943   H985    1.080   .     S
C944   H989    1.113   .     S
C944   O996    1.411   .     S
C944   H960    1.109   .     S
C945   H963    1.110   .     S
C945   H962    1.111   .     S
C945   C1023   1.515   .     S
C945   H1053   1.112   .     S
C946   H965    1.111   .     S
C946   H966    1.110   .     S
C946   C1210   1.514   .     S
C946   H1240   1.112   .     S
C947   H968    1.116   .     S
C947   H970    1.109   .     S
C947   H967    1.109   .     S
C947   O997    1.414   .     S
C948   H971    1.108   .     S
C948   H973    1.108   .     S
C948   H972    1.110   .     S
C949   H974    1.114   .     S
C949   O998    1.410   .     S
C949   H975    1.113   .     S
C949   H56     1.109   1_556 S
C950   H977    1.113   .     S
C950   H979    1.109   .     S
C950   O999    1.410   .     S
C950   H978    1.113   .     S
C951   H981    1.112   .     S
C951   H982    1.114   .     S
C951   H983    1.109   .     S
C951   O1000   1.412   .     S
C952   C954    1.425   .     A
C952   C953    1.415   .     A
C953   C129    1.395   1_556 S
C954   C127    1.414   1_556 S
C955   C956    1.429   .     A
C956   C957    1.395   .     A
C956   O999    1.382   .     S
C957   H958    1.084   .     S
H959   C1036   1.112   .     S
H964   C1498   1.112   1_545 S
H969   C1485   1.088   1_545 S
H987   C114    1.114   1_556 S
H988   C114    1.109   1_556 S
O990   Zn1011  1.940   .     S
O990   Zn1010  1.944   .     S
O990   Zn1012  1.932   .     S
O990   Zn1009  1.953   .     S
O991   Zn1010  1.914   .     S
O992   Zn1012  1.920   .     S
O993   Zn1011  1.916   .     S
O994   Zn1009  1.910   .     S
O1001  Zn1009  1.939   .     S
O1002  Zn1012  1.942   .     S
O1003  Zn1010  1.937   .     S
O1004  Zn1011  1.944   .     S
O1005  Zn1012  1.942   .     S
O1006  Zn1009  1.937   .     S
O1007  Zn1010  1.943   .     S
O1008  Zn1011  1.938   .     S
C1013  C1023   1.430   .     S
C1013  O1097   1.264   .     A
C1013  O1095   1.264   .     A
C1014  C1046   1.420   .     A
C1014  C1015   1.411   .     A
C1014  O1092   1.386   .     S
C1015  C1040   1.519   .     S
C1015  C189    1.425   1_556 S
C1016  O1096   1.286   .     A
C1016  C1022   1.463   .     S
C1016  O1098   1.270   .     A
C1017  C1018   1.429   .     A
C1017  C1019   1.431   .     A
C1018  C1021   1.407   .     A
C1018  C1047   1.425   .     A
C1019  C1020   1.404   .     A
C1019  O1087   1.382   .     S
C1020  C1032   1.403   .     A
C1020  O1089   1.388   .     S
C1021  C1032   1.386   .     A
C1021  H1072   1.078   .     S
C1022  C839    1.358   1_655 S
C1022  O904    1.389   1_655 S
C1024  H1076   1.083   .     S
C1024  C1033   1.400   .     A
C1024  C1031   1.400   .     A
C1025  C1028   1.453   .     S
C1025  C1302   1.349   .     S
C1025  H1337   1.088   .     S
C1026  C1027   1.429   .     S
C1026  C1577   1.349   1_545 S
C1026  C1590   1.514   1_545 S
C1027  O1093   1.271   .     A
C1027  O1099   1.270   .     A
C1028  O1094   1.262   .     A
C1028  O1100   1.279   .     A
C1029  C1032   1.458   .     S
C1029  O1085   1.281   .     A
C1029  O1083   1.280   .     A
C1030  C1031   1.475   .     S
C1030  O1086   1.287   .     A
C1030  O1084   1.286   .     A
C1031  C1035   1.398   .     A
C1033  C1045   1.412   .     A
C1033  O1090   1.383   .     S
C1034  H1078   1.110   .     S
C1034  O1087   1.413   .     S
C1035  C1044   1.407   .     A
C1035  H1077   1.080   .     S
C1036  H1081   1.113   .     S
C1036  O1088   1.411   .     S
C1036  H1052   1.109   .     S
C1037  H1055   1.110   .     S
C1037  H1054   1.111   .     S
C1037  C839    1.515   1_655 S
C1037  H869    1.112   1_655 S
C1038  H1057   1.111   .     S
C1038  H1058   1.110   .     S
C1038  C1302   1.514   .     S
C1038  H1332   1.112   .     S
C1039  H1060   1.116   .     S
C1039  H1062   1.109   .     S
C1039  H1059   1.109   .     S
C1039  O1089   1.414   .     S
C1040  H1063   1.108   .     S
C1040  H1065   1.108   .     S
C1040  H1064   1.110   .     S
C1041  H1066   1.114   .     S
C1041  O1090   1.410   .     S
C1041  H1067   1.113   .     S
C1041  H148    1.109   1_556 S
C1042  H1069   1.113   .     S
C1042  H1071   1.109   .     S
C1042  O1091   1.410   .     S
C1042  H1070   1.113   .     S
C1043  H1073   1.112   .     S
C1043  H1074   1.114   .     S
C1043  H1075   1.109   .     S
C1043  O1092   1.412   .     S
C1044  C1046   1.425   .     A
C1044  C1045   1.415   .     A
C1045  C221    1.395   1_556 S
C1046  C219    1.414   1_556 S
C1047  C1048   1.429   .     A
C1048  C1049   1.395   .     A
C1048  O1091   1.382   .     S
C1049  H1050   1.084   .     S
H1051  C852    1.112   1_655 S
H1056  C1590   1.112   1_545 S
H1061  C1577   1.088   1_545 S
H1068  C29     1.109   1_655 S
H1079  C206    1.114   1_556 S
H1080  C206    1.109   1_556 S
O1082  Zn1103  1.940   .     S
O1082  Zn1102  1.944   .     S
O1082  Zn1104  1.932   .     S
O1082  Zn1101  1.953   .     S
O1083  Zn1102  1.914   .     S
O1084  Zn1104  1.920   .     S
O1085  Zn1103  1.916   .     S
O1086  Zn1101  1.910   .     S
O1093  Zn1101  1.939   .     S
O1094  Zn1104  1.942   .     S
O1095  Zn1102  1.937   .     S
O1096  Zn1103  1.944   .     S
O1097  Zn1104  1.942   .     S
O1098  Zn1101  1.937   .     S
O1099  Zn1102  1.943   .     S
O1100  Zn1103  1.938   .     S
C1105  C1115   1.430   .     S
C1105  O1189   1.264   .     A
C1105  O1187   1.264   .     A
C1106  C1138   1.420   .     A
C1106  C1107   1.411   .     A
C1106  O1184   1.386   .     S
C1107  C1132   1.519   .     S
C1107  C281    1.425   1_556 S
C1108  O1188   1.286   .     A
C1108  C1114   1.463   .     S
C1108  O1190   1.270   .     A
C1109  C1110   1.429   .     A
C1109  C1111   1.431   .     A
C1110  C1113   1.407   .     A
C1110  C1139   1.425   .     A
C1111  C1112   1.404   .     A
C1111  O1179   1.382   .     S
C1112  C1124   1.403   .     A
C1112  O1181   1.388   .     S
C1113  C1124   1.386   .     A
C1113  H1164   1.078   .     S
C1114  C1207   1.358   .     S
C1114  O1272   1.389   .     S
C1115  C1298   1.358   1_455 S
C1115  C1313   1.515   1_455 S
C1116  H1168   1.083   .     S
C1116  C1125   1.400   .     A
C1116  C1123   1.400   .     A
C1117  C1120   1.453   .     S
C1117  C1394   1.349   .     S
C1117  H1429   1.088   .     S
C1118  C1119   1.429   .     S
C1119  O1185   1.271   .     A
C1119  O1191   1.270   .     A
C1120  O1186   1.262   .     A
C1120  O1192   1.279   .     A
C1121  C1124   1.458   .     S
C1121  O1177   1.281   .     A
C1121  O1175   1.280   .     A
C1122  C1123   1.475   .     S
C1122  O1178   1.287   .     A
C1122  O1176   1.286   .     A
C1123  C1127   1.398   .     A
C1125  C1137   1.412   .     A
C1125  O1182   1.383   .     S
C1126  H1170   1.110   .     S
C1126  O1179   1.413   .     S
C1127  C1136   1.407   .     A
C1127  H1169   1.080   .     S
C1128  H1173   1.113   .     S
C1128  O1180   1.411   .     S
C1128  H1144   1.109   .     S
C1128  H1327   1.112   1_455 S
C1129  H1147   1.110   .     S
C1129  H1146   1.111   .     S
C1129  C1207   1.515   .     S
C1129  H1237   1.112   .     S
C1130  H1149   1.111   .     S
C1130  H1150   1.110   .     S
C1130  C1394   1.514   .     S
C1130  H1424   1.112   .     S
C1131  H1152   1.116   .     S
C1131  H1154   1.109   .     S
C1131  H1151   1.109   .     S
C1131  O1181   1.414   .     S
C1132  H1155   1.108   .     S
C1132  H1157   1.108   .     S
C1132  H1156   1.110   .     S
C1133  H1158   1.114   .     S
C1133  O1182   1.410   .     S
C1133  H1159   1.113   .     S
C1133  H516    1.109   1_456 S
C1134  H1161   1.113   .     S
C1134  H1163   1.109   .     S
C1134  O1183   1.410   .     S
C1134  H1162   1.113   .     S
C1135  H1165   1.112   .     S
C1135  H1166   1.114   .     S
C1135  H1167   1.109   .     S
C1135  O1184   1.412   .     S
C1136  C1138   1.425   .     A
C1136  C1137   1.415   .     A
C1137  C313    1.395   1_556 S
C1138  C311    1.414   1_556 S
C1139  C1140   1.429   .     A
C1140  C1141   1.395   .     A
C1140  O1183   1.382   .     S
C1141  H1142   1.084   .     S
H1143  C1220   1.112   .     S
H1145  C1313   1.112   1_455 S
H1171  C298    1.114   1_556 S
H1172  C298    1.109   1_556 S
O1174  Zn1195  1.940   .     S
O1174  Zn1194  1.944   .     S
O1174  Zn1196  1.932   .     S
O1174  Zn1193  1.953   .     S
O1175  Zn1194  1.914   .     S
O1176  Zn1196  1.920   .     S
O1177  Zn1195  1.916   .     S
O1178  Zn1193  1.910   .     S
O1180  C1298   1.389   1_455 S
O1185  Zn1193  1.939   .     S
O1186  Zn1196  1.942   .     S
O1187  Zn1194  1.937   .     S
O1188  Zn1195  1.944   .     S
O1189  Zn1196  1.942   .     S
O1190  Zn1193  1.937   .     S
O1191  Zn1194  1.943   .     S
O1192  Zn1195  1.938   .     S
C1197  C1207   1.430   .     S
C1197  O1281   1.264   .     A
C1197  O1279   1.264   .     A
C1198  C1230   1.420   .     A
C1198  C1199   1.411   .     A
C1198  O1276   1.386   .     S
C1199  C1224   1.519   .     S
C1199  C373    1.425   1_556 S
C1200  O1280   1.286   .     A
C1200  C1206   1.463   .     S
C1200  O1282   1.270   .     A
C1201  C1202   1.429   .     A
C1201  C1203   1.431   .     A
C1202  C1205   1.407   .     A
C1202  C1231   1.425   .     A
C1203  C1204   1.404   .     A
C1203  O1271   1.382   .     S
C1204  C1216   1.403   .     A
C1204  O1273   1.388   .     S
C1205  C1216   1.386   .     A
C1205  H1256   1.078   .     S
C1206  C1299   1.358   .     S
C1206  O1364   1.389   .     S
C1208  H1260   1.083   .     S
C1208  C1217   1.400   .     A
C1208  C1215   1.400   .     A
C1209  C1212   1.453   .     S
C1209  C1486   1.349   .     S
C1209  H1521   1.088   .     S
C1210  C1211   1.429   .     S
C1211  O1277   1.271   .     A
C1211  O1283   1.270   .     A
C1212  O1278   1.262   .     A
C1212  O1284   1.279   .     A
C1213  C1216   1.458   .     S
C1213  O1269   1.281   .     A
C1213  O1267   1.280   .     A
C1214  C1215   1.475   .     S
C1214  O1270   1.287   .     A
C1214  O1268   1.286   .     A
C1215  C1219   1.398   .     A
C1217  C1229   1.412   .     A
C1217  O1274   1.383   .     S
C1218  H1262   1.110   .     S
C1218  O1271   1.413   .     S
C1219  C1228   1.407   .     A
C1219  H1261   1.080   .     S
C1220  H1265   1.113   .     S
C1220  O1272   1.411   .     S
C1220  H1236   1.109   .     S
C1221  H1239   1.110   .     S
C1221  H1238   1.111   .     S
C1221  C1299   1.515   .     S
C1221  H1329   1.112   .     S
C1222  H1241   1.111   .     S
C1222  H1242   1.110   .     S
C1222  C1486   1.514   .     S
C1222  H1516   1.112   .     S
C1223  H1244   1.116   .     S
C1223  H1246   1.109   .     S
C1223  H1243   1.109   .     S
C1223  O1273   1.414   .     S
C1224  H1247   1.108   .     S
C1224  H1249   1.108   .     S
C1224  H1248   1.110   .     S
C1225  H1250   1.114   .     S
C1225  O1274   1.410   .     S
C1225  H1251   1.113   .     S
C1225  H332    1.109   1_556 S
C1226  H1253   1.113   .     S
C1226  H1255   1.109   .     S
C1226  O1275   1.410   .     S
C1226  H1254   1.113   .     S
C1227  H1257   1.112   .     S
C1227  H1258   1.114   .     S
C1227  H1259   1.109   .     S
C1227  O1276   1.412   .     S
C1228  C1230   1.425   .     A
C1228  C1229   1.415   .     A
C1229  C405    1.395   1_556 S
C1230  C403    1.414   1_556 S
C1231  C1232   1.429   .     A
C1232  C1233   1.395   .     A
C1232  O1275   1.382   .     S
C1233  H1234   1.084   .     S
H1235  C1312   1.112   .     S
H1263  C390    1.114   1_556 S
H1264  C390    1.109   1_556 S
O1266  Zn1287  1.940   .     S
O1266  Zn1286  1.944   .     S
O1266  Zn1288  1.932   .     S
O1266  Zn1285  1.953   .     S
O1267  Zn1286  1.914   .     S
O1268  Zn1288  1.920   .     S
O1269  Zn1287  1.916   .     S
O1270  Zn1285  1.910   .     S
O1277  Zn1285  1.939   .     S
O1278  Zn1288  1.942   .     S
O1279  Zn1286  1.937   .     S
O1280  Zn1287  1.944   .     S
O1281  Zn1288  1.942   .     S
O1282  Zn1285  1.937   .     S
O1283  Zn1286  1.943   .     S
O1284  Zn1287  1.938   .     S
C1289  C1299   1.430   .     S
C1289  O1373   1.264   .     A
C1289  O1371   1.264   .     A
C1290  C1322   1.420   .     A
C1290  C1291   1.411   .     A
C1290  O1368   1.386   .     S
C1291  C1316   1.519   .     S
C1291  C465    1.425   1_556 S
C1292  O1372   1.286   .     A
C1292  C1298   1.463   .     S
C1292  O1374   1.270   .     A
C1293  C1294   1.429   .     A
C1293  C1295   1.431   .     A
C1294  C1297   1.407   .     A
C1294  C1323   1.425   .     A
C1295  C1296   1.404   .     A
C1295  O1363   1.382   .     S
C1296  C1308   1.403   .     A
C1296  O1365   1.388   .     S
C1297  C1308   1.386   .     A
C1297  H1348   1.078   .     S
C1298  C1115   1.358   1_655 S
C1298  O1180   1.389   1_655 S
C1300  H1352   1.083   .     S
C1300  C1309   1.400   .     A
C1300  C1307   1.400   .     A
C1301  C1304   1.453   .     S
C1301  C1578   1.349   .     S
C1301  H1613   1.088   .     S
C1302  C1303   1.429   .     S
C1303  O1369   1.271   .     A
C1303  O1375   1.270   .     A
C1304  O1370   1.262   .     A
C1304  O1376   1.279   .     A
C1305  C1308   1.458   .     S
C1305  O1361   1.281   .     A
C1305  O1359   1.280   .     A
C1306  C1307   1.475   .     S
C1306  O1362   1.287   .     A
C1306  O1360   1.286   .     A
C1307  C1311   1.398   .     A
C1309  C1321   1.412   .     A
C1309  O1366   1.383   .     S
C1310  H1354   1.110   .     S
C1310  O1363   1.413   .     S
C1311  C1320   1.407   .     A
C1311  H1353   1.080   .     S
C1312  H1357   1.113   .     S
C1312  O1364   1.411   .     S
C1312  H1328   1.109   .     S
C1313  H1331   1.110   .     S
C1313  H1330   1.111   .     S
C1313  C1115   1.515   1_655 S
C1313  H1145   1.112   1_655 S
C1314  H1333   1.111   .     S
C1314  H1334   1.110   .     S
C1314  C1578   1.514   .     S
C1314  H1608   1.112   .     S
C1315  H1336   1.116   .     S
C1315  H1338   1.109   .     S
C1315  H1335   1.109   .     S
C1315  O1365   1.414   .     S
C1316  H1339   1.108   .     S
C1316  H1341   1.108   .     S
C1316  H1340   1.110   .     S
C1317  H1342   1.114   .     S
C1317  O1366   1.410   .     S
C1317  H1343   1.113   .     S
C1317  H424    1.109   1_556 S
C1318  H1345   1.113   .     S
C1318  H1347   1.109   .     S
C1318  O1367   1.410   .     S
C1318  H1346   1.113   .     S
C1319  H1349   1.112   .     S
C1319  H1350   1.114   .     S
C1319  H1351   1.109   .     S
C1319  O1368   1.412   .     S
C1320  C1322   1.425   .     A
C1320  C1321   1.415   .     A
C1321  C497    1.395   1_556 S
C1322  C495    1.414   1_556 S
C1323  C1324   1.429   .     A
C1324  C1325   1.395   .     A
C1324  O1367   1.382   .     S
C1325  H1326   1.084   .     S
H1327  C1128   1.112   1_655 S
H1344  C305    1.109   1_655 S
H1355  C482    1.114   1_556 S
H1356  C482    1.109   1_556 S
O1358  Zn1379  1.940   .     S
O1358  Zn1378  1.944   .     S
O1358  Zn1380  1.932   .     S
O1358  Zn1377  1.953   .     S
O1359  Zn1378  1.914   .     S
O1360  Zn1380  1.920   .     S
O1361  Zn1379  1.916   .     S
O1362  Zn1377  1.910   .     S
O1369  Zn1377  1.939   .     S
O1370  Zn1380  1.942   .     S
O1371  Zn1378  1.937   .     S
O1372  Zn1379  1.944   .     S
O1373  Zn1380  1.942   .     S
O1374  Zn1377  1.937   .     S
O1375  Zn1378  1.943   .     S
O1376  Zn1379  1.938   .     S
C1381  C1391   1.430   .     S
C1381  O1465   1.264   .     A
C1381  O1463   1.264   .     A
C1382  C1414   1.420   .     A
C1382  C1383   1.411   .     A
C1382  O1460   1.386   .     S
C1383  C1408   1.519   .     S
C1383  C557    1.425   1_556 S
C1384  O1464   1.286   .     A
C1384  C1390   1.463   .     S
C1384  O1466   1.270   .     A
C1385  C1386   1.429   .     A
C1385  C1387   1.431   .     A
C1386  C1389   1.407   .     A
C1386  C1415   1.425   .     A
C1387  C1388   1.404   .     A
C1387  O1455   1.382   .     S
C1388  C1400   1.403   .     A
C1388  O1457   1.388   .     S
C1389  C1400   1.386   .     A
C1389  H1440   1.078   .     S
C1390  C1483   1.358   .     S
C1390  O1548   1.389   .     S
C1391  C1574   1.358   1_455 S
C1391  C1589   1.515   1_455 S
C1392  H1444   1.083   .     S
C1392  C1401   1.400   .     A
C1392  C1399   1.400   .     A
C1393  C1396   1.453   .     S
C1393  C842    1.349   1_565 S
C1393  H877    1.088   1_565 S
C1394  C1395   1.429   .     S
C1395  O1461   1.271   .     A
C1395  O1467   1.270   .     A
C1396  O1462   1.262   .     A
C1396  O1468   1.279   .     A
C1397  C1400   1.458   .     S
C1397  O1453   1.281   .     A
C1397  O1451   1.280   .     A
C1398  C1399   1.475   .     S
C1398  O1454   1.287   .     A
C1398  O1452   1.286   .     A
C1399  C1403   1.398   .     A
C1401  C1413   1.412   .     A
C1401  O1458   1.383   .     S
C1402  H1446   1.110   .     S
C1402  O1455   1.413   .     S
C1403  C1412   1.407   .     A
C1403  H1445   1.080   .     S
C1404  H1449   1.113   .     S
C1404  O1456   1.411   .     S
C1404  H1420   1.109   .     S
C1404  H1603   1.112   1_455 S
C1405  H1423   1.110   .     S
C1405  H1422   1.111   .     S
C1405  C1483   1.515   .     S
C1405  H1513   1.112   .     S
C1406  H1425   1.111   .     S
C1406  H1426   1.110   .     S
C1406  C842    1.514   1_565 S
C1406  H872    1.112   1_565 S
C1407  H1428   1.116   .     S
C1407  H1430   1.109   .     S
C1407  H1427   1.109   .     S
C1407  O1457   1.414   .     S
C1408  H1431   1.108   .     S
C1408  H1433   1.108   .     S
C1408  H1432   1.110   .     S
C1409  H1434   1.114   .     S
C1409  O1458   1.410   .     S
C1409  H1435   1.113   .     S
C1409  H792    1.109   1_456 S
C1410  H1437   1.113   .     S
C1410  H1439   1.109   .     S
C1410  O1459   1.410   .     S
C1410  H1438   1.113   .     S
C1411  H1441   1.112   .     S
C1411  H1442   1.114   .     S
C1411  H1443   1.109   .     S
C1411  O1460   1.412   .     S
C1412  C1414   1.425   .     A
C1412  C1413   1.415   .     A
C1413  C589    1.395   1_556 S
C1414  C587    1.414   1_556 S
C1415  C1416   1.429   .     A
C1416  C1417   1.395   .     A
C1416  O1459   1.382   .     S
C1417  H1418   1.084   .     S
H1419  C1496   1.112   .     S
H1421  C1589   1.112   1_455 S
H1447  C574    1.114   1_556 S
H1448  C574    1.109   1_556 S
O1450  Zn1471  1.940   .     S
O1450  Zn1470  1.944   .     S
O1450  Zn1472  1.932   .     S
O1450  Zn1469  1.953   .     S
O1451  Zn1470  1.914   .     S
O1452  Zn1472  1.920   .     S
O1453  Zn1471  1.916   .     S
O1454  Zn1469  1.910   .     S
O1456  C1574   1.389   1_455 S
O1461  Zn1469  1.939   .     S
O1462  Zn1472  1.942   .     S
O1463  Zn1470  1.937   .     S
O1464  Zn1471  1.944   .     S
O1465  Zn1472  1.942   .     S
O1466  Zn1469  1.937   .     S
O1467  Zn1470  1.943   .     S
O1468  Zn1471  1.938   .     S
C1473  C1483   1.430   .     S
C1473  O1557   1.264   .     A
C1473  O1555   1.264   .     A
C1474  C1506   1.420   .     A
C1474  C1475   1.411   .     A
C1474  O1552   1.386   .     S
C1475  C1500   1.519   .     S
C1475  C649    1.425   1_556 S
C1476  O1556   1.286   .     A
C1476  C1482   1.463   .     S
C1476  O1558   1.270   .     A
C1477  C1478   1.429   .     A
C1477  C1479   1.431   .     A
C1478  C1481   1.407   .     A
C1478  C1507   1.425   .     A
C1479  C1480   1.404   .     A
C1479  O1547   1.382   .     S
C1480  C1492   1.403   .     A
C1480  O1549   1.388   .     S
C1481  C1492   1.386   .     A
C1481  H1532   1.078   .     S
C1482  C1575   1.358   .     S
C1482  O1640   1.389   .     S
C1484  H1536   1.083   .     S
C1484  C1493   1.400   .     A
C1484  C1491   1.400   .     A
C1485  C1488   1.453   .     S
C1485  C934    1.349   1_565 S
C1485  H969    1.088   1_565 S
C1486  C1487   1.429   .     S
C1487  O1553   1.271   .     A
C1487  O1559   1.270   .     A
C1488  O1554   1.262   .     A
C1488  O1560   1.279   .     A
C1489  C1492   1.458   .     S
C1489  O1545   1.281   .     A
C1489  O1543   1.280   .     A
C1490  C1491   1.475   .     S
C1490  O1546   1.287   .     A
C1490  O1544   1.286   .     A
C1491  C1495   1.398   .     A
C1493  C1505   1.412   .     A
C1493  O1550   1.383   .     S
C1494  H1538   1.110   .     S
C1494  O1547   1.413   .     S
C1495  C1504   1.407   .     A
C1495  H1537   1.080   .     S
C1496  H1541   1.113   .     S
C1496  O1548   1.411   .     S
C1496  H1512   1.109   .     S
C1497  H1515   1.110   .     S
C1497  H1514   1.111   .     S
C1497  C1575   1.515   .     S
C1497  H1605   1.112   .     S
C1498  H1517   1.111   .     S
C1498  H1518   1.110   .     S
C1498  C934    1.514   1_565 S
C1498  H964    1.112   1_565 S
C1499  H1520   1.116   .     S
C1499  H1522   1.109   .     S
C1499  H1519   1.109   .     S
C1499  O1549   1.414   .     S
C1500  H1523   1.108   .     S
C1500  H1525   1.108   .     S
C1500  H1524   1.110   .     S
C1501  H1526   1.114   .     S
C1501  O1550   1.410   .     S
C1501  H1527   1.113   .     S
C1501  H608    1.109   1_556 S
C1502  H1529   1.113   .     S
C1502  H1531   1.109   .     S
C1502  O1551   1.410   .     S
C1502  H1530   1.113   .     S
C1503  H1533   1.112   .     S
C1503  H1534   1.114   .     S
C1503  H1535   1.109   .     S
C1503  O1552   1.412   .     S
C1504  C1506   1.425   .     A
C1504  C1505   1.415   .     A
C1505  C681    1.395   1_556 S
C1506  C679    1.414   1_556 S
C1507  C1508   1.429   .     A
C1508  C1509   1.395   .     A
C1508  O1551   1.382   .     S
C1509  H1510   1.084   .     S
H1511  C1588   1.112   .     S
H1539  C666    1.114   1_556 S
H1540  C666    1.109   1_556 S
O1542  Zn1563  1.940   .     S
O1542  Zn1562  1.944   .     S
O1542  Zn1564  1.932   .     S
O1542  Zn1561  1.953   .     S
O1543  Zn1562  1.914   .     S
O1544  Zn1564  1.920   .     S
O1545  Zn1563  1.916   .     S
O1546  Zn1561  1.910   .     S
O1553  Zn1561  1.939   .     S
O1554  Zn1564  1.942   .     S
O1555  Zn1562  1.937   .     S
O1556  Zn1563  1.944   .     S
O1557  Zn1564  1.942   .     S
O1558  Zn1561  1.937   .     S
O1559  Zn1562  1.943   .     S
O1560  Zn1563  1.938   .     S
C1565  C1575   1.430   .     S
C1565  O1649   1.264   .     A
C1565  O1647   1.264   .     A
C1566  C1598   1.420   .     A
C1566  C1567   1.411   .     A
C1566  O1644   1.386   .     S
C1567  C1592   1.519   .     S
C1567  C741    1.425   1_556 S
C1568  O1648   1.286   .     A
C1568  C1574   1.463   .     S
C1568  O1650   1.270   .     A
C1569  C1570   1.429   .     A
C1569  C1571   1.431   .     A
C1570  C1573   1.407   .     A
C1570  C1599   1.425   .     A
C1571  C1572   1.404   .     A
C1571  O1639   1.382   .     S
C1572  C1584   1.403   .     A
C1572  O1641   1.388   .     S
C1573  C1584   1.386   .     A
C1573  H1624   1.078   .     S
C1574  C1391   1.358   1_655 S
C1574  O1456   1.389   1_655 S
C1576  H1628   1.083   .     S
C1576  C1585   1.400   .     A
C1576  C1583   1.400   .     A
C1577  C1580   1.453   .     S
C1577  C1026   1.349   1_565 S
C1577  H1061   1.088   1_565 S
C1578  C1579   1.429   .     S
C1579  O1645   1.271   .     A
C1579  O1651   1.270   .     A
C1580  O1646   1.262   .     A
C1580  O1652   1.279   .     A
C1581  C1584   1.458   .     S
C1581  O1637   1.281   .     A
C1581  O1635   1.280   .     A
C1582  C1583   1.475   .     S
C1582  O1638   1.287   .     A
C1582  O1636   1.286   .     A
C1583  C1587   1.398   .     A
C1585  C1597   1.412   .     A
C1585  O1642   1.383   .     S
C1586  H1630   1.110   .     S
C1586  O1639   1.413   .     S
C1587  C1596   1.407   .     A
C1587  H1629   1.080   .     S
C1588  H1633   1.113   .     S
C1588  O1640   1.411   .     S
C1588  H1604   1.109   .     S
C1589  H1607   1.110   .     S
C1589  H1606   1.111   .     S
C1589  C1391   1.515   1_655 S
C1589  H1421   1.112   1_655 S
C1590  H1609   1.111   .     S
C1590  H1610   1.110   .     S
C1590  C1026   1.514   1_565 S
C1590  H1056   1.112   1_565 S
C1591  H1612   1.116   .     S
C1591  H1614   1.109   .     S
C1591  H1611   1.109   .     S
C1591  O1641   1.414   .     S
C1592  H1615   1.108   .     S
C1592  H1617   1.108   .     S
C1592  H1616   1.110   .     S
C1593  H1618   1.114   .     S
C1593  O1642   1.410   .     S
C1593  H1619   1.113   .     S
C1593  H700    1.109   1_556 S
C1594  H1621   1.113   .     S
C1594  H1623   1.109   .     S
C1594  O1643   1.410   .     S
C1594  H1622   1.113   .     S
C1595  H1625   1.112   .     S
C1595  H1626   1.114   .     S
C1595  H1627   1.109   .     S
C1595  O1644   1.412   .     S
C1596  C1598   1.425   .     A
C1596  C1597   1.415   .     A
C1597  C773    1.395   1_556 S
C1598  C771    1.414   1_556 S
C1599  C1600   1.429   .     A
C1600  C1601   1.395   .     A
C1600  O1643   1.382   .     S
C1601  H1602   1.084   .     S
H1603  C1404   1.112   1_655 S
H1620  C581    1.109   1_655 S
H1631  C758    1.114   1_556 S
H1632  C758    1.109   1_556 S
O1634  Zn1655  1.940   .     S
O1634  Zn1654  1.944   .     S
O1634  Zn1656  1.932   .     S
O1634  Zn1653  1.953   .     S
O1635  Zn1654  1.914   .     S
O1636  Zn1656  1.920   .     S
O1637  Zn1655  1.916   .     S
O1638  Zn1653  1.910   .     S
O1645  Zn1653  1.939   .     S
O1646  Zn1656  1.942   .     S
O1647  Zn1654  1.937   .     S
O1648  Zn1655  1.944   .     S
O1649  Zn1656  1.942   .     S
O1650  Zn1653  1.937   .     S
O1651  Zn1654  1.943   .     S
O1652  Zn1655  1.938   .     S
