data_str_m1_o10_o18_pcu_sym.18
_audit_creation_date              2020-01-03
_audit_creation_method            'Materials Studio'
_symmetry_space_group_name_H-M    'P1'
_symmetry_Int_Tables_number       1
_symmetry_cell_setting            triclinic
loop_
_symmetry_equiv_pos_as_xyz
  x,y,z
_cell_length_a                    32.6960
_cell_length_b                    32.6390
_cell_length_c                    35.5886
_cell_angle_alpha                 98.0924
_cell_angle_beta                  72.6164
_cell_angle_gamma                 98.3057
loop_
_atom_site_label
_atom_site_type_symbol
_atom_site_fract_x
_atom_site_fract_y
_atom_site_fract_z
_atom_site_U_iso_or_equiv
_atom_site_adp_type
_atom_site_occupancy
Br1    Br    0.30795   0.10412   0.00983   0.00000  Uiso   1.00
Br2    Br    0.22250   0.20073   0.39421   0.00000  Uiso   1.00
C3     C     0.05279   0.16023   0.25874   0.00000  Uiso   1.00
C4     C     0.20242   0.13955   0.45906   0.00000  Uiso   1.00
C5     C     0.22959   0.12486   0.47646   0.00000  Uiso   1.00
C6     C     0.28104   0.17345   0.24123   0.00000  Uiso   1.00
C7     C     0.22298   0.13261   0.01779   0.00000  Uiso   1.00
C8     C     0.18531   0.15138   0.04102   0.00000  Uiso   1.00
C9     C     0.25125   0.12086   0.03720   0.00000  Uiso   1.00
C10    C     0.23993   0.12448   0.07870   0.00000  Uiso   1.00
C11    C     0.17212   0.14834   0.08201   0.00000  Uiso   1.00
C12    C     0.32712   0.17488   0.23717   0.00000  Uiso   1.00
C13    C     0.00742   0.15817   0.26338   0.00000  Uiso   1.00
C14    C     0.08919   0.19960   0.42159   0.00000  Uiso   1.00
C15    C     0.18007   0.32213   0.23890   0.00000  Uiso   1.00
C16    C     0.15079   0.01278   0.26304   0.00000  Uiso   1.00
C17    C     0.15643   0.05633   0.25857   0.00000  Uiso   1.00
C18    C     0.17669   0.27768   0.24151   0.00000  Uiso   1.00
C19    C     0.18869   0.14522   0.14395   0.00000  Uiso   1.00
C20    C     0.14498   0.18748   0.35632   0.00000  Uiso   1.00
C21    C     0.13190   0.19276   0.40004   0.00000  Uiso   1.00
C22    C     0.19966   0.13716   0.10089   0.00000  Uiso   1.00
C23    C     0.07722   0.20447   0.46340   0.00000  Uiso   1.00
C24    C     0.16145   0.18811   0.42027   0.00000  Uiso   1.00
C25    C     0.14683   0.18364   0.46126   0.00000  Uiso   1.00
C26    C     0.10680   0.19778   0.48356   0.00000  Uiso   1.00
C27    C     0.17093   0.16562   0.48063   0.00000  Uiso   1.00
C28    C     0.16099   0.17089   0.02244   0.00000  Uiso   1.00
C29    C     0.12816   0.19667   0.04370   0.00000  Uiso   1.00
C30    C     0.09873   0.20645   0.02506   0.00000  Uiso   1.00
H31    H     0.20728   0.00253   0.21664   0.00000  Uiso   1.00
H32    H     0.11498   0.01266   0.32020   0.00000  Uiso   1.00
H33    H     0.08621   0.00368   0.28702   0.00000  Uiso   1.00
H34    H     0.25344   0.09127   0.11675   0.00000  Uiso   1.00
H35    H     0.27840   0.14063   0.11502   0.00000  Uiso   1.00
H36    H     0.28169   0.11658   0.42939   0.00000  Uiso   1.00
H37    H     0.24594   0.07364   0.43855   0.00000  Uiso   1.00
H38    H     0.02974   0.24260   0.47766   0.00000  Uiso   1.00
H39    H     0.01200   0.19095   0.47743   0.00000  Uiso   1.00
H40    H     0.04636   0.23088   0.40877   0.00000  Uiso   1.00
H41    H     0.03269   0.17855   0.40894   0.00000  Uiso   1.00
H42    H     0.14042   0.15476   0.10022   0.00000  Uiso   1.00
H43    H     0.09664   0.20883   0.10214   0.00000  Uiso   1.00
H44    H     0.13252   0.24850   0.08184   0.00000  Uiso   1.00
H45    H     0.20595   0.12952   0.42808   0.00000  Uiso   1.00
H46    H     0.04357   0.20948   0.07027   0.00000  Uiso   1.00
H47    H     0.07315   0.25631   0.06104   0.00000  Uiso   1.00
H48    H     0.01843   0.22497   0.20668   0.00000  Uiso   1.00
H49    H     0.01956   0.17875   0.17837   0.00000  Uiso   1.00
H50    H     0.31810   0.15711   0.32283   0.00000  Uiso   1.00
H51    H     0.31853   0.10979   0.29649   0.00000  Uiso   1.00
N52    N     0.06233   0.22770   0.04804   0.00000  Uiso   1.00
N53    N     0.02462   0.19408   0.20471   0.00000  Uiso   1.00
N54    N     0.31174   0.14034   0.29753   0.00000  Uiso   1.00
N55    N     0.11384   0.33011   0.29282   0.00000  Uiso   1.00
N56    N     0.26932   0.11410   0.09796   0.00000  Uiso   1.00
N57    N     0.26149   0.09933   0.45182   0.00000  Uiso   1.00
N58    N     0.03450   0.21417   0.48513   0.00000  Uiso   1.00
N59    N     0.05819   0.20186   0.40083   0.00000  Uiso   1.00
N60    N     0.12705   0.21625   0.08270   0.00000  Uiso   1.00
O61    O     0.16667   0.16667   0.25000   0.00000  Uiso   1.00
O62    O     0.15693   0.12393   0.16625   0.00000  Uiso   1.00
O63    O     0.12687   0.20646   0.33749   0.00000  Uiso   1.00
O64    O     0.21088   0.17493   0.15877   0.00000  Uiso   1.00
O65    O     0.17198   0.16135   0.33749   0.00000  Uiso   1.00
O66    O     0.17849   0.08101   0.27821   0.00000  Uiso   1.00
O67    O     0.14581   0.26136   0.26767   0.00000  Uiso   1.00
O68    O     0.07452   0.13251   0.23607   0.00000  Uiso   1.00
O69    O     0.26785   0.19179   0.21806   0.00000  Uiso   1.00
O70    O     0.06990   0.18960   0.27820   0.00000  Uiso   1.00
O71    O     0.25440   0.15277   0.26768   0.00000  Uiso   1.00
O72    O     0.13800   0.06903   0.23607   0.00000  Uiso   1.00
O73    O     0.20437   0.25527   0.21806   0.00000  Uiso   1.00
Zn74   Zn    0.19244   0.14090   0.28278   0.00000  Uiso   1.00
Zn75   Zn    0.13459   0.12378   0.22258   0.00000  Uiso   1.00
Zn76   Zn    0.21166   0.19664   0.21188   0.00000  Uiso   1.00
Zn77   Zn    0.12798   0.20535   0.28277   0.00000  Uiso   1.00
Br78   Br    0.64128   0.10412   0.00983   0.00000  Uiso   1.00
Br79   Br    0.55583   0.20073   0.39421   0.00000  Uiso   1.00
C80    C     0.38612   0.16023   0.25874   0.00000  Uiso   1.00
C81    C     0.53575   0.13955   0.45906   0.00000  Uiso   1.00
C82    C     0.56292   0.12486   0.47646   0.00000  Uiso   1.00
C83    C     0.61438   0.17345   0.24123   0.00000  Uiso   1.00
C84    C     0.55631   0.13261   0.01779   0.00000  Uiso   1.00
C85    C     0.51864   0.15138   0.04102   0.00000  Uiso   1.00
C86    C     0.58459   0.12086   0.03720   0.00000  Uiso   1.00
C87    C     0.57326   0.12448   0.07870   0.00000  Uiso   1.00
C88    C     0.50545   0.14834   0.08201   0.00000  Uiso   1.00
C89    C     0.66045   0.17488   0.23717   0.00000  Uiso   1.00
C90    C     0.34075   0.15817   0.26338   0.00000  Uiso   1.00
C91    C     0.42253   0.19960   0.42159   0.00000  Uiso   1.00
C92    C     0.51340   0.32213   0.23890   0.00000  Uiso   1.00
C93    C     0.48412   0.01278   0.26304   0.00000  Uiso   1.00
C94    C     0.48976   0.05633   0.25857   0.00000  Uiso   1.00
C95    C     0.51002   0.27768   0.24151   0.00000  Uiso   1.00
C96    C     0.52203   0.14522   0.14395   0.00000  Uiso   1.00
C97    C     0.47832   0.18748   0.35632   0.00000  Uiso   1.00
C98    C     0.46523   0.19276   0.40004   0.00000  Uiso   1.00
C99    C     0.53299   0.13716   0.10089   0.00000  Uiso   1.00
C100   C     0.41055   0.20447   0.46340   0.00000  Uiso   1.00
C101   C     0.49478   0.18811   0.42027   0.00000  Uiso   1.00
C102   C     0.48017   0.18364   0.46126   0.00000  Uiso   1.00
C103   C     0.44013   0.19778   0.48356   0.00000  Uiso   1.00
C104   C     0.50426   0.16562   0.48063   0.00000  Uiso   1.00
C105   C     0.49433   0.17089   0.02244   0.00000  Uiso   1.00
C106   C     0.46149   0.19667   0.04370   0.00000  Uiso   1.00
C107   C     0.43207   0.20645   0.02506   0.00000  Uiso   1.00
H108   H     0.54061   0.00253   0.21664   0.00000  Uiso   1.00
H109   H     0.44832   0.01266   0.32020   0.00000  Uiso   1.00
H110   H     0.41954   0.00368   0.28702   0.00000  Uiso   1.00
H111   H     0.58677   0.09127   0.11675   0.00000  Uiso   1.00
H112   H     0.61173   0.14063   0.11502   0.00000  Uiso   1.00
H113   H     0.61502   0.11658   0.42939   0.00000  Uiso   1.00
H114   H     0.57927   0.07364   0.43855   0.00000  Uiso   1.00
H115   H     0.36307   0.24260   0.47766   0.00000  Uiso   1.00
H116   H     0.34534   0.19095   0.47743   0.00000  Uiso   1.00
H117   H     0.37969   0.23088   0.40877   0.00000  Uiso   1.00
H118   H     0.36603   0.17855   0.40894   0.00000  Uiso   1.00
H119   H     0.47375   0.15476   0.10022   0.00000  Uiso   1.00
H120   H     0.42997   0.20883   0.10214   0.00000  Uiso   1.00
H121   H     0.46585   0.24850   0.08184   0.00000  Uiso   1.00
H122   H     0.53929   0.12952   0.42808   0.00000  Uiso   1.00
H123   H     0.37690   0.20948   0.07027   0.00000  Uiso   1.00
H124   H     0.40648   0.25631   0.06104   0.00000  Uiso   1.00
H125   H     0.35177   0.22497   0.20668   0.00000  Uiso   1.00
H126   H     0.35290   0.17875   0.17837   0.00000  Uiso   1.00
H127   H     0.65143   0.15711   0.32283   0.00000  Uiso   1.00
H128   H     0.65186   0.10979   0.29649   0.00000  Uiso   1.00
N129   N     0.39567   0.22770   0.04804   0.00000  Uiso   1.00
N130   N     0.35795   0.19408   0.20471   0.00000  Uiso   1.00
N131   N     0.64508   0.14034   0.29753   0.00000  Uiso   1.00
N132   N     0.44718   0.33011   0.29282   0.00000  Uiso   1.00
N133   N     0.60265   0.11410   0.09796   0.00000  Uiso   1.00
N134   N     0.59483   0.09933   0.45182   0.00000  Uiso   1.00
N135   N     0.36783   0.21417   0.48513   0.00000  Uiso   1.00
N136   N     0.39152   0.20186   0.40083   0.00000  Uiso   1.00
N137   N     0.46039   0.21625   0.08270   0.00000  Uiso   1.00
O138   O     0.50000   0.16667   0.25000   0.00000  Uiso   1.00
O139   O     0.49027   0.12393   0.16625   0.00000  Uiso   1.00
O140   O     0.46020   0.20646   0.33749   0.00000  Uiso   1.00
O141   O     0.54421   0.17493   0.15877   0.00000  Uiso   1.00
O142   O     0.50532   0.16135   0.33749   0.00000  Uiso   1.00
O143   O     0.51182   0.08101   0.27821   0.00000  Uiso   1.00
O144   O     0.47914   0.26136   0.26767   0.00000  Uiso   1.00
O145   O     0.40785   0.13251   0.23607   0.00000  Uiso   1.00
O146   O     0.60119   0.19179   0.21806   0.00000  Uiso   1.00
O147   O     0.40323   0.18960   0.27820   0.00000  Uiso   1.00
O148   O     0.58773   0.15277   0.26768   0.00000  Uiso   1.00
O149   O     0.47133   0.06903   0.23607   0.00000  Uiso   1.00
O150   O     0.53771   0.25527   0.21806   0.00000  Uiso   1.00
Zn151  Zn    0.52577   0.14090   0.28278   0.00000  Uiso   1.00
Zn152  Zn    0.46792   0.12378   0.22258   0.00000  Uiso   1.00
Zn153  Zn    0.54500   0.19664   0.21188   0.00000  Uiso   1.00
Zn154  Zn    0.46131   0.20535   0.28277   0.00000  Uiso   1.00
Br155  Br    0.97461   0.10412   0.00983   0.00000  Uiso   1.00
Br156  Br    0.88917   0.20073   0.39421   0.00000  Uiso   1.00
C157   C     0.71945   0.16023   0.25874   0.00000  Uiso   1.00
C158   C     0.86909   0.13955   0.45906   0.00000  Uiso   1.00
C159   C     0.89625   0.12486   0.47646   0.00000  Uiso   1.00
C160   C     0.94771   0.17345   0.24123   0.00000  Uiso   1.00
C161   C     0.88964   0.13261   0.01779   0.00000  Uiso   1.00
C162   C     0.85197   0.15138   0.04102   0.00000  Uiso   1.00
C163   C     0.91792   0.12086   0.03720   0.00000  Uiso   1.00
C164   C     0.90659   0.12448   0.07870   0.00000  Uiso   1.00
C165   C     0.83879   0.14834   0.08201   0.00000  Uiso   1.00
C166   C     0.99378   0.17488   0.23717   0.00000  Uiso   1.00
C167   C     0.67408   0.15817   0.26338   0.00000  Uiso   1.00
C168   C     0.75586   0.19960   0.42159   0.00000  Uiso   1.00
C169   C     0.84673   0.32213   0.23890   0.00000  Uiso   1.00
C170   C     0.81745   0.01278   0.26304   0.00000  Uiso   1.00
C171   C     0.82310   0.05633   0.25857   0.00000  Uiso   1.00
C172   C     0.84336   0.27768   0.24151   0.00000  Uiso   1.00
C173   C     0.85536   0.14522   0.14395   0.00000  Uiso   1.00
C174   C     0.81165   0.18748   0.35632   0.00000  Uiso   1.00
C175   C     0.79856   0.19276   0.40004   0.00000  Uiso   1.00
C176   C     0.86633   0.13716   0.10089   0.00000  Uiso   1.00
C177   C     0.74388   0.20447   0.46340   0.00000  Uiso   1.00
C178   C     0.82812   0.18811   0.42027   0.00000  Uiso   1.00
C179   C     0.81350   0.18364   0.46126   0.00000  Uiso   1.00
C180   C     0.77346   0.19778   0.48356   0.00000  Uiso   1.00
C181   C     0.83760   0.16562   0.48063   0.00000  Uiso   1.00
C182   C     0.82766   0.17089   0.02244   0.00000  Uiso   1.00
C183   C     0.79482   0.19667   0.04370   0.00000  Uiso   1.00
C184   C     0.76540   0.20645   0.02506   0.00000  Uiso   1.00
H185   H     0.87395   0.00253   0.21664   0.00000  Uiso   1.00
H186   H     0.78165   0.01266   0.32020   0.00000  Uiso   1.00
H187   H     0.75287   0.00368   0.28702   0.00000  Uiso   1.00
H188   H     0.92010   0.09127   0.11675   0.00000  Uiso   1.00
H189   H     0.94507   0.14063   0.11502   0.00000  Uiso   1.00
H190   H     0.94836   0.11658   0.42939   0.00000  Uiso   1.00
H191   H     0.91261   0.07364   0.43855   0.00000  Uiso   1.00
H192   H     0.69640   0.24260   0.47766   0.00000  Uiso   1.00
H193   H     0.67867   0.19095   0.47743   0.00000  Uiso   1.00
H194   H     0.71303   0.23088   0.40877   0.00000  Uiso   1.00
H195   H     0.69936   0.17855   0.40894   0.00000  Uiso   1.00
H196   H     0.80708   0.15476   0.10022   0.00000  Uiso   1.00
H197   H     0.76330   0.20883   0.10214   0.00000  Uiso   1.00
H198   H     0.79918   0.24850   0.08184   0.00000  Uiso   1.00
H199   H     0.87262   0.12952   0.42808   0.00000  Uiso   1.00
H200   H     0.71023   0.20948   0.07027   0.00000  Uiso   1.00
H201   H     0.73981   0.25631   0.06104   0.00000  Uiso   1.00
H202   H     0.68510   0.22497   0.20668   0.00000  Uiso   1.00
H203   H     0.68623   0.17875   0.17837   0.00000  Uiso   1.00
H204   H     0.98477   0.15711   0.32283   0.00000  Uiso   1.00
H205   H     0.98519   0.10979   0.29649   0.00000  Uiso   1.00
N206   N     0.72900   0.22770   0.04804   0.00000  Uiso   1.00
N207   N     0.69128   0.19408   0.20471   0.00000  Uiso   1.00
N208   N     0.97841   0.14034   0.29753   0.00000  Uiso   1.00
N209   N     0.78051   0.33011   0.29282   0.00000  Uiso   1.00
N210   N     0.93598   0.11410   0.09796   0.00000  Uiso   1.00
N211   N     0.92816   0.09933   0.45182   0.00000  Uiso   1.00
N212   N     0.70116   0.21417   0.48513   0.00000  Uiso   1.00
N213   N     0.72486   0.20186   0.40083   0.00000  Uiso   1.00
N214   N     0.79372   0.21625   0.08270   0.00000  Uiso   1.00
O215   O     0.83333   0.16667   0.25000   0.00000  Uiso   1.00
O216   O     0.82360   0.12393   0.16625   0.00000  Uiso   1.00
O217   O     0.79354   0.20646   0.33749   0.00000  Uiso   1.00
O218   O     0.87755   0.17493   0.15877   0.00000  Uiso   1.00
O219   O     0.83865   0.16135   0.33749   0.00000  Uiso   1.00
O220   O     0.84515   0.08101   0.27821   0.00000  Uiso   1.00
O221   O     0.81247   0.26136   0.26767   0.00000  Uiso   1.00
O222   O     0.74119   0.13251   0.23607   0.00000  Uiso   1.00
O223   O     0.93452   0.19179   0.21806   0.00000  Uiso   1.00
O224   O     0.73656   0.18960   0.27820   0.00000  Uiso   1.00
O225   O     0.92106   0.15277   0.26768   0.00000  Uiso   1.00
O226   O     0.80467   0.06903   0.23607   0.00000  Uiso   1.00
O227   O     0.87104   0.25527   0.21806   0.00000  Uiso   1.00
Zn228  Zn    0.85910   0.14090   0.28278   0.00000  Uiso   1.00
Zn229  Zn    0.80125   0.12378   0.22258   0.00000  Uiso   1.00
Zn230  Zn    0.87833   0.19664   0.21188   0.00000  Uiso   1.00
Zn231  Zn    0.79465   0.20535   0.28277   0.00000  Uiso   1.00
Br232  Br    0.30795   0.43746   0.00983   0.00000  Uiso   1.00
Br233  Br    0.22250   0.53406   0.39421   0.00000  Uiso   1.00
C234   C     0.05279   0.49356   0.25874   0.00000  Uiso   1.00
C235   C     0.20242   0.47288   0.45906   0.00000  Uiso   1.00
C236   C     0.22959   0.45819   0.47646   0.00000  Uiso   1.00
C237   C     0.28104   0.50678   0.24123   0.00000  Uiso   1.00
C238   C     0.22298   0.46594   0.01779   0.00000  Uiso   1.00
C239   C     0.18531   0.48471   0.04102   0.00000  Uiso   1.00
C240   C     0.25125   0.45419   0.03720   0.00000  Uiso   1.00
C241   C     0.23993   0.45782   0.07870   0.00000  Uiso   1.00
C242   C     0.17212   0.48168   0.08201   0.00000  Uiso   1.00
C243   C     0.32712   0.50822   0.23717   0.00000  Uiso   1.00
C244   C     0.00742   0.49150   0.26338   0.00000  Uiso   1.00
C245   C     0.08919   0.53293   0.42159   0.00000  Uiso   1.00
C246   C     0.18007   0.65546   0.23890   0.00000  Uiso   1.00
C247   C     0.15079   0.34612   0.26304   0.00000  Uiso   1.00
C248   C     0.15643   0.38967   0.25857   0.00000  Uiso   1.00
C249   C     0.17669   0.61101   0.24151   0.00000  Uiso   1.00
C250   C     0.18869   0.47855   0.14395   0.00000  Uiso   1.00
C251   C     0.14498   0.52081   0.35632   0.00000  Uiso   1.00
C252   C     0.13190   0.52610   0.40004   0.00000  Uiso   1.00
C253   C     0.19966   0.47049   0.10089   0.00000  Uiso   1.00
C254   C     0.07722   0.53780   0.46340   0.00000  Uiso   1.00
C255   C     0.16145   0.52144   0.42027   0.00000  Uiso   1.00
C256   C     0.14683   0.51698   0.46126   0.00000  Uiso   1.00
C257   C     0.10680   0.53111   0.48356   0.00000  Uiso   1.00
C258   C     0.17093   0.49895   0.48063   0.00000  Uiso   1.00
C259   C     0.16099   0.50422   0.02244   0.00000  Uiso   1.00
C260   C     0.12816   0.53000   0.04370   0.00000  Uiso   1.00
C261   C     0.09873   0.53978   0.02506   0.00000  Uiso   1.00
H262   H     0.20728   0.33586   0.21664   0.00000  Uiso   1.00
H263   H     0.11498   0.34599   0.32020   0.00000  Uiso   1.00
H264   H     0.08621   0.33702   0.28702   0.00000  Uiso   1.00
H265   H     0.25344   0.42461   0.11675   0.00000  Uiso   1.00
H266   H     0.27840   0.47396   0.11502   0.00000  Uiso   1.00
H267   H     0.28169   0.44991   0.42939   0.00000  Uiso   1.00
H268   H     0.24594   0.40697   0.43855   0.00000  Uiso   1.00
H269   H     0.02974   0.57593   0.47766   0.00000  Uiso   1.00
H270   H     0.01200   0.52428   0.47743   0.00000  Uiso   1.00
H271   H     0.04636   0.56422   0.40877   0.00000  Uiso   1.00
H272   H     0.03269   0.51188   0.40894   0.00000  Uiso   1.00
H273   H     0.14042   0.48810   0.10022   0.00000  Uiso   1.00
H274   H     0.09664   0.54216   0.10214   0.00000  Uiso   1.00
H275   H     0.13252   0.58184   0.08184   0.00000  Uiso   1.00
H276   H     0.20595   0.46285   0.42808   0.00000  Uiso   1.00
H277   H     0.04357   0.54281   0.07027   0.00000  Uiso   1.00
H278   H     0.07315   0.58964   0.06104   0.00000  Uiso   1.00
H279   H     0.01843   0.55830   0.20668   0.00000  Uiso   1.00
H280   H     0.01956   0.51208   0.17837   0.00000  Uiso   1.00
H281   H     0.31810   0.49044   0.32283   0.00000  Uiso   1.00
H282   H     0.31853   0.44312   0.29649   0.00000  Uiso   1.00
N283   N     0.06233   0.56103   0.04804   0.00000  Uiso   1.00
N284   N     0.02462   0.52741   0.20471   0.00000  Uiso   1.00
N285   N     0.31174   0.47367   0.29753   0.00000  Uiso   1.00
N286   N     0.11384   0.66345   0.29282   0.00000  Uiso   1.00
N287   N     0.26932   0.44744   0.09796   0.00000  Uiso   1.00
N288   N     0.26149   0.43267   0.45182   0.00000  Uiso   1.00
N289   N     0.03450   0.54750   0.48513   0.00000  Uiso   1.00
N290   N     0.05819   0.53520   0.40083   0.00000  Uiso   1.00
N291   N     0.12705   0.54958   0.08270   0.00000  Uiso   1.00
O292   O     0.16667   0.50000   0.25000   0.00000  Uiso   1.00
O293   O     0.15693   0.45726   0.16625   0.00000  Uiso   1.00
O294   O     0.12687   0.53979   0.33749   0.00000  Uiso   1.00
O295   O     0.21088   0.50826   0.15877   0.00000  Uiso   1.00
O296   O     0.17198   0.49468   0.33749   0.00000  Uiso   1.00
O297   O     0.17849   0.41434   0.27821   0.00000  Uiso   1.00
O298   O     0.14581   0.59469   0.26767   0.00000  Uiso   1.00
O299   O     0.07452   0.46584   0.23607   0.00000  Uiso   1.00
O300   O     0.26785   0.52512   0.21806   0.00000  Uiso   1.00
O301   O     0.06990   0.52293   0.27820   0.00000  Uiso   1.00
O302   O     0.25440   0.48610   0.26768   0.00000  Uiso   1.00
O303   O     0.13800   0.40236   0.23607   0.00000  Uiso   1.00
O304   O     0.20437   0.58860   0.21806   0.00000  Uiso   1.00
Zn305  Zn    0.19244   0.47423   0.28278   0.00000  Uiso   1.00
Zn306  Zn    0.13459   0.45711   0.22258   0.00000  Uiso   1.00
Zn307  Zn    0.21166   0.52997   0.21188   0.00000  Uiso   1.00
Zn308  Zn    0.12798   0.53868   0.28277   0.00000  Uiso   1.00
Br309  Br    0.64128   0.43746   0.00983   0.00000  Uiso   1.00
Br310  Br    0.55583   0.53406   0.39421   0.00000  Uiso   1.00
C311   C     0.38612   0.49356   0.25874   0.00000  Uiso   1.00
C312   C     0.53575   0.47288   0.45906   0.00000  Uiso   1.00
C313   C     0.56292   0.45819   0.47646   0.00000  Uiso   1.00
C314   C     0.61438   0.50678   0.24123   0.00000  Uiso   1.00
C315   C     0.55631   0.46594   0.01779   0.00000  Uiso   1.00
C316   C     0.51864   0.48471   0.04102   0.00000  Uiso   1.00
C317   C     0.58459   0.45419   0.03720   0.00000  Uiso   1.00
C318   C     0.57326   0.45782   0.07870   0.00000  Uiso   1.00
C319   C     0.50545   0.48168   0.08201   0.00000  Uiso   1.00
C320   C     0.66045   0.50822   0.23717   0.00000  Uiso   1.00
C321   C     0.34075   0.49150   0.26338   0.00000  Uiso   1.00
C322   C     0.42253   0.53293   0.42159   0.00000  Uiso   1.00
C323   C     0.51340   0.65546   0.23890   0.00000  Uiso   1.00
C324   C     0.48412   0.34612   0.26304   0.00000  Uiso   1.00
C325   C     0.48976   0.38967   0.25857   0.00000  Uiso   1.00
C326   C     0.51002   0.61101   0.24151   0.00000  Uiso   1.00
C327   C     0.52203   0.47855   0.14395   0.00000  Uiso   1.00
C328   C     0.47832   0.52081   0.35632   0.00000  Uiso   1.00
C329   C     0.46523   0.52610   0.40004   0.00000  Uiso   1.00
C330   C     0.53299   0.47049   0.10089   0.00000  Uiso   1.00
C331   C     0.41055   0.53780   0.46340   0.00000  Uiso   1.00
C332   C     0.49478   0.52144   0.42027   0.00000  Uiso   1.00
C333   C     0.48017   0.51698   0.46126   0.00000  Uiso   1.00
C334   C     0.44013   0.53111   0.48356   0.00000  Uiso   1.00
C335   C     0.50426   0.49895   0.48063   0.00000  Uiso   1.00
C336   C     0.49433   0.50422   0.02244   0.00000  Uiso   1.00
C337   C     0.46149   0.53000   0.04370   0.00000  Uiso   1.00
C338   C     0.43207   0.53978   0.02506   0.00000  Uiso   1.00
H339   H     0.54061   0.33586   0.21664   0.00000  Uiso   1.00
H340   H     0.44832   0.34599   0.32020   0.00000  Uiso   1.00
H341   H     0.41954   0.33702   0.28702   0.00000  Uiso   1.00
H342   H     0.58677   0.42461   0.11675   0.00000  Uiso   1.00
H343   H     0.61173   0.47396   0.11502   0.00000  Uiso   1.00
H344   H     0.61502   0.44991   0.42939   0.00000  Uiso   1.00
H345   H     0.57927   0.40697   0.43855   0.00000  Uiso   1.00
H346   H     0.36307   0.57593   0.47766   0.00000  Uiso   1.00
H347   H     0.34534   0.52428   0.47743   0.00000  Uiso   1.00
H348   H     0.37969   0.56422   0.40877   0.00000  Uiso   1.00
H349   H     0.36603   0.51188   0.40894   0.00000  Uiso   1.00
H350   H     0.47375   0.48810   0.10022   0.00000  Uiso   1.00
H351   H     0.42997   0.54216   0.10214   0.00000  Uiso   1.00
H352   H     0.46585   0.58184   0.08184   0.00000  Uiso   1.00
H353   H     0.53929   0.46285   0.42808   0.00000  Uiso   1.00
H354   H     0.37690   0.54281   0.07027   0.00000  Uiso   1.00
H355   H     0.40648   0.58964   0.06104   0.00000  Uiso   1.00
H356   H     0.35177   0.55830   0.20668   0.00000  Uiso   1.00
H357   H     0.35290   0.51208   0.17837   0.00000  Uiso   1.00
H358   H     0.65143   0.49044   0.32283   0.00000  Uiso   1.00
H359   H     0.65186   0.44312   0.29649   0.00000  Uiso   1.00
N360   N     0.39567   0.56103   0.04804   0.00000  Uiso   1.00
N361   N     0.35795   0.52741   0.20471   0.00000  Uiso   1.00
N362   N     0.64508   0.47367   0.29753   0.00000  Uiso   1.00
N363   N     0.44718   0.66345   0.29282   0.00000  Uiso   1.00
N364   N     0.60265   0.44744   0.09796   0.00000  Uiso   1.00
N365   N     0.59483   0.43267   0.45182   0.00000  Uiso   1.00
N366   N     0.36783   0.54750   0.48513   0.00000  Uiso   1.00
N367   N     0.39152   0.53520   0.40083   0.00000  Uiso   1.00
N368   N     0.46039   0.54958   0.08270   0.00000  Uiso   1.00
O369   O     0.50000   0.50000   0.25000   0.00000  Uiso   1.00
O370   O     0.49027   0.45726   0.16625   0.00000  Uiso   1.00
O371   O     0.46020   0.53979   0.33749   0.00000  Uiso   1.00
O372   O     0.54421   0.50826   0.15877   0.00000  Uiso   1.00
O373   O     0.50532   0.49468   0.33749   0.00000  Uiso   1.00
O374   O     0.51182   0.41434   0.27821   0.00000  Uiso   1.00
O375   O     0.47914   0.59469   0.26767   0.00000  Uiso   1.00
O376   O     0.40785   0.46584   0.23607   0.00000  Uiso   1.00
O377   O     0.60119   0.52512   0.21806   0.00000  Uiso   1.00
O378   O     0.40323   0.52293   0.27820   0.00000  Uiso   1.00
O379   O     0.58773   0.48610   0.26768   0.00000  Uiso   1.00
O380   O     0.47133   0.40236   0.23607   0.00000  Uiso   1.00
O381   O     0.53771   0.58860   0.21806   0.00000  Uiso   1.00
Zn382  Zn    0.52577   0.47423   0.28278   0.00000  Uiso   1.00
Zn383  Zn    0.46792   0.45711   0.22258   0.00000  Uiso   1.00
Zn384  Zn    0.54500   0.52997   0.21188   0.00000  Uiso   1.00
Zn385  Zn    0.46131   0.53868   0.28277   0.00000  Uiso   1.00
Br386  Br    0.97461   0.43746   0.00983   0.00000  Uiso   1.00
Br387  Br    0.88917   0.53406   0.39421   0.00000  Uiso   1.00
C388   C     0.71945   0.49356   0.25874   0.00000  Uiso   1.00
C389   C     0.86909   0.47288   0.45906   0.00000  Uiso   1.00
C390   C     0.89625   0.45819   0.47646   0.00000  Uiso   1.00
C391   C     0.94771   0.50678   0.24123   0.00000  Uiso   1.00
C392   C     0.88964   0.46594   0.01779   0.00000  Uiso   1.00
C393   C     0.85197   0.48471   0.04102   0.00000  Uiso   1.00
C394   C     0.91792   0.45419   0.03720   0.00000  Uiso   1.00
C395   C     0.90659   0.45782   0.07870   0.00000  Uiso   1.00
C396   C     0.83879   0.48168   0.08201   0.00000  Uiso   1.00
C397   C     0.99378   0.50822   0.23717   0.00000  Uiso   1.00
C398   C     0.67408   0.49150   0.26338   0.00000  Uiso   1.00
C399   C     0.75586   0.53293   0.42159   0.00000  Uiso   1.00
C400   C     0.84673   0.65546   0.23890   0.00000  Uiso   1.00
C401   C     0.81745   0.34612   0.26304   0.00000  Uiso   1.00
C402   C     0.82310   0.38967   0.25857   0.00000  Uiso   1.00
C403   C     0.84336   0.61101   0.24151   0.00000  Uiso   1.00
C404   C     0.85536   0.47855   0.14395   0.00000  Uiso   1.00
C405   C     0.81165   0.52081   0.35632   0.00000  Uiso   1.00
C406   C     0.79856   0.52610   0.40004   0.00000  Uiso   1.00
C407   C     0.86633   0.47049   0.10089   0.00000  Uiso   1.00
C408   C     0.74388   0.53780   0.46340   0.00000  Uiso   1.00
C409   C     0.82812   0.52144   0.42027   0.00000  Uiso   1.00
C410   C     0.81350   0.51698   0.46126   0.00000  Uiso   1.00
C411   C     0.77346   0.53111   0.48356   0.00000  Uiso   1.00
C412   C     0.83760   0.49895   0.48063   0.00000  Uiso   1.00
C413   C     0.82766   0.50422   0.02244   0.00000  Uiso   1.00
C414   C     0.79482   0.53000   0.04370   0.00000  Uiso   1.00
C415   C     0.76540   0.53978   0.02506   0.00000  Uiso   1.00
H416   H     0.87395   0.33586   0.21664   0.00000  Uiso   1.00
H417   H     0.78165   0.34599   0.32020   0.00000  Uiso   1.00
H418   H     0.75287   0.33702   0.28702   0.00000  Uiso   1.00
H419   H     0.92010   0.42461   0.11675   0.00000  Uiso   1.00
H420   H     0.94507   0.47396   0.11502   0.00000  Uiso   1.00
H421   H     0.94836   0.44991   0.42939   0.00000  Uiso   1.00
H422   H     0.91261   0.40697   0.43855   0.00000  Uiso   1.00
H423   H     0.69640   0.57593   0.47766   0.00000  Uiso   1.00
H424   H     0.67867   0.52428   0.47743   0.00000  Uiso   1.00
H425   H     0.71303   0.56422   0.40877   0.00000  Uiso   1.00
H426   H     0.69936   0.51188   0.40894   0.00000  Uiso   1.00
H427   H     0.80708   0.48810   0.10022   0.00000  Uiso   1.00
H428   H     0.76330   0.54216   0.10214   0.00000  Uiso   1.00
H429   H     0.79918   0.58184   0.08184   0.00000  Uiso   1.00
H430   H     0.87262   0.46285   0.42808   0.00000  Uiso   1.00
H431   H     0.71023   0.54281   0.07027   0.00000  Uiso   1.00
H432   H     0.73981   0.58964   0.06104   0.00000  Uiso   1.00
H433   H     0.68510   0.55830   0.20668   0.00000  Uiso   1.00
H434   H     0.68623   0.51208   0.17837   0.00000  Uiso   1.00
H435   H     0.98477   0.49044   0.32283   0.00000  Uiso   1.00
H436   H     0.98519   0.44312   0.29649   0.00000  Uiso   1.00
N437   N     0.72900   0.56103   0.04804   0.00000  Uiso   1.00
N438   N     0.69128   0.52741   0.20471   0.00000  Uiso   1.00
N439   N     0.97841   0.47367   0.29753   0.00000  Uiso   1.00
N440   N     0.78051   0.66345   0.29282   0.00000  Uiso   1.00
N441   N     0.93598   0.44744   0.09796   0.00000  Uiso   1.00
N442   N     0.92816   0.43267   0.45182   0.00000  Uiso   1.00
N443   N     0.70116   0.54750   0.48513   0.00000  Uiso   1.00
N444   N     0.72486   0.53520   0.40083   0.00000  Uiso   1.00
N445   N     0.79372   0.54958   0.08270   0.00000  Uiso   1.00
O446   O     0.83333   0.50000   0.25000   0.00000  Uiso   1.00
O447   O     0.82360   0.45726   0.16625   0.00000  Uiso   1.00
O448   O     0.79354   0.53979   0.33749   0.00000  Uiso   1.00
O449   O     0.87755   0.50826   0.15877   0.00000  Uiso   1.00
O450   O     0.83865   0.49468   0.33749   0.00000  Uiso   1.00
O451   O     0.84515   0.41434   0.27821   0.00000  Uiso   1.00
O452   O     0.81247   0.59469   0.26767   0.00000  Uiso   1.00
O453   O     0.74119   0.46584   0.23607   0.00000  Uiso   1.00
O454   O     0.93452   0.52512   0.21806   0.00000  Uiso   1.00
O455   O     0.73656   0.52293   0.27820   0.00000  Uiso   1.00
O456   O     0.92106   0.48610   0.26768   0.00000  Uiso   1.00
O457   O     0.80467   0.40236   0.23607   0.00000  Uiso   1.00
O458   O     0.87104   0.58860   0.21806   0.00000  Uiso   1.00
Zn459  Zn    0.85910   0.47423   0.28278   0.00000  Uiso   1.00
Zn460  Zn    0.80125   0.45711   0.22258   0.00000  Uiso   1.00
Zn461  Zn    0.87833   0.52997   0.21188   0.00000  Uiso   1.00
Zn462  Zn    0.79465   0.53868   0.28277   0.00000  Uiso   1.00
Br463  Br    0.30795   0.77079   0.00983   0.00000  Uiso   1.00
Br464  Br    0.22250   0.86739   0.39421   0.00000  Uiso   1.00
C465   C     0.05279   0.82690   0.25874   0.00000  Uiso   1.00
C466   C     0.20242   0.80621   0.45906   0.00000  Uiso   1.00
C467   C     0.22959   0.79152   0.47646   0.00000  Uiso   1.00
C468   C     0.28104   0.84012   0.24123   0.00000  Uiso   1.00
C469   C     0.22298   0.79927   0.01779   0.00000  Uiso   1.00
C470   C     0.18531   0.81805   0.04102   0.00000  Uiso   1.00
C471   C     0.25125   0.78753   0.03720   0.00000  Uiso   1.00
C472   C     0.23993   0.79115   0.07870   0.00000  Uiso   1.00
C473   C     0.17212   0.81501   0.08201   0.00000  Uiso   1.00
C474   C     0.32712   0.84155   0.23717   0.00000  Uiso   1.00
C475   C     0.00742   0.82484   0.26338   0.00000  Uiso   1.00
C476   C     0.08919   0.86627   0.42159   0.00000  Uiso   1.00
C477   C     0.18007   0.98880   0.23890   0.00000  Uiso   1.00
C478   C     0.15079   0.67945   0.26304   0.00000  Uiso   1.00
C479   C     0.15643   0.72300   0.25857   0.00000  Uiso   1.00
C480   C     0.17669   0.94435   0.24151   0.00000  Uiso   1.00
C481   C     0.18869   0.81189   0.14395   0.00000  Uiso   1.00
C482   C     0.14498   0.85414   0.35632   0.00000  Uiso   1.00
C483   C     0.13190   0.85943   0.40004   0.00000  Uiso   1.00
C484   C     0.19966   0.80382   0.10089   0.00000  Uiso   1.00
C485   C     0.07722   0.87113   0.46340   0.00000  Uiso   1.00
C486   C     0.16145   0.85478   0.42027   0.00000  Uiso   1.00
C487   C     0.14683   0.85031   0.46126   0.00000  Uiso   1.00
C488   C     0.10680   0.86445   0.48356   0.00000  Uiso   1.00
C489   C     0.17093   0.83229   0.48063   0.00000  Uiso   1.00
C490   C     0.16099   0.83756   0.02244   0.00000  Uiso   1.00
C491   C     0.12816   0.86333   0.04370   0.00000  Uiso   1.00
C492   C     0.09873   0.87312   0.02506   0.00000  Uiso   1.00
H493   H     0.20728   0.66919   0.21664   0.00000  Uiso   1.00
H494   H     0.11498   0.67932   0.32020   0.00000  Uiso   1.00
H495   H     0.08621   0.67035   0.28702   0.00000  Uiso   1.00
H496   H     0.25344   0.75794   0.11675   0.00000  Uiso   1.00
H497   H     0.27840   0.80730   0.11502   0.00000  Uiso   1.00
H498   H     0.28169   0.78324   0.42939   0.00000  Uiso   1.00
H499   H     0.24594   0.74030   0.43855   0.00000  Uiso   1.00
H500   H     0.02974   0.90927   0.47766   0.00000  Uiso   1.00
H501   H     0.01200   0.85761   0.47743   0.00000  Uiso   1.00
H502   H     0.04636   0.89755   0.40877   0.00000  Uiso   1.00
H503   H     0.03269   0.84521   0.40894   0.00000  Uiso   1.00
H504   H     0.14042   0.82143   0.10022   0.00000  Uiso   1.00
H505   H     0.09664   0.87550   0.10214   0.00000  Uiso   1.00
H506   H     0.13252   0.91517   0.08184   0.00000  Uiso   1.00
H507   H     0.20595   0.79618   0.42808   0.00000  Uiso   1.00
H508   H     0.04357   0.87615   0.07027   0.00000  Uiso   1.00
H509   H     0.07315   0.92298   0.06104   0.00000  Uiso   1.00
H510   H     0.01843   0.89163   0.20668   0.00000  Uiso   1.00
H511   H     0.01956   0.84541   0.17837   0.00000  Uiso   1.00
H512   H     0.31810   0.82378   0.32283   0.00000  Uiso   1.00
H513   H     0.31853   0.77646   0.29649   0.00000  Uiso   1.00
N514   N     0.06233   0.89437   0.04804   0.00000  Uiso   1.00
N515   N     0.02462   0.86074   0.20471   0.00000  Uiso   1.00
N516   N     0.31174   0.80700   0.29753   0.00000  Uiso   1.00
N517   N     0.11384   0.99678   0.29282   0.00000  Uiso   1.00
N518   N     0.26932   0.78077   0.09796   0.00000  Uiso   1.00
N519   N     0.26149   0.76600   0.45182   0.00000  Uiso   1.00
N520   N     0.03450   0.88083   0.48513   0.00000  Uiso   1.00
N521   N     0.05819   0.86853   0.40083   0.00000  Uiso   1.00
N522   N     0.12705   0.88291   0.08270   0.00000  Uiso   1.00
O523   O     0.16667   0.83333   0.25000   0.00000  Uiso   1.00
O524   O     0.15693   0.79060   0.16625   0.00000  Uiso   1.00
O525   O     0.12687   0.87313   0.33749   0.00000  Uiso   1.00
O526   O     0.21088   0.84159   0.15877   0.00000  Uiso   1.00
O527   O     0.17198   0.82802   0.33749   0.00000  Uiso   1.00
O528   O     0.17849   0.74768   0.27821   0.00000  Uiso   1.00
O529   O     0.14581   0.92803   0.26767   0.00000  Uiso   1.00
O530   O     0.07452   0.79917   0.23607   0.00000  Uiso   1.00
O531   O     0.26785   0.85845   0.21806   0.00000  Uiso   1.00
O532   O     0.06990   0.85627   0.27820   0.00000  Uiso   1.00
O533   O     0.25440   0.81944   0.26768   0.00000  Uiso   1.00
O534   O     0.13800   0.73570   0.23607   0.00000  Uiso   1.00
O535   O     0.20437   0.92193   0.21806   0.00000  Uiso   1.00
Zn536  Zn    0.19244   0.80756   0.28278   0.00000  Uiso   1.00
Zn537  Zn    0.13459   0.79044   0.22258   0.00000  Uiso   1.00
Zn538  Zn    0.21166   0.86331   0.21188   0.00000  Uiso   1.00
Zn539  Zn    0.12798   0.87202   0.28277   0.00000  Uiso   1.00
Br540  Br    0.64128   0.77079   0.00983   0.00000  Uiso   1.00
Br541  Br    0.55583   0.86739   0.39421   0.00000  Uiso   1.00
C542   C     0.38612   0.82690   0.25874   0.00000  Uiso   1.00
C543   C     0.53575   0.80621   0.45906   0.00000  Uiso   1.00
C544   C     0.56292   0.79152   0.47646   0.00000  Uiso   1.00
C545   C     0.61438   0.84012   0.24123   0.00000  Uiso   1.00
C546   C     0.55631   0.79927   0.01779   0.00000  Uiso   1.00
C547   C     0.51864   0.81805   0.04102   0.00000  Uiso   1.00
C548   C     0.58459   0.78753   0.03720   0.00000  Uiso   1.00
C549   C     0.57326   0.79115   0.07870   0.00000  Uiso   1.00
C550   C     0.50545   0.81501   0.08201   0.00000  Uiso   1.00
C551   C     0.66045   0.84155   0.23717   0.00000  Uiso   1.00
C552   C     0.34075   0.82484   0.26338   0.00000  Uiso   1.00
C553   C     0.42253   0.86627   0.42159   0.00000  Uiso   1.00
C554   C     0.51340   0.98880   0.23890   0.00000  Uiso   1.00
C555   C     0.48412   0.67945   0.26304   0.00000  Uiso   1.00
C556   C     0.48976   0.72300   0.25857   0.00000  Uiso   1.00
C557   C     0.51002   0.94435   0.24151   0.00000  Uiso   1.00
C558   C     0.52203   0.81189   0.14395   0.00000  Uiso   1.00
C559   C     0.47832   0.85414   0.35632   0.00000  Uiso   1.00
C560   C     0.46523   0.85943   0.40004   0.00000  Uiso   1.00
C561   C     0.53299   0.80382   0.10089   0.00000  Uiso   1.00
C562   C     0.41055   0.87113   0.46340   0.00000  Uiso   1.00
C563   C     0.49478   0.85478   0.42027   0.00000  Uiso   1.00
C564   C     0.48017   0.85031   0.46126   0.00000  Uiso   1.00
C565   C     0.44013   0.86445   0.48356   0.00000  Uiso   1.00
C566   C     0.50426   0.83229   0.48063   0.00000  Uiso   1.00
C567   C     0.49433   0.83756   0.02244   0.00000  Uiso   1.00
C568   C     0.46149   0.86333   0.04370   0.00000  Uiso   1.00
C569   C     0.43207   0.87312   0.02506   0.00000  Uiso   1.00
H570   H     0.54061   0.66919   0.21664   0.00000  Uiso   1.00
H571   H     0.44832   0.67932   0.32020   0.00000  Uiso   1.00
H572   H     0.41954   0.67035   0.28702   0.00000  Uiso   1.00
H573   H     0.58677   0.75794   0.11675   0.00000  Uiso   1.00
H574   H     0.61173   0.80730   0.11502   0.00000  Uiso   1.00
H575   H     0.61502   0.78324   0.42939   0.00000  Uiso   1.00
H576   H     0.57927   0.74030   0.43855   0.00000  Uiso   1.00
H577   H     0.36307   0.90927   0.47766   0.00000  Uiso   1.00
H578   H     0.34534   0.85761   0.47743   0.00000  Uiso   1.00
H579   H     0.37969   0.89755   0.40877   0.00000  Uiso   1.00
H580   H     0.36603   0.84521   0.40894   0.00000  Uiso   1.00
H581   H     0.47375   0.82143   0.10022   0.00000  Uiso   1.00
H582   H     0.42997   0.87550   0.10214   0.00000  Uiso   1.00
H583   H     0.46585   0.91517   0.08184   0.00000  Uiso   1.00
H584   H     0.53929   0.79618   0.42808   0.00000  Uiso   1.00
H585   H     0.37690   0.87615   0.07027   0.00000  Uiso   1.00
H586   H     0.40648   0.92298   0.06104   0.00000  Uiso   1.00
H587   H     0.35177   0.89163   0.20668   0.00000  Uiso   1.00
H588   H     0.35290   0.84541   0.17837   0.00000  Uiso   1.00
H589   H     0.65143   0.82378   0.32283   0.00000  Uiso   1.00
H590   H     0.65186   0.77646   0.29649   0.00000  Uiso   1.00
N591   N     0.39567   0.89437   0.04804   0.00000  Uiso   1.00
N592   N     0.35795   0.86074   0.20471   0.00000  Uiso   1.00
N593   N     0.64508   0.80700   0.29753   0.00000  Uiso   1.00
N594   N     0.44718   0.99678   0.29282   0.00000  Uiso   1.00
N595   N     0.60265   0.78077   0.09796   0.00000  Uiso   1.00
N596   N     0.59483   0.76600   0.45182   0.00000  Uiso   1.00
N597   N     0.36783   0.88083   0.48513   0.00000  Uiso   1.00
N598   N     0.39152   0.86853   0.40083   0.00000  Uiso   1.00
N599   N     0.46039   0.88291   0.08270   0.00000  Uiso   1.00
O600   O     0.50000   0.83333   0.25000   0.00000  Uiso   1.00
O601   O     0.49027   0.79060   0.16625   0.00000  Uiso   1.00
O602   O     0.46020   0.87313   0.33749   0.00000  Uiso   1.00
O603   O     0.54421   0.84159   0.15877   0.00000  Uiso   1.00
O604   O     0.50532   0.82802   0.33749   0.00000  Uiso   1.00
O605   O     0.51182   0.74768   0.27821   0.00000  Uiso   1.00
O606   O     0.47914   0.92803   0.26767   0.00000  Uiso   1.00
O607   O     0.40785   0.79917   0.23607   0.00000  Uiso   1.00
O608   O     0.60119   0.85845   0.21806   0.00000  Uiso   1.00
O609   O     0.40323   0.85627   0.27820   0.00000  Uiso   1.00
O610   O     0.58773   0.81944   0.26768   0.00000  Uiso   1.00
O611   O     0.47133   0.73570   0.23607   0.00000  Uiso   1.00
O612   O     0.53771   0.92193   0.21806   0.00000  Uiso   1.00
Zn613  Zn    0.52577   0.80756   0.28278   0.00000  Uiso   1.00
Zn614  Zn    0.46792   0.79044   0.22258   0.00000  Uiso   1.00
Zn615  Zn    0.54500   0.86331   0.21188   0.00000  Uiso   1.00
Zn616  Zn    0.46131   0.87202   0.28277   0.00000  Uiso   1.00
Br617  Br    0.97461   0.77079   0.00983   0.00000  Uiso   1.00
Br618  Br    0.88917   0.86739   0.39421   0.00000  Uiso   1.00
C619   C     0.71945   0.82690   0.25874   0.00000  Uiso   1.00
C620   C     0.86909   0.80621   0.45906   0.00000  Uiso   1.00
C621   C     0.89625   0.79152   0.47646   0.00000  Uiso   1.00
C622   C     0.94771   0.84012   0.24123   0.00000  Uiso   1.00
C623   C     0.88964   0.79927   0.01779   0.00000  Uiso   1.00
C624   C     0.85197   0.81805   0.04102   0.00000  Uiso   1.00
C625   C     0.91792   0.78753   0.03720   0.00000  Uiso   1.00
C626   C     0.90659   0.79115   0.07870   0.00000  Uiso   1.00
C627   C     0.83879   0.81501   0.08201   0.00000  Uiso   1.00
C628   C     0.99378   0.84155   0.23717   0.00000  Uiso   1.00
C629   C     0.67408   0.82484   0.26338   0.00000  Uiso   1.00
C630   C     0.75586   0.86627   0.42159   0.00000  Uiso   1.00
C631   C     0.84673   0.98880   0.23890   0.00000  Uiso   1.00
C632   C     0.81745   0.67945   0.26304   0.00000  Uiso   1.00
C633   C     0.82310   0.72300   0.25857   0.00000  Uiso   1.00
C634   C     0.84336   0.94435   0.24151   0.00000  Uiso   1.00
C635   C     0.85536   0.81189   0.14395   0.00000  Uiso   1.00
C636   C     0.81165   0.85414   0.35632   0.00000  Uiso   1.00
C637   C     0.79856   0.85943   0.40004   0.00000  Uiso   1.00
C638   C     0.86633   0.80382   0.10089   0.00000  Uiso   1.00
C639   C     0.74388   0.87113   0.46340   0.00000  Uiso   1.00
C640   C     0.82812   0.85478   0.42027   0.00000  Uiso   1.00
C641   C     0.81350   0.85031   0.46126   0.00000  Uiso   1.00
C642   C     0.77346   0.86445   0.48356   0.00000  Uiso   1.00
C643   C     0.83760   0.83229   0.48063   0.00000  Uiso   1.00
C644   C     0.82766   0.83756   0.02244   0.00000  Uiso   1.00
C645   C     0.79482   0.86333   0.04370   0.00000  Uiso   1.00
C646   C     0.76540   0.87312   0.02506   0.00000  Uiso   1.00
H647   H     0.87395   0.66919   0.21664   0.00000  Uiso   1.00
H648   H     0.78165   0.67932   0.32020   0.00000  Uiso   1.00
H649   H     0.75287   0.67035   0.28702   0.00000  Uiso   1.00
H650   H     0.92010   0.75794   0.11675   0.00000  Uiso   1.00
H651   H     0.94507   0.80730   0.11502   0.00000  Uiso   1.00
H652   H     0.94836   0.78324   0.42939   0.00000  Uiso   1.00
H653   H     0.91261   0.74030   0.43855   0.00000  Uiso   1.00
H654   H     0.69640   0.90927   0.47766   0.00000  Uiso   1.00
H655   H     0.67867   0.85761   0.47743   0.00000  Uiso   1.00
H656   H     0.71303   0.89755   0.40877   0.00000  Uiso   1.00
H657   H     0.69936   0.84521   0.40894   0.00000  Uiso   1.00
H658   H     0.80708   0.82143   0.10022   0.00000  Uiso   1.00
H659   H     0.76330   0.87550   0.10214   0.00000  Uiso   1.00
H660   H     0.79918   0.91517   0.08184   0.00000  Uiso   1.00
H661   H     0.87262   0.79618   0.42808   0.00000  Uiso   1.00
H662   H     0.71023   0.87615   0.07027   0.00000  Uiso   1.00
H663   H     0.73981   0.92298   0.06104   0.00000  Uiso   1.00
H664   H     0.68510   0.89163   0.20668   0.00000  Uiso   1.00
H665   H     0.68623   0.84541   0.17837   0.00000  Uiso   1.00
H666   H     0.98477   0.82378   0.32283   0.00000  Uiso   1.00
H667   H     0.98519   0.77646   0.29649   0.00000  Uiso   1.00
N668   N     0.72900   0.89437   0.04804   0.00000  Uiso   1.00
N669   N     0.69128   0.86074   0.20471   0.00000  Uiso   1.00
N670   N     0.97841   0.80700   0.29753   0.00000  Uiso   1.00
N671   N     0.78051   0.99678   0.29282   0.00000  Uiso   1.00
N672   N     0.93598   0.78077   0.09796   0.00000  Uiso   1.00
N673   N     0.92816   0.76600   0.45182   0.00000  Uiso   1.00
N674   N     0.70116   0.88083   0.48513   0.00000  Uiso   1.00
N675   N     0.72486   0.86853   0.40083   0.00000  Uiso   1.00
N676   N     0.79372   0.88291   0.08270   0.00000  Uiso   1.00
O677   O     0.83333   0.83333   0.25000   0.00000  Uiso   1.00
O678   O     0.82360   0.79060   0.16625   0.00000  Uiso   1.00
O679   O     0.79354   0.87313   0.33749   0.00000  Uiso   1.00
O680   O     0.87755   0.84159   0.15877   0.00000  Uiso   1.00
O681   O     0.83865   0.82802   0.33749   0.00000  Uiso   1.00
O682   O     0.84515   0.74768   0.27821   0.00000  Uiso   1.00
O683   O     0.81247   0.92803   0.26767   0.00000  Uiso   1.00
O684   O     0.74119   0.79917   0.23607   0.00000  Uiso   1.00
O685   O     0.93452   0.85845   0.21806   0.00000  Uiso   1.00
O686   O     0.73656   0.85627   0.27820   0.00000  Uiso   1.00
O687   O     0.92106   0.81944   0.26768   0.00000  Uiso   1.00
O688   O     0.80467   0.73570   0.23607   0.00000  Uiso   1.00
O689   O     0.87104   0.92193   0.21806   0.00000  Uiso   1.00
Zn690  Zn    0.85910   0.80756   0.28278   0.00000  Uiso   1.00
Zn691  Zn    0.80125   0.79044   0.22258   0.00000  Uiso   1.00
Zn692  Zn    0.87833   0.86331   0.21188   0.00000  Uiso   1.00
Zn693  Zn    0.79465   0.87202   0.28277   0.00000  Uiso   1.00
Br694  Br    0.30795   0.10412   0.50983   0.00000  Uiso   1.00
Br695  Br    0.22250   0.20073   0.89421   0.00000  Uiso   1.00
C696   C     0.05279   0.16023   0.75874   0.00000  Uiso   1.00
C697   C     0.20242   0.13955   0.95906   0.00000  Uiso   1.00
C698   C     0.22959   0.12486   0.97646   0.00000  Uiso   1.00
C699   C     0.28104   0.17345   0.74123   0.00000  Uiso   1.00
C700   C     0.22298   0.13261   0.51779   0.00000  Uiso   1.00
C701   C     0.18531   0.15138   0.54102   0.00000  Uiso   1.00
C702   C     0.25125   0.12086   0.53720   0.00000  Uiso   1.00
C703   C     0.23993   0.12448   0.57870   0.00000  Uiso   1.00
C704   C     0.17212   0.14834   0.58201   0.00000  Uiso   1.00
C705   C     0.32712   0.17488   0.73717   0.00000  Uiso   1.00
C706   C     0.00742   0.15817   0.76338   0.00000  Uiso   1.00
C707   C     0.08919   0.19960   0.92159   0.00000  Uiso   1.00
C708   C     0.18007   0.32213   0.73890   0.00000  Uiso   1.00
C709   C     0.15079   0.01278   0.76304   0.00000  Uiso   1.00
C710   C     0.15643   0.05633   0.75857   0.00000  Uiso   1.00
C711   C     0.17669   0.27768   0.74151   0.00000  Uiso   1.00
C712   C     0.18869   0.14522   0.64395   0.00000  Uiso   1.00
C713   C     0.14498   0.18748   0.85632   0.00000  Uiso   1.00
C714   C     0.13190   0.19276   0.90004   0.00000  Uiso   1.00
C715   C     0.19966   0.13716   0.60089   0.00000  Uiso   1.00
C716   C     0.07722   0.20447   0.96340   0.00000  Uiso   1.00
C717   C     0.16145   0.18811   0.92027   0.00000  Uiso   1.00
C718   C     0.14683   0.18364   0.96126   0.00000  Uiso   1.00
C719   C     0.10680   0.19778   0.98356   0.00000  Uiso   1.00
C720   C     0.17093   0.16562   0.98063   0.00000  Uiso   1.00
C721   C     0.16099   0.17089   0.52244   0.00000  Uiso   1.00
C722   C     0.12816   0.19667   0.54370   0.00000  Uiso   1.00
C723   C     0.09873   0.20645   0.52506   0.00000  Uiso   1.00
H724   H     0.20728   0.00253   0.71664   0.00000  Uiso   1.00
H725   H     0.11498   0.01266   0.82020   0.00000  Uiso   1.00
H726   H     0.08621   0.00368   0.78702   0.00000  Uiso   1.00
H727   H     0.25344   0.09127   0.61675   0.00000  Uiso   1.00
H728   H     0.27840   0.14063   0.61502   0.00000  Uiso   1.00
H729   H     0.28169   0.11658   0.92939   0.00000  Uiso   1.00
H730   H     0.24594   0.07364   0.93855   0.00000  Uiso   1.00
H731   H     0.02974   0.24260   0.97766   0.00000  Uiso   1.00
H732   H     0.01200   0.19095   0.97743   0.00000  Uiso   1.00
H733   H     0.04636   0.23088   0.90877   0.00000  Uiso   1.00
H734   H     0.03269   0.17855   0.90894   0.00000  Uiso   1.00
H735   H     0.14042   0.15476   0.60022   0.00000  Uiso   1.00
H736   H     0.09664   0.20883   0.60214   0.00000  Uiso   1.00
H737   H     0.13252   0.24850   0.58184   0.00000  Uiso   1.00
H738   H     0.20595   0.12952   0.92808   0.00000  Uiso   1.00
H739   H     0.04357   0.20948   0.57027   0.00000  Uiso   1.00
H740   H     0.07315   0.25631   0.56104   0.00000  Uiso   1.00
H741   H     0.01843   0.22497   0.70668   0.00000  Uiso   1.00
H742   H     0.01956   0.17875   0.67837   0.00000  Uiso   1.00
H743   H     0.31810   0.15711   0.82283   0.00000  Uiso   1.00
H744   H     0.31853   0.10979   0.79649   0.00000  Uiso   1.00
N745   N     0.06233   0.22770   0.54804   0.00000  Uiso   1.00
N746   N     0.02462   0.19408   0.70471   0.00000  Uiso   1.00
N747   N     0.31174   0.14034   0.79753   0.00000  Uiso   1.00
N748   N     0.11384   0.33011   0.79282   0.00000  Uiso   1.00
N749   N     0.26932   0.11410   0.59796   0.00000  Uiso   1.00
N750   N     0.26149   0.09933   0.95182   0.00000  Uiso   1.00
N751   N     0.03450   0.21417   0.98513   0.00000  Uiso   1.00
N752   N     0.05819   0.20186   0.90083   0.00000  Uiso   1.00
N753   N     0.12705   0.21625   0.58270   0.00000  Uiso   1.00
O754   O     0.16667   0.16667   0.75000   0.00000  Uiso   1.00
O755   O     0.15693   0.12393   0.66625   0.00000  Uiso   1.00
O756   O     0.12687   0.20646   0.83749   0.00000  Uiso   1.00
O757   O     0.21088   0.17493   0.65877   0.00000  Uiso   1.00
O758   O     0.17198   0.16135   0.83749   0.00000  Uiso   1.00
O759   O     0.17849   0.08101   0.77821   0.00000  Uiso   1.00
O760   O     0.14581   0.26136   0.76767   0.00000  Uiso   1.00
O761   O     0.07452   0.13251   0.73607   0.00000  Uiso   1.00
O762   O     0.26785   0.19179   0.71806   0.00000  Uiso   1.00
O763   O     0.06990   0.18960   0.77820   0.00000  Uiso   1.00
O764   O     0.25440   0.15277   0.76768   0.00000  Uiso   1.00
O765   O     0.13800   0.06903   0.73607   0.00000  Uiso   1.00
O766   O     0.20437   0.25527   0.71806   0.00000  Uiso   1.00
Zn767  Zn    0.19244   0.14090   0.78278   0.00000  Uiso   1.00
Zn768  Zn    0.13459   0.12378   0.72258   0.00000  Uiso   1.00
Zn769  Zn    0.21166   0.19664   0.71188   0.00000  Uiso   1.00
Zn770  Zn    0.12798   0.20535   0.78277   0.00000  Uiso   1.00
Br771  Br    0.64128   0.10412   0.50983   0.00000  Uiso   1.00
Br772  Br    0.55583   0.20073   0.89421   0.00000  Uiso   1.00
C773   C     0.38612   0.16023   0.75874   0.00000  Uiso   1.00
C774   C     0.53575   0.13955   0.95906   0.00000  Uiso   1.00
C775   C     0.56292   0.12486   0.97646   0.00000  Uiso   1.00
C776   C     0.61438   0.17345   0.74123   0.00000  Uiso   1.00
C777   C     0.55631   0.13261   0.51779   0.00000  Uiso   1.00
C778   C     0.51864   0.15138   0.54102   0.00000  Uiso   1.00
C779   C     0.58459   0.12086   0.53720   0.00000  Uiso   1.00
C780   C     0.57326   0.12448   0.57870   0.00000  Uiso   1.00
C781   C     0.50545   0.14834   0.58201   0.00000  Uiso   1.00
C782   C     0.66045   0.17488   0.73717   0.00000  Uiso   1.00
C783   C     0.34075   0.15817   0.76338   0.00000  Uiso   1.00
C784   C     0.42253   0.19960   0.92159   0.00000  Uiso   1.00
C785   C     0.51340   0.32213   0.73890   0.00000  Uiso   1.00
C786   C     0.48412   0.01278   0.76304   0.00000  Uiso   1.00
C787   C     0.48976   0.05633   0.75857   0.00000  Uiso   1.00
C788   C     0.51002   0.27768   0.74151   0.00000  Uiso   1.00
C789   C     0.52203   0.14522   0.64395   0.00000  Uiso   1.00
C790   C     0.47832   0.18748   0.85632   0.00000  Uiso   1.00
C791   C     0.46523   0.19276   0.90004   0.00000  Uiso   1.00
C792   C     0.53299   0.13716   0.60089   0.00000  Uiso   1.00
C793   C     0.41055   0.20447   0.96340   0.00000  Uiso   1.00
C794   C     0.49478   0.18811   0.92027   0.00000  Uiso   1.00
C795   C     0.48017   0.18364   0.96126   0.00000  Uiso   1.00
C796   C     0.44013   0.19778   0.98356   0.00000  Uiso   1.00
C797   C     0.50426   0.16562   0.98063   0.00000  Uiso   1.00
C798   C     0.49433   0.17089   0.52244   0.00000  Uiso   1.00
C799   C     0.46149   0.19667   0.54370   0.00000  Uiso   1.00
C800   C     0.43207   0.20645   0.52506   0.00000  Uiso   1.00
H801   H     0.54061   0.00253   0.71664   0.00000  Uiso   1.00
H802   H     0.44832   0.01266   0.82020   0.00000  Uiso   1.00
H803   H     0.41954   0.00368   0.78702   0.00000  Uiso   1.00
H804   H     0.58677   0.09127   0.61675   0.00000  Uiso   1.00
H805   H     0.61173   0.14063   0.61502   0.00000  Uiso   1.00
H806   H     0.61502   0.11658   0.92939   0.00000  Uiso   1.00
H807   H     0.57927   0.07364   0.93855   0.00000  Uiso   1.00
H808   H     0.36307   0.24260   0.97766   0.00000  Uiso   1.00
H809   H     0.34534   0.19095   0.97743   0.00000  Uiso   1.00
H810   H     0.37969   0.23088   0.90877   0.00000  Uiso   1.00
H811   H     0.36603   0.17855   0.90894   0.00000  Uiso   1.00
H812   H     0.47375   0.15476   0.60022   0.00000  Uiso   1.00
H813   H     0.42997   0.20883   0.60214   0.00000  Uiso   1.00
H814   H     0.46585   0.24850   0.58184   0.00000  Uiso   1.00
H815   H     0.53929   0.12952   0.92808   0.00000  Uiso   1.00
H816   H     0.37690   0.20948   0.57027   0.00000  Uiso   1.00
H817   H     0.40648   0.25631   0.56104   0.00000  Uiso   1.00
H818   H     0.35177   0.22497   0.70668   0.00000  Uiso   1.00
H819   H     0.35290   0.17875   0.67837   0.00000  Uiso   1.00
H820   H     0.65143   0.15711   0.82283   0.00000  Uiso   1.00
H821   H     0.65186   0.10979   0.79649   0.00000  Uiso   1.00
N822   N     0.39567   0.22770   0.54804   0.00000  Uiso   1.00
N823   N     0.35795   0.19408   0.70471   0.00000  Uiso   1.00
N824   N     0.64508   0.14034   0.79753   0.00000  Uiso   1.00
N825   N     0.44718   0.33011   0.79282   0.00000  Uiso   1.00
N826   N     0.60265   0.11410   0.59796   0.00000  Uiso   1.00
N827   N     0.59483   0.09933   0.95182   0.00000  Uiso   1.00
N828   N     0.36783   0.21417   0.98513   0.00000  Uiso   1.00
N829   N     0.39152   0.20186   0.90083   0.00000  Uiso   1.00
N830   N     0.46039   0.21625   0.58270   0.00000  Uiso   1.00
O831   O     0.50000   0.16667   0.75000   0.00000  Uiso   1.00
O832   O     0.49027   0.12393   0.66625   0.00000  Uiso   1.00
O833   O     0.46020   0.20646   0.83749   0.00000  Uiso   1.00
O834   O     0.54421   0.17493   0.65877   0.00000  Uiso   1.00
O835   O     0.50532   0.16135   0.83749   0.00000  Uiso   1.00
O836   O     0.51182   0.08101   0.77821   0.00000  Uiso   1.00
O837   O     0.47914   0.26136   0.76767   0.00000  Uiso   1.00
O838   O     0.40785   0.13251   0.73607   0.00000  Uiso   1.00
O839   O     0.60119   0.19179   0.71806   0.00000  Uiso   1.00
O840   O     0.40323   0.18960   0.77820   0.00000  Uiso   1.00
O841   O     0.58773   0.15277   0.76768   0.00000  Uiso   1.00
O842   O     0.47133   0.06903   0.73607   0.00000  Uiso   1.00
O843   O     0.53771   0.25527   0.71806   0.00000  Uiso   1.00
Zn844  Zn    0.52577   0.14090   0.78278   0.00000  Uiso   1.00
Zn845  Zn    0.46792   0.12378   0.72258   0.00000  Uiso   1.00
Zn846  Zn    0.54500   0.19664   0.71188   0.00000  Uiso   1.00
Zn847  Zn    0.46131   0.20535   0.78277   0.00000  Uiso   1.00
Br848  Br    0.97461   0.10412   0.50983   0.00000  Uiso   1.00
Br849  Br    0.88917   0.20073   0.89421   0.00000  Uiso   1.00
C850   C     0.71945   0.16023   0.75874   0.00000  Uiso   1.00
C851   C     0.86909   0.13955   0.95906   0.00000  Uiso   1.00
C852   C     0.89625   0.12486   0.97646   0.00000  Uiso   1.00
C853   C     0.94771   0.17345   0.74123   0.00000  Uiso   1.00
C854   C     0.88964   0.13261   0.51779   0.00000  Uiso   1.00
C855   C     0.85197   0.15138   0.54102   0.00000  Uiso   1.00
C856   C     0.91792   0.12086   0.53720   0.00000  Uiso   1.00
C857   C     0.90659   0.12448   0.57870   0.00000  Uiso   1.00
C858   C     0.83879   0.14834   0.58201   0.00000  Uiso   1.00
C859   C     0.99378   0.17488   0.73717   0.00000  Uiso   1.00
C860   C     0.67408   0.15817   0.76338   0.00000  Uiso   1.00
C861   C     0.75586   0.19960   0.92159   0.00000  Uiso   1.00
C862   C     0.84673   0.32213   0.73890   0.00000  Uiso   1.00
C863   C     0.81745   0.01278   0.76304   0.00000  Uiso   1.00
C864   C     0.82310   0.05633   0.75857   0.00000  Uiso   1.00
C865   C     0.84336   0.27768   0.74151   0.00000  Uiso   1.00
C866   C     0.85536   0.14522   0.64395   0.00000  Uiso   1.00
C867   C     0.81165   0.18748   0.85632   0.00000  Uiso   1.00
C868   C     0.79856   0.19276   0.90004   0.00000  Uiso   1.00
C869   C     0.86633   0.13716   0.60089   0.00000  Uiso   1.00
C870   C     0.74388   0.20447   0.96340   0.00000  Uiso   1.00
C871   C     0.82812   0.18811   0.92027   0.00000  Uiso   1.00
C872   C     0.81350   0.18364   0.96126   0.00000  Uiso   1.00
C873   C     0.77346   0.19778   0.98356   0.00000  Uiso   1.00
C874   C     0.83760   0.16562   0.98063   0.00000  Uiso   1.00
C875   C     0.82766   0.17089   0.52244   0.00000  Uiso   1.00
C876   C     0.79482   0.19667   0.54370   0.00000  Uiso   1.00
C877   C     0.76540   0.20645   0.52506   0.00000  Uiso   1.00
H878   H     0.87395   0.00253   0.71664   0.00000  Uiso   1.00
H879   H     0.78165   0.01266   0.82020   0.00000  Uiso   1.00
H880   H     0.75287   0.00368   0.78702   0.00000  Uiso   1.00
H881   H     0.92010   0.09127   0.61675   0.00000  Uiso   1.00
H882   H     0.94507   0.14063   0.61502   0.00000  Uiso   1.00
H883   H     0.94836   0.11658   0.92939   0.00000  Uiso   1.00
H884   H     0.91261   0.07364   0.93855   0.00000  Uiso   1.00
H885   H     0.69640   0.24260   0.97766   0.00000  Uiso   1.00
H886   H     0.67867   0.19095   0.97743   0.00000  Uiso   1.00
H887   H     0.71303   0.23088   0.90877   0.00000  Uiso   1.00
H888   H     0.69936   0.17855   0.90894   0.00000  Uiso   1.00
H889   H     0.80708   0.15476   0.60022   0.00000  Uiso   1.00
H890   H     0.76330   0.20883   0.60214   0.00000  Uiso   1.00
H891   H     0.79918   0.24850   0.58184   0.00000  Uiso   1.00
H892   H     0.87262   0.12952   0.92808   0.00000  Uiso   1.00
H893   H     0.71023   0.20948   0.57027   0.00000  Uiso   1.00
H894   H     0.73981   0.25631   0.56104   0.00000  Uiso   1.00
H895   H     0.68510   0.22497   0.70668   0.00000  Uiso   1.00
H896   H     0.68623   0.17875   0.67837   0.00000  Uiso   1.00
H897   H     0.98477   0.15711   0.82283   0.00000  Uiso   1.00
H898   H     0.98519   0.10979   0.79649   0.00000  Uiso   1.00
N899   N     0.72900   0.22770   0.54804   0.00000  Uiso   1.00
N900   N     0.69128   0.19408   0.70471   0.00000  Uiso   1.00
N901   N     0.97841   0.14034   0.79753   0.00000  Uiso   1.00
N902   N     0.78051   0.33011   0.79282   0.00000  Uiso   1.00
N903   N     0.93598   0.11410   0.59796   0.00000  Uiso   1.00
N904   N     0.92816   0.09933   0.95182   0.00000  Uiso   1.00
N905   N     0.70116   0.21417   0.98513   0.00000  Uiso   1.00
N906   N     0.72486   0.20186   0.90083   0.00000  Uiso   1.00
N907   N     0.79372   0.21625   0.58270   0.00000  Uiso   1.00
O908   O     0.83333   0.16667   0.75000   0.00000  Uiso   1.00
O909   O     0.82360   0.12393   0.66625   0.00000  Uiso   1.00
O910   O     0.79354   0.20646   0.83749   0.00000  Uiso   1.00
O911   O     0.87755   0.17493   0.65877   0.00000  Uiso   1.00
O912   O     0.83865   0.16135   0.83749   0.00000  Uiso   1.00
O913   O     0.84515   0.08101   0.77821   0.00000  Uiso   1.00
O914   O     0.81247   0.26136   0.76767   0.00000  Uiso   1.00
O915   O     0.74119   0.13251   0.73607   0.00000  Uiso   1.00
O916   O     0.93452   0.19179   0.71806   0.00000  Uiso   1.00
O917   O     0.73656   0.18960   0.77820   0.00000  Uiso   1.00
O918   O     0.92106   0.15277   0.76768   0.00000  Uiso   1.00
O919   O     0.80467   0.06903   0.73607   0.00000  Uiso   1.00
O920   O     0.87104   0.25527   0.71806   0.00000  Uiso   1.00
Zn921  Zn    0.85910   0.14090   0.78278   0.00000  Uiso   1.00
Zn922  Zn    0.80125   0.12378   0.72258   0.00000  Uiso   1.00
Zn923  Zn    0.87833   0.19664   0.71188   0.00000  Uiso   1.00
Zn924  Zn    0.79465   0.20535   0.78277   0.00000  Uiso   1.00
Br925  Br    0.30795   0.43746   0.50983   0.00000  Uiso   1.00
Br926  Br    0.22250   0.53406   0.89421   0.00000  Uiso   1.00
C927   C     0.05279   0.49356   0.75874   0.00000  Uiso   1.00
C928   C     0.20242   0.47288   0.95906   0.00000  Uiso   1.00
C929   C     0.22959   0.45819   0.97646   0.00000  Uiso   1.00
C930   C     0.28104   0.50678   0.74123   0.00000  Uiso   1.00
C931   C     0.22298   0.46594   0.51779   0.00000  Uiso   1.00
C932   C     0.18531   0.48471   0.54102   0.00000  Uiso   1.00
C933   C     0.25125   0.45419   0.53720   0.00000  Uiso   1.00
C934   C     0.23993   0.45782   0.57870   0.00000  Uiso   1.00
C935   C     0.17212   0.48168   0.58201   0.00000  Uiso   1.00
C936   C     0.32712   0.50822   0.73717   0.00000  Uiso   1.00
C937   C     0.00742   0.49150   0.76338   0.00000  Uiso   1.00
C938   C     0.08919   0.53293   0.92159   0.00000  Uiso   1.00
C939   C     0.18007   0.65546   0.73890   0.00000  Uiso   1.00
C940   C     0.15079   0.34612   0.76304   0.00000  Uiso   1.00
C941   C     0.15643   0.38967   0.75857   0.00000  Uiso   1.00
C942   C     0.17669   0.61101   0.74151   0.00000  Uiso   1.00
C943   C     0.18869   0.47855   0.64395   0.00000  Uiso   1.00
C944   C     0.14498   0.52081   0.85632   0.00000  Uiso   1.00
C945   C     0.13190   0.52610   0.90004   0.00000  Uiso   1.00
C946   C     0.19966   0.47049   0.60089   0.00000  Uiso   1.00
C947   C     0.07722   0.53780   0.96340   0.00000  Uiso   1.00
C948   C     0.16145   0.52144   0.92027   0.00000  Uiso   1.00
C949   C     0.14683   0.51698   0.96126   0.00000  Uiso   1.00
C950   C     0.10680   0.53111   0.98356   0.00000  Uiso   1.00
C951   C     0.17093   0.49895   0.98063   0.00000  Uiso   1.00
C952   C     0.16099   0.50422   0.52244   0.00000  Uiso   1.00
C953   C     0.12816   0.53000   0.54370   0.00000  Uiso   1.00
C954   C     0.09873   0.53978   0.52506   0.00000  Uiso   1.00
H955   H     0.20728   0.33586   0.71664   0.00000  Uiso   1.00
H956   H     0.11498   0.34599   0.82020   0.00000  Uiso   1.00
H957   H     0.08621   0.33702   0.78702   0.00000  Uiso   1.00
H958   H     0.25344   0.42461   0.61675   0.00000  Uiso   1.00
H959   H     0.27840   0.47396   0.61502   0.00000  Uiso   1.00
H960   H     0.28169   0.44991   0.92939   0.00000  Uiso   1.00
H961   H     0.24594   0.40697   0.93855   0.00000  Uiso   1.00
H962   H     0.02974   0.57593   0.97766   0.00000  Uiso   1.00
H963   H     0.01200   0.52428   0.97743   0.00000  Uiso   1.00
H964   H     0.04636   0.56422   0.90877   0.00000  Uiso   1.00
H965   H     0.03269   0.51188   0.90894   0.00000  Uiso   1.00
H966   H     0.14042   0.48810   0.60022   0.00000  Uiso   1.00
H967   H     0.09664   0.54216   0.60214   0.00000  Uiso   1.00
H968   H     0.13252   0.58184   0.58184   0.00000  Uiso   1.00
H969   H     0.20595   0.46285   0.92808   0.00000  Uiso   1.00
H970   H     0.04357   0.54281   0.57027   0.00000  Uiso   1.00
H971   H     0.07315   0.58964   0.56104   0.00000  Uiso   1.00
H972   H     0.01843   0.55830   0.70668   0.00000  Uiso   1.00
H973   H     0.01956   0.51208   0.67837   0.00000  Uiso   1.00
H974   H     0.31810   0.49044   0.82283   0.00000  Uiso   1.00
H975   H     0.31853   0.44312   0.79649   0.00000  Uiso   1.00
N976   N     0.06233   0.56103   0.54804   0.00000  Uiso   1.00
N977   N     0.02462   0.52741   0.70471   0.00000  Uiso   1.00
N978   N     0.31174   0.47367   0.79753   0.00000  Uiso   1.00
N979   N     0.11384   0.66345   0.79282   0.00000  Uiso   1.00
N980   N     0.26932   0.44744   0.59796   0.00000  Uiso   1.00
N981   N     0.26149   0.43267   0.95182   0.00000  Uiso   1.00
N982   N     0.03450   0.54750   0.98513   0.00000  Uiso   1.00
N983   N     0.05819   0.53520   0.90083   0.00000  Uiso   1.00
N984   N     0.12705   0.54958   0.58270   0.00000  Uiso   1.00
O985   O     0.16667   0.50000   0.75000   0.00000  Uiso   1.00
O986   O     0.15693   0.45726   0.66625   0.00000  Uiso   1.00
O987   O     0.12687   0.53979   0.83749   0.00000  Uiso   1.00
O988   O     0.21088   0.50826   0.65877   0.00000  Uiso   1.00
O989   O     0.17198   0.49468   0.83749   0.00000  Uiso   1.00
O990   O     0.17849   0.41434   0.77821   0.00000  Uiso   1.00
O991   O     0.14581   0.59469   0.76767   0.00000  Uiso   1.00
O992   O     0.07452   0.46584   0.73607   0.00000  Uiso   1.00
O993   O     0.26785   0.52512   0.71806   0.00000  Uiso   1.00
O994   O     0.06990   0.52293   0.77820   0.00000  Uiso   1.00
O995   O     0.25440   0.48610   0.76768   0.00000  Uiso   1.00
O996   O     0.13800   0.40236   0.73607   0.00000  Uiso   1.00
O997   O     0.20437   0.58860   0.71806   0.00000  Uiso   1.00
Zn998  Zn    0.19244   0.47423   0.78278   0.00000  Uiso   1.00
Zn999  Zn    0.13459   0.45711   0.72258   0.00000  Uiso   1.00
Zn1000 Zn    0.21166   0.52997   0.71188   0.00000  Uiso   1.00
Zn1001 Zn    0.12798   0.53868   0.78277   0.00000  Uiso   1.00
Br1002 Br    0.64128   0.43746   0.50983   0.00000  Uiso   1.00
Br1003 Br    0.55583   0.53406   0.89421   0.00000  Uiso   1.00
C1004  C     0.38612   0.49356   0.75874   0.00000  Uiso   1.00
C1005  C     0.53575   0.47288   0.95906   0.00000  Uiso   1.00
C1006  C     0.56292   0.45819   0.97646   0.00000  Uiso   1.00
C1007  C     0.61438   0.50678   0.74123   0.00000  Uiso   1.00
C1008  C     0.55631   0.46594   0.51779   0.00000  Uiso   1.00
C1009  C     0.51864   0.48471   0.54102   0.00000  Uiso   1.00
C1010  C     0.58459   0.45419   0.53720   0.00000  Uiso   1.00
C1011  C     0.57326   0.45782   0.57870   0.00000  Uiso   1.00
C1012  C     0.50545   0.48168   0.58201   0.00000  Uiso   1.00
C1013  C     0.66045   0.50822   0.73717   0.00000  Uiso   1.00
C1014  C     0.34075   0.49150   0.76338   0.00000  Uiso   1.00
C1015  C     0.42253   0.53293   0.92159   0.00000  Uiso   1.00
C1016  C     0.51340   0.65546   0.73890   0.00000  Uiso   1.00
C1017  C     0.48412   0.34612   0.76304   0.00000  Uiso   1.00
C1018  C     0.48976   0.38967   0.75857   0.00000  Uiso   1.00
C1019  C     0.51002   0.61101   0.74151   0.00000  Uiso   1.00
C1020  C     0.52203   0.47855   0.64395   0.00000  Uiso   1.00
C1021  C     0.47832   0.52081   0.85632   0.00000  Uiso   1.00
C1022  C     0.46523   0.52610   0.90004   0.00000  Uiso   1.00
C1023  C     0.53299   0.47049   0.60089   0.00000  Uiso   1.00
C1024  C     0.41055   0.53780   0.96340   0.00000  Uiso   1.00
C1025  C     0.49478   0.52144   0.92027   0.00000  Uiso   1.00
C1026  C     0.48017   0.51698   0.96126   0.00000  Uiso   1.00
C1027  C     0.44013   0.53111   0.98356   0.00000  Uiso   1.00
C1028  C     0.50426   0.49895   0.98063   0.00000  Uiso   1.00
C1029  C     0.49433   0.50422   0.52244   0.00000  Uiso   1.00
C1030  C     0.46149   0.53000   0.54370   0.00000  Uiso   1.00
C1031  C     0.43207   0.53978   0.52506   0.00000  Uiso   1.00
H1032  H     0.54061   0.33586   0.71664   0.00000  Uiso   1.00
H1033  H     0.44832   0.34599   0.82020   0.00000  Uiso   1.00
H1034  H     0.41954   0.33702   0.78702   0.00000  Uiso   1.00
H1035  H     0.58677   0.42461   0.61675   0.00000  Uiso   1.00
H1036  H     0.61173   0.47396   0.61502   0.00000  Uiso   1.00
H1037  H     0.61502   0.44991   0.92939   0.00000  Uiso   1.00
H1038  H     0.57927   0.40697   0.93855   0.00000  Uiso   1.00
H1039  H     0.36307   0.57593   0.97766   0.00000  Uiso   1.00
H1040  H     0.34534   0.52428   0.97743   0.00000  Uiso   1.00
H1041  H     0.37969   0.56422   0.90877   0.00000  Uiso   1.00
H1042  H     0.36603   0.51188   0.90894   0.00000  Uiso   1.00
H1043  H     0.47375   0.48810   0.60022   0.00000  Uiso   1.00
H1044  H     0.42997   0.54216   0.60214   0.00000  Uiso   1.00
H1045  H     0.46585   0.58184   0.58184   0.00000  Uiso   1.00
H1046  H     0.53929   0.46285   0.92808   0.00000  Uiso   1.00
H1047  H     0.37690   0.54281   0.57027   0.00000  Uiso   1.00
H1048  H     0.40648   0.58964   0.56104   0.00000  Uiso   1.00
H1049  H     0.35177   0.55830   0.70668   0.00000  Uiso   1.00
H1050  H     0.35290   0.51208   0.67837   0.00000  Uiso   1.00
H1051  H     0.65143   0.49044   0.82283   0.00000  Uiso   1.00
H1052  H     0.65186   0.44312   0.79649   0.00000  Uiso   1.00
N1053  N     0.39567   0.56103   0.54804   0.00000  Uiso   1.00
N1054  N     0.35795   0.52741   0.70471   0.00000  Uiso   1.00
N1055  N     0.64508   0.47367   0.79753   0.00000  Uiso   1.00
N1056  N     0.44718   0.66345   0.79282   0.00000  Uiso   1.00
N1057  N     0.60265   0.44744   0.59796   0.00000  Uiso   1.00
N1058  N     0.59483   0.43267   0.95182   0.00000  Uiso   1.00
N1059  N     0.36783   0.54750   0.98513   0.00000  Uiso   1.00
N1060  N     0.39152   0.53520   0.90083   0.00000  Uiso   1.00
N1061  N     0.46039   0.54958   0.58270   0.00000  Uiso   1.00
O1062  O     0.50000   0.50000   0.75000   0.00000  Uiso   1.00
O1063  O     0.49027   0.45726   0.66625   0.00000  Uiso   1.00
O1064  O     0.46020   0.53979   0.83749   0.00000  Uiso   1.00
O1065  O     0.54421   0.50826   0.65877   0.00000  Uiso   1.00
O1066  O     0.50532   0.49468   0.83749   0.00000  Uiso   1.00
O1067  O     0.51182   0.41434   0.77821   0.00000  Uiso   1.00
O1068  O     0.47914   0.59469   0.76767   0.00000  Uiso   1.00
O1069  O     0.40785   0.46584   0.73607   0.00000  Uiso   1.00
O1070  O     0.60119   0.52512   0.71806   0.00000  Uiso   1.00
O1071  O     0.40323   0.52293   0.77820   0.00000  Uiso   1.00
O1072  O     0.58773   0.48610   0.76768   0.00000  Uiso   1.00
O1073  O     0.47133   0.40236   0.73607   0.00000  Uiso   1.00
O1074  O     0.53771   0.58860   0.71806   0.00000  Uiso   1.00
Zn1075 Zn    0.52577   0.47423   0.78278   0.00000  Uiso   1.00
Zn1076 Zn    0.46792   0.45711   0.72258   0.00000  Uiso   1.00
Zn1077 Zn    0.54500   0.52997   0.71188   0.00000  Uiso   1.00
Zn1078 Zn    0.46131   0.53868   0.78277   0.00000  Uiso   1.00
Br1079 Br    0.97461   0.43746   0.50983   0.00000  Uiso   1.00
Br1080 Br    0.88917   0.53406   0.89421   0.00000  Uiso   1.00
C1081  C     0.71945   0.49356   0.75874   0.00000  Uiso   1.00
C1082  C     0.86909   0.47288   0.95906   0.00000  Uiso   1.00
C1083  C     0.89625   0.45819   0.97646   0.00000  Uiso   1.00
C1084  C     0.94771   0.50678   0.74123   0.00000  Uiso   1.00
C1085  C     0.88964   0.46594   0.51779   0.00000  Uiso   1.00
C1086  C     0.85197   0.48471   0.54102   0.00000  Uiso   1.00
C1087  C     0.91792   0.45419   0.53720   0.00000  Uiso   1.00
C1088  C     0.90659   0.45782   0.57870   0.00000  Uiso   1.00
C1089  C     0.83879   0.48168   0.58201   0.00000  Uiso   1.00
C1090  C     0.99378   0.50822   0.73717   0.00000  Uiso   1.00
C1091  C     0.67408   0.49150   0.76338   0.00000  Uiso   1.00
C1092  C     0.75586   0.53293   0.92159   0.00000  Uiso   1.00
C1093  C     0.84673   0.65546   0.73890   0.00000  Uiso   1.00
C1094  C     0.81745   0.34612   0.76304   0.00000  Uiso   1.00
C1095  C     0.82310   0.38967   0.75857   0.00000  Uiso   1.00
C1096  C     0.84336   0.61101   0.74151   0.00000  Uiso   1.00
C1097  C     0.85536   0.47855   0.64395   0.00000  Uiso   1.00
C1098  C     0.81165   0.52081   0.85632   0.00000  Uiso   1.00
C1099  C     0.79856   0.52610   0.90004   0.00000  Uiso   1.00
C1100  C     0.86633   0.47049   0.60089   0.00000  Uiso   1.00
C1101  C     0.74388   0.53780   0.96340   0.00000  Uiso   1.00
C1102  C     0.82812   0.52144   0.92027   0.00000  Uiso   1.00
C1103  C     0.81350   0.51698   0.96126   0.00000  Uiso   1.00
C1104  C     0.77346   0.53111   0.98356   0.00000  Uiso   1.00
C1105  C     0.83760   0.49895   0.98063   0.00000  Uiso   1.00
C1106  C     0.82766   0.50422   0.52244   0.00000  Uiso   1.00
C1107  C     0.79482   0.53000   0.54370   0.00000  Uiso   1.00
C1108  C     0.76540   0.53978   0.52506   0.00000  Uiso   1.00
H1109  H     0.87395   0.33586   0.71664   0.00000  Uiso   1.00
H1110  H     0.78165   0.34599   0.82020   0.00000  Uiso   1.00
H1111  H     0.75287   0.33702   0.78702   0.00000  Uiso   1.00
H1112  H     0.92010   0.42461   0.61675   0.00000  Uiso   1.00
H1113  H     0.94507   0.47396   0.61502   0.00000  Uiso   1.00
H1114  H     0.94836   0.44991   0.92939   0.00000  Uiso   1.00
H1115  H     0.91261   0.40697   0.93855   0.00000  Uiso   1.00
H1116  H     0.69640   0.57593   0.97766   0.00000  Uiso   1.00
H1117  H     0.67867   0.52428   0.97743   0.00000  Uiso   1.00
H1118  H     0.71303   0.56422   0.90877   0.00000  Uiso   1.00
H1119  H     0.69936   0.51188   0.90894   0.00000  Uiso   1.00
H1120  H     0.80708   0.48810   0.60022   0.00000  Uiso   1.00
H1121  H     0.76330   0.54216   0.60214   0.00000  Uiso   1.00
H1122  H     0.79918   0.58184   0.58184   0.00000  Uiso   1.00
H1123  H     0.87262   0.46285   0.92808   0.00000  Uiso   1.00
H1124  H     0.71023   0.54281   0.57027   0.00000  Uiso   1.00
H1125  H     0.73981   0.58964   0.56104   0.00000  Uiso   1.00
H1126  H     0.68510   0.55830   0.70668   0.00000  Uiso   1.00
H1127  H     0.68623   0.51208   0.67837   0.00000  Uiso   1.00
H1128  H     0.98477   0.49044   0.82283   0.00000  Uiso   1.00
H1129  H     0.98519   0.44312   0.79649   0.00000  Uiso   1.00
N1130  N     0.72900   0.56103   0.54804   0.00000  Uiso   1.00
N1131  N     0.69128   0.52741   0.70471   0.00000  Uiso   1.00
N1132  N     0.97841   0.47367   0.79753   0.00000  Uiso   1.00
N1133  N     0.78051   0.66345   0.79282   0.00000  Uiso   1.00
N1134  N     0.93598   0.44744   0.59796   0.00000  Uiso   1.00
N1135  N     0.92816   0.43267   0.95182   0.00000  Uiso   1.00
N1136  N     0.70116   0.54750   0.98513   0.00000  Uiso   1.00
N1137  N     0.72486   0.53520   0.90083   0.00000  Uiso   1.00
N1138  N     0.79372   0.54958   0.58270   0.00000  Uiso   1.00
O1139  O     0.83333   0.50000   0.75000   0.00000  Uiso   1.00
O1140  O     0.82360   0.45726   0.66625   0.00000  Uiso   1.00
O1141  O     0.79354   0.53979   0.83749   0.00000  Uiso   1.00
O1142  O     0.87755   0.50826   0.65877   0.00000  Uiso   1.00
O1143  O     0.83865   0.49468   0.83749   0.00000  Uiso   1.00
O1144  O     0.84515   0.41434   0.77821   0.00000  Uiso   1.00
O1145  O     0.81247   0.59469   0.76767   0.00000  Uiso   1.00
O1146  O     0.74119   0.46584   0.73607   0.00000  Uiso   1.00
O1147  O     0.93452   0.52512   0.71806   0.00000  Uiso   1.00
O1148  O     0.73656   0.52293   0.77820   0.00000  Uiso   1.00
O1149  O     0.92106   0.48610   0.76768   0.00000  Uiso   1.00
O1150  O     0.80467   0.40236   0.73607   0.00000  Uiso   1.00
O1151  O     0.87104   0.58860   0.71806   0.00000  Uiso   1.00
Zn1152 Zn    0.85910   0.47423   0.78278   0.00000  Uiso   1.00
Zn1153 Zn    0.80125   0.45711   0.72258   0.00000  Uiso   1.00
Zn1154 Zn    0.87833   0.52997   0.71188   0.00000  Uiso   1.00
Zn1155 Zn    0.79465   0.53868   0.78277   0.00000  Uiso   1.00
Br1156 Br    0.30795   0.77079   0.50983   0.00000  Uiso   1.00
Br1157 Br    0.22250   0.86739   0.89421   0.00000  Uiso   1.00
C1158  C     0.05279   0.82690   0.75874   0.00000  Uiso   1.00
C1159  C     0.20242   0.80621   0.95906   0.00000  Uiso   1.00
C1160  C     0.22959   0.79152   0.97646   0.00000  Uiso   1.00
C1161  C     0.28104   0.84012   0.74123   0.00000  Uiso   1.00
C1162  C     0.22298   0.79927   0.51779   0.00000  Uiso   1.00
C1163  C     0.18531   0.81805   0.54102   0.00000  Uiso   1.00
C1164  C     0.25125   0.78753   0.53720   0.00000  Uiso   1.00
C1165  C     0.23993   0.79115   0.57870   0.00000  Uiso   1.00
C1166  C     0.17212   0.81501   0.58201   0.00000  Uiso   1.00
C1167  C     0.32712   0.84155   0.73717   0.00000  Uiso   1.00
C1168  C     0.00742   0.82484   0.76338   0.00000  Uiso   1.00
C1169  C     0.08919   0.86627   0.92159   0.00000  Uiso   1.00
C1170  C     0.18007   0.98880   0.73890   0.00000  Uiso   1.00
C1171  C     0.15079   0.67945   0.76304   0.00000  Uiso   1.00
C1172  C     0.15643   0.72300   0.75857   0.00000  Uiso   1.00
C1173  C     0.17669   0.94435   0.74151   0.00000  Uiso   1.00
C1174  C     0.18869   0.81189   0.64395   0.00000  Uiso   1.00
C1175  C     0.14498   0.85414   0.85632   0.00000  Uiso   1.00
C1176  C     0.13190   0.85943   0.90004   0.00000  Uiso   1.00
C1177  C     0.19966   0.80382   0.60089   0.00000  Uiso   1.00
C1178  C     0.07722   0.87113   0.96340   0.00000  Uiso   1.00
C1179  C     0.16145   0.85478   0.92027   0.00000  Uiso   1.00
C1180  C     0.14683   0.85031   0.96126   0.00000  Uiso   1.00
C1181  C     0.10680   0.86445   0.98356   0.00000  Uiso   1.00
C1182  C     0.17093   0.83229   0.98063   0.00000  Uiso   1.00
C1183  C     0.16099   0.83756   0.52244   0.00000  Uiso   1.00
C1184  C     0.12816   0.86333   0.54370   0.00000  Uiso   1.00
C1185  C     0.09873   0.87312   0.52506   0.00000  Uiso   1.00
H1186  H     0.20728   0.66919   0.71664   0.00000  Uiso   1.00
H1187  H     0.11498   0.67932   0.82020   0.00000  Uiso   1.00
H1188  H     0.08621   0.67035   0.78702   0.00000  Uiso   1.00
H1189  H     0.25344   0.75794   0.61675   0.00000  Uiso   1.00
H1190  H     0.27840   0.80730   0.61502   0.00000  Uiso   1.00
H1191  H     0.28169   0.78324   0.92939   0.00000  Uiso   1.00
H1192  H     0.24594   0.74030   0.93855   0.00000  Uiso   1.00
H1193  H     0.02974   0.90927   0.97766   0.00000  Uiso   1.00
H1194  H     0.01200   0.85761   0.97743   0.00000  Uiso   1.00
H1195  H     0.04636   0.89755   0.90877   0.00000  Uiso   1.00
H1196  H     0.03269   0.84521   0.90894   0.00000  Uiso   1.00
H1197  H     0.14042   0.82143   0.60022   0.00000  Uiso   1.00
H1198  H     0.09664   0.87550   0.60214   0.00000  Uiso   1.00
H1199  H     0.13252   0.91517   0.58184   0.00000  Uiso   1.00
H1200  H     0.20595   0.79618   0.92808   0.00000  Uiso   1.00
H1201  H     0.04357   0.87615   0.57027   0.00000  Uiso   1.00
H1202  H     0.07315   0.92298   0.56104   0.00000  Uiso   1.00
H1203  H     0.01843   0.89163   0.70668   0.00000  Uiso   1.00
H1204  H     0.01956   0.84541   0.67837   0.00000  Uiso   1.00
H1205  H     0.31810   0.82378   0.82283   0.00000  Uiso   1.00
H1206  H     0.31853   0.77646   0.79649   0.00000  Uiso   1.00
N1207  N     0.06233   0.89437   0.54804   0.00000  Uiso   1.00
N1208  N     0.02462   0.86074   0.70471   0.00000  Uiso   1.00
N1209  N     0.31174   0.80700   0.79753   0.00000  Uiso   1.00
N1210  N     0.11384   0.99678   0.79282   0.00000  Uiso   1.00
N1211  N     0.26932   0.78077   0.59796   0.00000  Uiso   1.00
N1212  N     0.26149   0.76600   0.95182   0.00000  Uiso   1.00
N1213  N     0.03450   0.88083   0.98513   0.00000  Uiso   1.00
N1214  N     0.05819   0.86853   0.90083   0.00000  Uiso   1.00
N1215  N     0.12705   0.88291   0.58270   0.00000  Uiso   1.00
O1216  O     0.16667   0.83333   0.75000   0.00000  Uiso   1.00
O1217  O     0.15693   0.79060   0.66625   0.00000  Uiso   1.00
O1218  O     0.12687   0.87313   0.83749   0.00000  Uiso   1.00
O1219  O     0.21088   0.84159   0.65877   0.00000  Uiso   1.00
O1220  O     0.17198   0.82802   0.83749   0.00000  Uiso   1.00
O1221  O     0.17849   0.74768   0.77821   0.00000  Uiso   1.00
O1222  O     0.14581   0.92803   0.76767   0.00000  Uiso   1.00
O1223  O     0.07452   0.79917   0.73607   0.00000  Uiso   1.00
O1224  O     0.26785   0.85845   0.71806   0.00000  Uiso   1.00
O1225  O     0.06990   0.85627   0.77820   0.00000  Uiso   1.00
O1226  O     0.25440   0.81944   0.76768   0.00000  Uiso   1.00
O1227  O     0.13800   0.73570   0.73607   0.00000  Uiso   1.00
O1228  O     0.20437   0.92193   0.71806   0.00000  Uiso   1.00
Zn1229 Zn    0.19244   0.80756   0.78278   0.00000  Uiso   1.00
Zn1230 Zn    0.13459   0.79044   0.72258   0.00000  Uiso   1.00
Zn1231 Zn    0.21166   0.86331   0.71188   0.00000  Uiso   1.00
Zn1232 Zn    0.12798   0.87202   0.78277   0.00000  Uiso   1.00
Br1233 Br    0.64128   0.77079   0.50983   0.00000  Uiso   1.00
Br1234 Br    0.55583   0.86739   0.89421   0.00000  Uiso   1.00
C1235  C     0.38612   0.82690   0.75874   0.00000  Uiso   1.00
C1236  C     0.53575   0.80621   0.95906   0.00000  Uiso   1.00
C1237  C     0.56292   0.79152   0.97646   0.00000  Uiso   1.00
C1238  C     0.61438   0.84012   0.74123   0.00000  Uiso   1.00
C1239  C     0.55631   0.79927   0.51779   0.00000  Uiso   1.00
C1240  C     0.51864   0.81805   0.54102   0.00000  Uiso   1.00
C1241  C     0.58459   0.78753   0.53720   0.00000  Uiso   1.00
C1242  C     0.57326   0.79115   0.57870   0.00000  Uiso   1.00
C1243  C     0.50545   0.81501   0.58201   0.00000  Uiso   1.00
C1244  C     0.66045   0.84155   0.73717   0.00000  Uiso   1.00
C1245  C     0.34075   0.82484   0.76338   0.00000  Uiso   1.00
C1246  C     0.42253   0.86627   0.92159   0.00000  Uiso   1.00
C1247  C     0.51340   0.98880   0.73890   0.00000  Uiso   1.00
C1248  C     0.48412   0.67945   0.76304   0.00000  Uiso   1.00
C1249  C     0.48976   0.72300   0.75857   0.00000  Uiso   1.00
C1250  C     0.51002   0.94435   0.74151   0.00000  Uiso   1.00
C1251  C     0.52203   0.81189   0.64395   0.00000  Uiso   1.00
C1252  C     0.47832   0.85414   0.85632   0.00000  Uiso   1.00
C1253  C     0.46523   0.85943   0.90004   0.00000  Uiso   1.00
C1254  C     0.53299   0.80382   0.60089   0.00000  Uiso   1.00
C1255  C     0.41055   0.87113   0.96340   0.00000  Uiso   1.00
C1256  C     0.49478   0.85478   0.92027   0.00000  Uiso   1.00
C1257  C     0.48017   0.85031   0.96126   0.00000  Uiso   1.00
C1258  C     0.44013   0.86445   0.98356   0.00000  Uiso   1.00
C1259  C     0.50426   0.83229   0.98063   0.00000  Uiso   1.00
C1260  C     0.49433   0.83756   0.52244   0.00000  Uiso   1.00
C1261  C     0.46149   0.86333   0.54370   0.00000  Uiso   1.00
C1262  C     0.43207   0.87312   0.52506   0.00000  Uiso   1.00
H1263  H     0.54061   0.66919   0.71664   0.00000  Uiso   1.00
H1264  H     0.44832   0.67932   0.82020   0.00000  Uiso   1.00
H1265  H     0.41954   0.67035   0.78702   0.00000  Uiso   1.00
H1266  H     0.58677   0.75794   0.61675   0.00000  Uiso   1.00
H1267  H     0.61173   0.80730   0.61502   0.00000  Uiso   1.00
H1268  H     0.61502   0.78324   0.92939   0.00000  Uiso   1.00
H1269  H     0.57927   0.74030   0.93855   0.00000  Uiso   1.00
H1270  H     0.36307   0.90927   0.97766   0.00000  Uiso   1.00
H1271  H     0.34534   0.85761   0.97743   0.00000  Uiso   1.00
H1272  H     0.37969   0.89755   0.90877   0.00000  Uiso   1.00
H1273  H     0.36603   0.84521   0.90894   0.00000  Uiso   1.00
H1274  H     0.47375   0.82143   0.60022   0.00000  Uiso   1.00
H1275  H     0.42997   0.87550   0.60214   0.00000  Uiso   1.00
H1276  H     0.46585   0.91517   0.58184   0.00000  Uiso   1.00
H1277  H     0.53929   0.79618   0.92808   0.00000  Uiso   1.00
H1278  H     0.37690   0.87615   0.57027   0.00000  Uiso   1.00
H1279  H     0.40648   0.92298   0.56104   0.00000  Uiso   1.00
H1280  H     0.35177   0.89163   0.70668   0.00000  Uiso   1.00
H1281  H     0.35290   0.84541   0.67837   0.00000  Uiso   1.00
H1282  H     0.65143   0.82378   0.82283   0.00000  Uiso   1.00
H1283  H     0.65186   0.77646   0.79649   0.00000  Uiso   1.00
N1284  N     0.39567   0.89437   0.54804   0.00000  Uiso   1.00
N1285  N     0.35795   0.86074   0.70471   0.00000  Uiso   1.00
N1286  N     0.64508   0.80700   0.79753   0.00000  Uiso   1.00
N1287  N     0.44718   0.99678   0.79282   0.00000  Uiso   1.00
N1288  N     0.60265   0.78077   0.59796   0.00000  Uiso   1.00
N1289  N     0.59483   0.76600   0.95182   0.00000  Uiso   1.00
N1290  N     0.36783   0.88083   0.98513   0.00000  Uiso   1.00
N1291  N     0.39152   0.86853   0.90083   0.00000  Uiso   1.00
N1292  N     0.46039   0.88291   0.58270   0.00000  Uiso   1.00
O1293  O     0.50000   0.83333   0.75000   0.00000  Uiso   1.00
O1294  O     0.49027   0.79060   0.66625   0.00000  Uiso   1.00
O1295  O     0.46020   0.87313   0.83749   0.00000  Uiso   1.00
O1296  O     0.54421   0.84159   0.65877   0.00000  Uiso   1.00
O1297  O     0.50532   0.82802   0.83749   0.00000  Uiso   1.00
O1298  O     0.51182   0.74768   0.77821   0.00000  Uiso   1.00
O1299  O     0.47914   0.92803   0.76767   0.00000  Uiso   1.00
O1300  O     0.40785   0.79917   0.73607   0.00000  Uiso   1.00
O1301  O     0.60119   0.85845   0.71806   0.00000  Uiso   1.00
O1302  O     0.40323   0.85627   0.77820   0.00000  Uiso   1.00
O1303  O     0.58773   0.81944   0.76768   0.00000  Uiso   1.00
O1304  O     0.47133   0.73570   0.73607   0.00000  Uiso   1.00
O1305  O     0.53771   0.92193   0.71806   0.00000  Uiso   1.00
Zn1306 Zn    0.52577   0.80756   0.78278   0.00000  Uiso   1.00
Zn1307 Zn    0.46792   0.79044   0.72258   0.00000  Uiso   1.00
Zn1308 Zn    0.54500   0.86331   0.71188   0.00000  Uiso   1.00
Zn1309 Zn    0.46131   0.87202   0.78277   0.00000  Uiso   1.00
Br1310 Br    0.97461   0.77079   0.50983   0.00000  Uiso   1.00
Br1311 Br    0.88917   0.86739   0.89421   0.00000  Uiso   1.00
C1312  C     0.71945   0.82690   0.75874   0.00000  Uiso   1.00
C1313  C     0.86909   0.80621   0.95906   0.00000  Uiso   1.00
C1314  C     0.89625   0.79152   0.97646   0.00000  Uiso   1.00
C1315  C     0.94771   0.84012   0.74123   0.00000  Uiso   1.00
C1316  C     0.88964   0.79927   0.51779   0.00000  Uiso   1.00
C1317  C     0.85197   0.81805   0.54102   0.00000  Uiso   1.00
C1318  C     0.91792   0.78753   0.53720   0.00000  Uiso   1.00
C1319  C     0.90659   0.79115   0.57870   0.00000  Uiso   1.00
C1320  C     0.83879   0.81501   0.58201   0.00000  Uiso   1.00
C1321  C     0.99378   0.84155   0.73717   0.00000  Uiso   1.00
C1322  C     0.67408   0.82484   0.76338   0.00000  Uiso   1.00
C1323  C     0.75586   0.86627   0.92159   0.00000  Uiso   1.00
C1324  C     0.84673   0.98880   0.73890   0.00000  Uiso   1.00
C1325  C     0.81745   0.67945   0.76304   0.00000  Uiso   1.00
C1326  C     0.82310   0.72300   0.75857   0.00000  Uiso   1.00
C1327  C     0.84336   0.94435   0.74151   0.00000  Uiso   1.00
C1328  C     0.85536   0.81189   0.64395   0.00000  Uiso   1.00
C1329  C     0.81165   0.85414   0.85632   0.00000  Uiso   1.00
C1330  C     0.79856   0.85943   0.90004   0.00000  Uiso   1.00
C1331  C     0.86633   0.80382   0.60089   0.00000  Uiso   1.00
C1332  C     0.74388   0.87113   0.96340   0.00000  Uiso   1.00
C1333  C     0.82812   0.85478   0.92027   0.00000  Uiso   1.00
C1334  C     0.81350   0.85031   0.96126   0.00000  Uiso   1.00
C1335  C     0.77346   0.86445   0.98356   0.00000  Uiso   1.00
C1336  C     0.83760   0.83229   0.98063   0.00000  Uiso   1.00
C1337  C     0.82766   0.83756   0.52244   0.00000  Uiso   1.00
C1338  C     0.79482   0.86333   0.54370   0.00000  Uiso   1.00
C1339  C     0.76540   0.87312   0.52506   0.00000  Uiso   1.00
H1340  H     0.87395   0.66919   0.71664   0.00000  Uiso   1.00
H1341  H     0.78165   0.67932   0.82020   0.00000  Uiso   1.00
H1342  H     0.75287   0.67035   0.78702   0.00000  Uiso   1.00
H1343  H     0.92010   0.75794   0.61675   0.00000  Uiso   1.00
H1344  H     0.94507   0.80730   0.61502   0.00000  Uiso   1.00
H1345  H     0.94836   0.78324   0.92939   0.00000  Uiso   1.00
H1346  H     0.91261   0.74030   0.93855   0.00000  Uiso   1.00
H1347  H     0.69640   0.90927   0.97766   0.00000  Uiso   1.00
H1348  H     0.67867   0.85761   0.97743   0.00000  Uiso   1.00
H1349  H     0.71303   0.89755   0.90877   0.00000  Uiso   1.00
H1350  H     0.69936   0.84521   0.90894   0.00000  Uiso   1.00
H1351  H     0.80708   0.82143   0.60022   0.00000  Uiso   1.00
H1352  H     0.76330   0.87550   0.60214   0.00000  Uiso   1.00
H1353  H     0.79918   0.91517   0.58184   0.00000  Uiso   1.00
H1354  H     0.87262   0.79618   0.92808   0.00000  Uiso   1.00
H1355  H     0.71023   0.87615   0.57027   0.00000  Uiso   1.00
H1356  H     0.73981   0.92298   0.56104   0.00000  Uiso   1.00
H1357  H     0.68510   0.89163   0.70668   0.00000  Uiso   1.00
H1358  H     0.68623   0.84541   0.67837   0.00000  Uiso   1.00
H1359  H     0.98477   0.82378   0.82283   0.00000  Uiso   1.00
H1360  H     0.98519   0.77646   0.79649   0.00000  Uiso   1.00
N1361  N     0.72900   0.89437   0.54804   0.00000  Uiso   1.00
N1362  N     0.69128   0.86074   0.70471   0.00000  Uiso   1.00
N1363  N     0.97841   0.80700   0.79753   0.00000  Uiso   1.00
N1364  N     0.78051   0.99678   0.79282   0.00000  Uiso   1.00
N1365  N     0.93598   0.78077   0.59796   0.00000  Uiso   1.00
N1366  N     0.92816   0.76600   0.95182   0.00000  Uiso   1.00
N1367  N     0.70116   0.88083   0.98513   0.00000  Uiso   1.00
N1368  N     0.72486   0.86853   0.90083   0.00000  Uiso   1.00
N1369  N     0.79372   0.88291   0.58270   0.00000  Uiso   1.00
O1370  O     0.83333   0.83333   0.75000   0.00000  Uiso   1.00
O1371  O     0.82360   0.79060   0.66625   0.00000  Uiso   1.00
O1372  O     0.79354   0.87313   0.83749   0.00000  Uiso   1.00
O1373  O     0.87755   0.84159   0.65877   0.00000  Uiso   1.00
O1374  O     0.83865   0.82802   0.83749   0.00000  Uiso   1.00
O1375  O     0.84515   0.74768   0.77821   0.00000  Uiso   1.00
O1376  O     0.81247   0.92803   0.76767   0.00000  Uiso   1.00
O1377  O     0.74119   0.79917   0.73607   0.00000  Uiso   1.00
O1378  O     0.93452   0.85845   0.71806   0.00000  Uiso   1.00
O1379  O     0.73656   0.85627   0.77820   0.00000  Uiso   1.00
O1380  O     0.92106   0.81944   0.76768   0.00000  Uiso   1.00
O1381  O     0.80467   0.73570   0.73607   0.00000  Uiso   1.00
O1382  O     0.87104   0.92193   0.71806   0.00000  Uiso   1.00
Zn1383 Zn    0.85910   0.80756   0.78278   0.00000  Uiso   1.00
Zn1384 Zn    0.80125   0.79044   0.72258   0.00000  Uiso   1.00
Zn1385 Zn    0.87833   0.86331   0.71188   0.00000  Uiso   1.00
Zn1386 Zn    0.79465   0.87202   0.78277   0.00000  Uiso   1.00
loop_
_geom_bond_atom_site_label_1
_geom_bond_atom_site_label_2
_geom_bond_distance
_geom_bond_site_symmetry_2
_ccdc_geom_bond_type
Br1    C9      1.936   .     S
Br2    C24     1.944   .     S
C3     O68     1.270   .     A
C3     C13     1.435   .     S
C3     O70     1.265   .     A
C4     H45     1.081   .     S
C4     C27     1.404   .     A
C4     C5      1.392   .     A
C5     N57     1.432   .     S
C5     C700    1.413   .     S
C6     C12     1.464   .     S
C6     O71     1.273   .     A
C6     O69     1.285   .     A
C7     C8      1.429   .     A
C7     C9      1.427   .     A
C7     C698    1.413   1_554 S
C8     C28     1.433   .     A
C8     C11     1.406   .     A
C9     C10     1.403   .     A
C10    N56     1.436   .     S
C10    C22     1.404   .     A
C11    H42     1.078   .     S
C11    C22     1.386   .     A
C12    C90     1.352   .     S
C12    N130    1.438   .     S
C13    C166    1.352   1_455 S
C13    N208    1.437   1_455 S
C14    N59     1.436   .     S
C14    C21     1.410   .     A
C14    C23     1.413   .     A
C15    C18     1.453   .     S
C15    C247    1.343   .     S
C15    H262    1.088   .     S
C16    C17     1.432   .     S
C16    C477    1.343   1_545 S
C16    N517    1.437   1_545 S
C17    O66     1.277   .     A
C17    O72     1.277   .     A
C18    O67     1.262   .     A
C18    O73     1.272   .     A
C19    O62     1.283   .     A
C19    C22     1.460   .     S
C19    O64     1.275   .     A
C20    O65     1.288   .     A
C20    O63     1.282   .     A
C20    C21     1.477   .     S
C21    C24     1.401   .     A
C23    N58     1.436   .     S
C23    C26     1.421   .     A
C24    C25     1.414   .     A
C25    C27     1.420   .     A
C25    C26     1.417   .     A
C26    C723    1.415   .     S
C27    C721    1.416   .     S
C28    C29     1.424   .     A
C28    C720    1.416   1_554 S
C29    C30     1.413   .     A
C29    N60     1.436   .     S
C30    N52     1.436   .     S
C30    C719    1.415   1_554 S
H31    C477    1.088   1_545 S
H32    N517    1.046   1_545 S
H33    N517    1.046   1_545 S
H34    N56     1.046   .     S
H35    N56     1.045   .     S
H36    N57     1.046   .     S
H37    N57     1.046   .     S
H38    N58     1.045   .     S
H39    N58     1.045   .     S
H40    N59     1.045   .     S
H41    N59     1.045   .     S
H43    N60     1.045   .     S
H44    N60     1.045   .     S
H46    N52     1.045   .     S
H47    N52     1.045   .     S
H48    N53     1.045   .     S
H49    N53     1.046   .     S
H50    N54     1.046   .     S
H51    N54     1.046   .     S
N53    C166    1.438   1_455 S
N54    C90     1.437   .     S
N55    C247    1.437   .     S
N55    H263    1.046   .     S
N55    H264    1.046   .     S
O61    Zn75    1.953   .     S
O61    Zn77    1.929   .     S
O61    Zn76    1.931   .     S
O61    Zn74    1.961   .     S
O62    Zn75    1.918   .     S
O63    Zn77    1.932   .     S
O64    Zn76    1.929   .     S
O65    Zn74    1.916   .     S
O66    Zn74    1.937   .     S
O67    Zn77    1.937   .     S
O68    Zn75    1.931   .     S
O69    Zn76    1.945   .     S
O70    Zn77    1.943   .     S
O71    Zn74    1.930   .     S
O72    Zn75    1.941   .     S
O73    Zn76    1.936   .     S
Br78   C86     1.936   .     S
Br79   C101    1.944   .     S
C80    O145    1.270   .     A
C80    C90     1.435   .     S
C80    O147    1.265   .     A
C81    H122    1.081   .     S
C81    C104    1.404   .     A
C81    C82     1.392   .     A
C82    N134    1.432   .     S
C82    C777    1.413   .     S
C83    C89     1.464   .     S
C83    O148    1.273   .     A
C83    O146    1.285   .     A
C84    C85     1.429   .     A
C84    C86     1.427   .     A
C84    C775    1.413   1_554 S
C85    C105    1.433   .     A
C85    C88     1.406   .     A
C86    C87     1.403   .     A
C87    N133    1.436   .     S
C87    C99     1.404   .     A
C88    H119    1.078   .     S
C88    C99     1.386   .     A
C89    C167    1.352   .     S
C89    N207    1.438   .     S
C91    N136    1.436   .     S
C91    C98     1.410   .     A
C91    C100    1.413   .     A
C92    C95     1.453   .     S
C92    C324    1.343   .     S
C92    H339    1.088   .     S
C93    C94     1.432   .     S
C93    C554    1.343   1_545 S
C93    N594    1.437   1_545 S
C94    O143    1.277   .     A
C94    O149    1.277   .     A
C95    O144    1.262   .     A
C95    O150    1.272   .     A
C96    O139    1.283   .     A
C96    C99     1.460   .     S
C96    O141    1.275   .     A
C97    O142    1.288   .     A
C97    O140    1.282   .     A
C97    C98     1.477   .     S
C98    C101    1.401   .     A
C100   N135    1.436   .     S
C100   C103    1.421   .     A
C101   C102    1.414   .     A
C102   C104    1.420   .     A
C102   C103    1.417   .     A
C103   C800    1.415   .     S
C104   C798    1.416   .     S
C105   C106    1.424   .     A
C105   C797    1.416   1_554 S
C106   C107    1.413   .     A
C106   N137    1.436   .     S
C107   N129    1.436   .     S
C107   C796    1.415   1_554 S
H108   C554    1.088   1_545 S
H109   N594    1.046   1_545 S
H110   N594    1.046   1_545 S
H111   N133    1.046   .     S
H112   N133    1.045   .     S
H113   N134    1.046   .     S
H114   N134    1.046   .     S
H115   N135    1.045   .     S
H116   N135    1.045   .     S
H117   N136    1.045   .     S
H118   N136    1.045   .     S
H120   N137    1.045   .     S
H121   N137    1.045   .     S
H123   N129    1.045   .     S
H124   N129    1.045   .     S
H125   N130    1.045   .     S
H126   N130    1.046   .     S
H127   N131    1.046   .     S
H128   N131    1.046   .     S
N131   C167    1.437   .     S
N132   C324    1.437   .     S
N132   H340    1.046   .     S
N132   H341    1.046   .     S
O138   Zn152   1.953   .     S
O138   Zn154   1.929   .     S
O138   Zn153   1.931   .     S
O138   Zn151   1.961   .     S
O139   Zn152   1.918   .     S
O140   Zn154   1.932   .     S
O141   Zn153   1.929   .     S
O142   Zn151   1.916   .     S
O143   Zn151   1.937   .     S
O144   Zn154   1.937   .     S
O145   Zn152   1.931   .     S
O146   Zn153   1.945   .     S
O147   Zn154   1.943   .     S
O148   Zn151   1.930   .     S
O149   Zn152   1.941   .     S
O150   Zn153   1.936   .     S
Br155  C163    1.936   .     S
Br156  C178    1.944   .     S
C157   O222    1.270   .     A
C157   C167    1.435   .     S
C157   O224    1.265   .     A
C158   H199    1.081   .     S
C158   C181    1.404   .     A
C158   C159    1.392   .     A
C159   N211    1.432   .     S
C159   C854    1.413   .     S
C160   C166    1.464   .     S
C160   O225    1.273   .     A
C160   O223    1.285   .     A
C161   C162    1.429   .     A
C161   C163    1.427   .     A
C161   C852    1.413   1_554 S
C162   C182    1.433   .     A
C162   C165    1.406   .     A
C163   C164    1.403   .     A
C164   N210    1.436   .     S
C164   C176    1.404   .     A
C165   H196    1.078   .     S
C165   C176    1.386   .     A
C166   C13     1.352   1_655 S
C166   N53     1.438   1_655 S
C168   N213    1.436   .     S
C168   C175    1.410   .     A
C168   C177    1.413   .     A
C169   C172    1.453   .     S
C169   C401    1.343   .     S
C169   H416    1.088   .     S
C170   C171    1.432   .     S
C170   C631    1.343   1_545 S
C170   N671    1.437   1_545 S
C171   O220    1.277   .     A
C171   O226    1.277   .     A
C172   O221    1.262   .     A
C172   O227    1.272   .     A
C173   O216    1.283   .     A
C173   C176    1.460   .     S
C173   O218    1.275   .     A
C174   O219    1.288   .     A
C174   O217    1.282   .     A
C174   C175    1.477   .     S
C175   C178    1.401   .     A
C177   N212    1.436   .     S
C177   C180    1.421   .     A
C178   C179    1.414   .     A
C179   C181    1.420   .     A
C179   C180    1.417   .     A
C180   C877    1.415   .     S
C181   C875    1.416   .     S
C182   C183    1.424   .     A
C182   C874    1.416   1_554 S
C183   C184    1.413   .     A
C183   N214    1.436   .     S
C184   N206    1.436   .     S
C184   C873    1.415   1_554 S
H185   C631    1.088   1_545 S
H186   N671    1.046   1_545 S
H187   N671    1.046   1_545 S
H188   N210    1.046   .     S
H189   N210    1.045   .     S
H190   N211    1.046   .     S
H191   N211    1.046   .     S
H192   N212    1.045   .     S
H193   N212    1.045   .     S
H194   N213    1.045   .     S
H195   N213    1.045   .     S
H197   N214    1.045   .     S
H198   N214    1.045   .     S
H200   N206    1.045   .     S
H201   N206    1.045   .     S
H202   N207    1.045   .     S
H203   N207    1.046   .     S
H204   N208    1.046   .     S
H205   N208    1.046   .     S
N208   C13     1.437   1_655 S
N209   C401    1.437   .     S
N209   H417    1.046   .     S
N209   H418    1.046   .     S
O215   Zn229   1.953   .     S
O215   Zn231   1.929   .     S
O215   Zn230   1.931   .     S
O215   Zn228   1.961   .     S
O216   Zn229   1.918   .     S
O217   Zn231   1.932   .     S
O218   Zn230   1.929   .     S
O219   Zn228   1.916   .     S
O220   Zn228   1.937   .     S
O221   Zn231   1.937   .     S
O222   Zn229   1.931   .     S
O223   Zn230   1.945   .     S
O224   Zn231   1.943   .     S
O225   Zn228   1.930   .     S
O226   Zn229   1.941   .     S
O227   Zn230   1.936   .     S
Br232  C240    1.936   .     S
Br233  C255    1.944   .     S
C234   O299    1.270   .     A
C234   C244    1.435   .     S
C234   O301    1.265   .     A
C235   H276    1.081   .     S
C235   C258    1.404   .     A
C235   C236    1.392   .     A
C236   N288    1.432   .     S
C236   C931    1.413   .     S
C237   C243    1.464   .     S
C237   O302    1.273   .     A
C237   O300    1.285   .     A
C238   C239    1.429   .     A
C238   C240    1.427   .     A
C238   C929    1.413   1_554 S
C239   C259    1.433   .     A
C239   C242    1.406   .     A
C240   C241    1.403   .     A
C241   N287    1.436   .     S
C241   C253    1.404   .     A
C242   H273    1.078   .     S
C242   C253    1.386   .     A
C243   C321    1.352   .     S
C243   N361    1.438   .     S
C244   C397    1.352   1_455 S
C244   N439    1.437   1_455 S
C245   N290    1.436   .     S
C245   C252    1.410   .     A
C245   C254    1.413   .     A
C246   C249    1.453   .     S
C246   C478    1.343   .     S
C246   H493    1.088   .     S
C247   C248    1.432   .     S
C248   O297    1.277   .     A
C248   O303    1.277   .     A
C249   O298    1.262   .     A
C249   O304    1.272   .     A
C250   O293    1.283   .     A
C250   C253    1.460   .     S
C250   O295    1.275   .     A
C251   O296    1.288   .     A
C251   O294    1.282   .     A
C251   C252    1.477   .     S
C252   C255    1.401   .     A
C254   N289    1.436   .     S
C254   C257    1.421   .     A
C255   C256    1.414   .     A
C256   C258    1.420   .     A
C256   C257    1.417   .     A
C257   C954    1.415   .     S
C258   C952    1.416   .     S
C259   C260    1.424   .     A
C259   C951    1.416   1_554 S
C260   C261    1.413   .     A
C260   N291    1.436   .     S
C261   N283    1.436   .     S
C261   C950    1.415   1_554 S
H265   N287    1.046   .     S
H266   N287    1.045   .     S
H267   N288    1.046   .     S
H268   N288    1.046   .     S
H269   N289    1.045   .     S
H270   N289    1.045   .     S
H271   N290    1.045   .     S
H272   N290    1.045   .     S
H274   N291    1.045   .     S
H275   N291    1.045   .     S
H277   N283    1.045   .     S
H278   N283    1.045   .     S
H279   N284    1.045   .     S
H280   N284    1.046   .     S
H281   N285    1.046   .     S
H282   N285    1.046   .     S
N284   C397    1.438   1_455 S
N285   C321    1.437   .     S
N286   C478    1.437   .     S
N286   H494    1.046   .     S
N286   H495    1.046   .     S
O292   Zn306   1.953   .     S
O292   Zn308   1.929   .     S
O292   Zn307   1.931   .     S
O292   Zn305   1.961   .     S
O293   Zn306   1.918   .     S
O294   Zn308   1.932   .     S
O295   Zn307   1.929   .     S
O296   Zn305   1.916   .     S
O297   Zn305   1.937   .     S
O298   Zn308   1.937   .     S
O299   Zn306   1.931   .     S
O300   Zn307   1.945   .     S
O301   Zn308   1.943   .     S
O302   Zn305   1.930   .     S
O303   Zn306   1.941   .     S
O304   Zn307   1.936   .     S
Br309  C317    1.936   .     S
Br310  C332    1.944   .     S
C311   O376    1.270   .     A
C311   C321    1.435   .     S
C311   O378    1.265   .     A
C312   H353    1.081   .     S
C312   C335    1.404   .     A
C312   C313    1.392   .     A
C313   N365    1.432   .     S
C313   C1008   1.413   .     S
C314   C320    1.464   .     S
C314   O379    1.273   .     A
C314   O377    1.285   .     A
C315   C316    1.429   .     A
C315   C317    1.427   .     A
C315   C1006   1.413   1_554 S
C316   C336    1.433   .     A
C316   C319    1.406   .     A
C317   C318    1.403   .     A
C318   N364    1.436   .     S
C318   C330    1.404   .     A
C319   H350    1.078   .     S
C319   C330    1.386   .     A
C320   C398    1.352   .     S
C320   N438    1.438   .     S
C322   N367    1.436   .     S
C322   C329    1.410   .     A
C322   C331    1.413   .     A
C323   C326    1.453   .     S
C323   C555    1.343   .     S
C323   H570    1.088   .     S
C324   C325    1.432   .     S
C325   O374    1.277   .     A
C325   O380    1.277   .     A
C326   O375    1.262   .     A
C326   O381    1.272   .     A
C327   O370    1.283   .     A
C327   C330    1.460   .     S
C327   O372    1.275   .     A
C328   O373    1.288   .     A
C328   O371    1.282   .     A
C328   C329    1.477   .     S
C329   C332    1.401   .     A
C331   N366    1.436   .     S
C331   C334    1.421   .     A
C332   C333    1.414   .     A
C333   C335    1.420   .     A
C333   C334    1.417   .     A
C334   C1031   1.415   .     S
C335   C1029   1.416   .     S
C336   C337    1.424   .     A
C336   C1028   1.416   1_554 S
C337   C338    1.413   .     A
C337   N368    1.436   .     S
C338   N360    1.436   .     S
C338   C1027   1.415   1_554 S
H342   N364    1.046   .     S
H343   N364    1.045   .     S
H344   N365    1.046   .     S
H345   N365    1.046   .     S
H346   N366    1.045   .     S
H347   N366    1.045   .     S
H348   N367    1.045   .     S
H349   N367    1.045   .     S
H351   N368    1.045   .     S
H352   N368    1.045   .     S
H354   N360    1.045   .     S
H355   N360    1.045   .     S
H356   N361    1.045   .     S
H357   N361    1.046   .     S
H358   N362    1.046   .     S
H359   N362    1.046   .     S
N362   C398    1.437   .     S
N363   C555    1.437   .     S
N363   H571    1.046   .     S
N363   H572    1.046   .     S
O369   Zn383   1.953   .     S
O369   Zn385   1.929   .     S
O369   Zn384   1.931   .     S
O369   Zn382   1.961   .     S
O370   Zn383   1.918   .     S
O371   Zn385   1.932   .     S
O372   Zn384   1.929   .     S
O373   Zn382   1.916   .     S
O374   Zn382   1.937   .     S
O375   Zn385   1.937   .     S
O376   Zn383   1.931   .     S
O377   Zn384   1.945   .     S
O378   Zn385   1.943   .     S
O379   Zn382   1.930   .     S
O380   Zn383   1.941   .     S
O381   Zn384   1.936   .     S
Br386  C394    1.936   .     S
Br387  C409    1.944   .     S
C388   O453    1.270   .     A
C388   C398    1.435   .     S
C388   O455    1.265   .     A
C389   H430    1.081   .     S
C389   C412    1.404   .     A
C389   C390    1.392   .     A
C390   N442    1.432   .     S
C390   C1085   1.413   .     S
C391   C397    1.464   .     S
C391   O456    1.273   .     A
C391   O454    1.285   .     A
C392   C393    1.429   .     A
C392   C394    1.427   .     A
C392   C1083   1.413   1_554 S
C393   C413    1.433   .     A
C393   C396    1.406   .     A
C394   C395    1.403   .     A
C395   N441    1.436   .     S
C395   C407    1.404   .     A
C396   H427    1.078   .     S
C396   C407    1.386   .     A
C397   C244    1.352   1_655 S
C397   N284    1.438   1_655 S
C399   N444    1.436   .     S
C399   C406    1.410   .     A
C399   C408    1.413   .     A
C400   C403    1.453   .     S
C400   C632    1.343   .     S
C400   H647    1.088   .     S
C401   C402    1.432   .     S
C402   O451    1.277   .     A
C402   O457    1.277   .     A
C403   O452    1.262   .     A
C403   O458    1.272   .     A
C404   O447    1.283   .     A
C404   C407    1.460   .     S
C404   O449    1.275   .     A
C405   O450    1.288   .     A
C405   O448    1.282   .     A
C405   C406    1.477   .     S
C406   C409    1.401   .     A
C408   N443    1.436   .     S
C408   C411    1.421   .     A
C409   C410    1.414   .     A
C410   C412    1.420   .     A
C410   C411    1.417   .     A
C411   C1108   1.415   .     S
C412   C1106   1.416   .     S
C413   C414    1.424   .     A
C413   C1105   1.416   1_554 S
C414   C415    1.413   .     A
C414   N445    1.436   .     S
C415   N437    1.436   .     S
C415   C1104   1.415   1_554 S
H419   N441    1.046   .     S
H420   N441    1.045   .     S
H421   N442    1.046   .     S
H422   N442    1.046   .     S
H423   N443    1.045   .     S
H424   N443    1.045   .     S
H425   N444    1.045   .     S
H426   N444    1.045   .     S
H428   N445    1.045   .     S
H429   N445    1.045   .     S
H431   N437    1.045   .     S
H432   N437    1.045   .     S
H433   N438    1.045   .     S
H434   N438    1.046   .     S
H435   N439    1.046   .     S
H436   N439    1.046   .     S
N439   C244    1.437   1_655 S
N440   C632    1.437   .     S
N440   H648    1.046   .     S
N440   H649    1.046   .     S
O446   Zn460   1.953   .     S
O446   Zn462   1.929   .     S
O446   Zn461   1.931   .     S
O446   Zn459   1.961   .     S
O447   Zn460   1.918   .     S
O448   Zn462   1.932   .     S
O449   Zn461   1.929   .     S
O450   Zn459   1.916   .     S
O451   Zn459   1.937   .     S
O452   Zn462   1.937   .     S
O453   Zn460   1.931   .     S
O454   Zn461   1.945   .     S
O455   Zn462   1.943   .     S
O456   Zn459   1.930   .     S
O457   Zn460   1.941   .     S
O458   Zn461   1.936   .     S
Br463  C471    1.936   .     S
Br464  C486    1.944   .     S
C465   O530    1.270   .     A
C465   C475    1.435   .     S
C465   O532    1.265   .     A
C466   H507    1.081   .     S
C466   C489    1.404   .     A
C466   C467    1.392   .     A
C467   N519    1.432   .     S
C467   C1162   1.413   .     S
C468   C474    1.464   .     S
C468   O533    1.273   .     A
C468   O531    1.285   .     A
C469   C470    1.429   .     A
C469   C471    1.427   .     A
C469   C1160   1.413   1_554 S
C470   C490    1.433   .     A
C470   C473    1.406   .     A
C471   C472    1.403   .     A
C472   N518    1.436   .     S
C472   C484    1.404   .     A
C473   H504    1.078   .     S
C473   C484    1.386   .     A
C474   C552    1.352   .     S
C474   N592    1.438   .     S
C475   C628    1.352   1_455 S
C475   N670    1.437   1_455 S
C476   N521    1.436   .     S
C476   C483    1.410   .     A
C476   C485    1.413   .     A
C477   C480    1.453   .     S
C477   C16     1.343   1_565 S
C477   H31     1.088   1_565 S
C478   C479    1.432   .     S
C479   O528    1.277   .     A
C479   O534    1.277   .     A
C480   O529    1.262   .     A
C480   O535    1.272   .     A
C481   O524    1.283   .     A
C481   C484    1.460   .     S
C481   O526    1.275   .     A
C482   O527    1.288   .     A
C482   O525    1.282   .     A
C482   C483    1.477   .     S
C483   C486    1.401   .     A
C485   N520    1.436   .     S
C485   C488    1.421   .     A
C486   C487    1.414   .     A
C487   C489    1.420   .     A
C487   C488    1.417   .     A
C488   C1185   1.415   .     S
C489   C1183   1.416   .     S
C490   C491    1.424   .     A
C490   C1182   1.416   1_554 S
C491   C492    1.413   .     A
C491   N522    1.436   .     S
C492   N514    1.436   .     S
C492   C1181   1.415   1_554 S
H496   N518    1.046   .     S
H497   N518    1.045   .     S
H498   N519    1.046   .     S
H499   N519    1.046   .     S
H500   N520    1.045   .     S
H501   N520    1.045   .     S
H502   N521    1.045   .     S
H503   N521    1.045   .     S
H505   N522    1.045   .     S
H506   N522    1.045   .     S
H508   N514    1.045   .     S
H509   N514    1.045   .     S
H510   N515    1.045   .     S
H511   N515    1.046   .     S
H512   N516    1.046   .     S
H513   N516    1.046   .     S
N515   C628    1.438   1_455 S
N516   C552    1.437   .     S
N517   C16     1.437   1_565 S
N517   H32     1.046   1_565 S
N517   H33     1.046   1_565 S
O523   Zn537   1.953   .     S
O523   Zn539   1.929   .     S
O523   Zn538   1.931   .     S
O523   Zn536   1.961   .     S
O524   Zn537   1.918   .     S
O525   Zn539   1.932   .     S
O526   Zn538   1.929   .     S
O527   Zn536   1.916   .     S
O528   Zn536   1.937   .     S
O529   Zn539   1.937   .     S
O530   Zn537   1.931   .     S
O531   Zn538   1.945   .     S
O532   Zn539   1.943   .     S
O533   Zn536   1.930   .     S
O534   Zn537   1.941   .     S
O535   Zn538   1.936   .     S
Br540  C548    1.936   .     S
Br541  C563    1.944   .     S
C542   O607    1.270   .     A
C542   C552    1.435   .     S
C542   O609    1.265   .     A
C543   H584    1.081   .     S
C543   C566    1.404   .     A
C543   C544    1.392   .     A
C544   N596    1.432   .     S
C544   C1239   1.413   .     S
C545   C551    1.464   .     S
C545   O610    1.273   .     A
C545   O608    1.285   .     A
C546   C547    1.429   .     A
C546   C548    1.427   .     A
C546   C1237   1.413   1_554 S
C547   C567    1.433   .     A
C547   C550    1.406   .     A
C548   C549    1.403   .     A
C549   N595    1.436   .     S
C549   C561    1.404   .     A
C550   H581    1.078   .     S
C550   C561    1.386   .     A
C551   C629    1.352   .     S
C551   N669    1.438   .     S
C553   N598    1.436   .     S
C553   C560    1.410   .     A
C553   C562    1.413   .     A
C554   C557    1.453   .     S
C554   C93     1.343   1_565 S
C554   H108    1.088   1_565 S
C555   C556    1.432   .     S
C556   O605    1.277   .     A
C556   O611    1.277   .     A
C557   O606    1.262   .     A
C557   O612    1.272   .     A
C558   O601    1.283   .     A
C558   C561    1.460   .     S
C558   O603    1.275   .     A
C559   O604    1.288   .     A
C559   O602    1.282   .     A
C559   C560    1.477   .     S
C560   C563    1.401   .     A
C562   N597    1.436   .     S
C562   C565    1.421   .     A
C563   C564    1.414   .     A
C564   C566    1.420   .     A
C564   C565    1.417   .     A
C565   C1262   1.415   .     S
C566   C1260   1.416   .     S
C567   C568    1.424   .     A
C567   C1259   1.416   1_554 S
C568   C569    1.413   .     A
C568   N599    1.436   .     S
C569   N591    1.436   .     S
C569   C1258   1.415   1_554 S
H573   N595    1.046   .     S
H574   N595    1.045   .     S
H575   N596    1.046   .     S
H576   N596    1.046   .     S
H577   N597    1.045   .     S
H578   N597    1.045   .     S
H579   N598    1.045   .     S
H580   N598    1.045   .     S
H582   N599    1.045   .     S
H583   N599    1.045   .     S
H585   N591    1.045   .     S
H586   N591    1.045   .     S
H587   N592    1.045   .     S
H588   N592    1.046   .     S
H589   N593    1.046   .     S
H590   N593    1.046   .     S
N593   C629    1.437   .     S
N594   C93     1.437   1_565 S
N594   H109    1.046   1_565 S
N594   H110    1.046   1_565 S
O600   Zn614   1.953   .     S
O600   Zn616   1.929   .     S
O600   Zn615   1.931   .     S
O600   Zn613   1.961   .     S
O601   Zn614   1.918   .     S
O602   Zn616   1.932   .     S
O603   Zn615   1.929   .     S
O604   Zn613   1.916   .     S
O605   Zn613   1.937   .     S
O606   Zn616   1.937   .     S
O607   Zn614   1.931   .     S
O608   Zn615   1.945   .     S
O609   Zn616   1.943   .     S
O610   Zn613   1.930   .     S
O611   Zn614   1.941   .     S
O612   Zn615   1.936   .     S
Br617  C625    1.936   .     S
Br618  C640    1.944   .     S
C619   O684    1.270   .     A
C619   C629    1.435   .     S
C619   O686    1.265   .     A
C620   H661    1.081   .     S
C620   C643    1.404   .     A
C620   C621    1.392   .     A
C621   N673    1.432   .     S
C621   C1316   1.413   .     S
C622   C628    1.464   .     S
C622   O687    1.273   .     A
C622   O685    1.285   .     A
C623   C624    1.429   .     A
C623   C625    1.427   .     A
C623   C1314   1.413   1_554 S
C624   C644    1.433   .     A
C624   C627    1.406   .     A
C625   C626    1.403   .     A
C626   N672    1.436   .     S
C626   C638    1.404   .     A
C627   H658    1.078   .     S
C627   C638    1.386   .     A
C628   C475    1.352   1_655 S
C628   N515    1.438   1_655 S
C630   N675    1.436   .     S
C630   C637    1.410   .     A
C630   C639    1.413   .     A
C631   C634    1.453   .     S
C631   C170    1.343   1_565 S
C631   H185    1.088   1_565 S
C632   C633    1.432   .     S
C633   O682    1.277   .     A
C633   O688    1.277   .     A
C634   O683    1.262   .     A
C634   O689    1.272   .     A
C635   O678    1.283   .     A
C635   C638    1.460   .     S
C635   O680    1.275   .     A
C636   O681    1.288   .     A
C636   O679    1.282   .     A
C636   C637    1.477   .     S
C637   C640    1.401   .     A
C639   N674    1.436   .     S
C639   C642    1.421   .     A
C640   C641    1.414   .     A
C641   C643    1.420   .     A
C641   C642    1.417   .     A
C642   C1339   1.415   .     S
C643   C1337   1.416   .     S
C644   C645    1.424   .     A
C644   C1336   1.416   1_554 S
C645   C646    1.413   .     A
C645   N676    1.436   .     S
C646   N668    1.436   .     S
C646   C1335   1.415   1_554 S
H650   N672    1.046   .     S
H651   N672    1.045   .     S
H652   N673    1.046   .     S
H653   N673    1.046   .     S
H654   N674    1.045   .     S
H655   N674    1.045   .     S
H656   N675    1.045   .     S
H657   N675    1.045   .     S
H659   N676    1.045   .     S
H660   N676    1.045   .     S
H662   N668    1.045   .     S
H663   N668    1.045   .     S
H664   N669    1.045   .     S
H665   N669    1.046   .     S
H666   N670    1.046   .     S
H667   N670    1.046   .     S
N670   C475    1.437   1_655 S
N671   C170    1.437   1_565 S
N671   H186    1.046   1_565 S
N671   H187    1.046   1_565 S
O677   Zn691   1.953   .     S
O677   Zn693   1.929   .     S
O677   Zn692   1.931   .     S
O677   Zn690   1.961   .     S
O678   Zn691   1.918   .     S
O679   Zn693   1.932   .     S
O680   Zn692   1.929   .     S
O681   Zn690   1.916   .     S
O682   Zn690   1.937   .     S
O683   Zn693   1.937   .     S
O684   Zn691   1.931   .     S
O685   Zn692   1.945   .     S
O686   Zn693   1.943   .     S
O687   Zn690   1.930   .     S
O688   Zn691   1.941   .     S
O689   Zn692   1.936   .     S
Br694  C702    1.936   .     S
Br695  C717    1.944   .     S
C696   O761    1.270   .     A
C696   C706    1.435   .     S
C696   O763    1.265   .     A
C697   H738    1.081   .     S
C697   C720    1.404   .     A
C697   C698    1.392   .     A
C698   N750    1.432   .     S
C698   C7      1.413   1_556 S
C699   C705    1.464   .     S
C699   O764    1.273   .     A
C699   O762    1.285   .     A
C700   C701    1.429   .     A
C700   C702    1.427   .     A
C701   C721    1.433   .     A
C701   C704    1.406   .     A
C702   C703    1.403   .     A
C703   N749    1.436   .     S
C703   C715    1.404   .     A
C704   H735    1.078   .     S
C704   C715    1.386   .     A
C705   C783    1.352   .     S
C705   N823    1.438   .     S
C706   C859    1.352   1_455 S
C706   N901    1.437   1_455 S
C707   N752    1.436   .     S
C707   C714    1.410   .     A
C707   C716    1.413   .     A
C708   C711    1.453   .     S
C708   C940    1.343   .     S
C708   H955    1.088   .     S
C709   C710    1.432   .     S
C709   C1170   1.343   1_545 S
C709   N1210   1.437   1_545 S
C710   O759    1.277   .     A
C710   O765    1.277   .     A
C711   O760    1.262   .     A
C711   O766    1.272   .     A
C712   O755    1.283   .     A
C712   C715    1.460   .     S
C712   O757    1.275   .     A
C713   O758    1.288   .     A
C713   O756    1.282   .     A
C713   C714    1.477   .     S
C714   C717    1.401   .     A
C716   N751    1.436   .     S
C716   C719    1.421   .     A
C717   C718    1.414   .     A
C718   C720    1.420   .     A
C718   C719    1.417   .     A
C719   C30     1.415   1_556 S
C720   C28     1.416   1_556 S
C721   C722    1.424   .     A
C722   C723    1.413   .     A
C722   N753    1.436   .     S
C723   N745    1.436   .     S
H724   C1170   1.088   1_545 S
H725   N1210   1.046   1_545 S
H726   N1210   1.046   1_545 S
H727   N749    1.046   .     S
H728   N749    1.045   .     S
H729   N750    1.046   .     S
H730   N750    1.046   .     S
H731   N751    1.045   .     S
H732   N751    1.045   .     S
H733   N752    1.045   .     S
H734   N752    1.045   .     S
H736   N753    1.045   .     S
H737   N753    1.045   .     S
H739   N745    1.045   .     S
H740   N745    1.045   .     S
H741   N746    1.045   .     S
H742   N746    1.046   .     S
H743   N747    1.046   .     S
H744   N747    1.046   .     S
N746   C859    1.438   1_455 S
N747   C783    1.437   .     S
N748   C940    1.437   .     S
N748   H956    1.046   .     S
N748   H957    1.046   .     S
O754   Zn768   1.953   .     S
O754   Zn770   1.929   .     S
O754   Zn769   1.931   .     S
O754   Zn767   1.961   .     S
O755   Zn768   1.918   .     S
O756   Zn770   1.932   .     S
O757   Zn769   1.929   .     S
O758   Zn767   1.916   .     S
O759   Zn767   1.937   .     S
O760   Zn770   1.937   .     S
O761   Zn768   1.931   .     S
O762   Zn769   1.945   .     S
O763   Zn770   1.943   .     S
O764   Zn767   1.930   .     S
O765   Zn768   1.941   .     S
O766   Zn769   1.936   .     S
Br771  C779    1.936   .     S
Br772  C794    1.944   .     S
C773   O838    1.270   .     A
C773   C783    1.435   .     S
C773   O840    1.265   .     A
C774   H815    1.081   .     S
C774   C797    1.404   .     A
C774   C775    1.392   .     A
C775   N827    1.432   .     S
C775   C84     1.413   1_556 S
C776   C782    1.464   .     S
C776   O841    1.273   .     A
C776   O839    1.285   .     A
C777   C778    1.429   .     A
C777   C779    1.427   .     A
C778   C798    1.433   .     A
C778   C781    1.406   .     A
C779   C780    1.403   .     A
C780   N826    1.436   .     S
C780   C792    1.404   .     A
C781   H812    1.078   .     S
C781   C792    1.386   .     A
C782   C860    1.352   .     S
C782   N900    1.438   .     S
C784   N829    1.436   .     S
C784   C791    1.410   .     A
C784   C793    1.413   .     A
C785   C788    1.453   .     S
C785   C1017   1.343   .     S
C785   H1032   1.088   .     S
C786   C787    1.432   .     S
C786   C1247   1.343   1_545 S
C786   N1287   1.437   1_545 S
C787   O836    1.277   .     A
C787   O842    1.277   .     A
C788   O837    1.262   .     A
C788   O843    1.272   .     A
C789   O832    1.283   .     A
C789   C792    1.460   .     S
C789   O834    1.275   .     A
C790   O835    1.288   .     A
C790   O833    1.282   .     A
C790   C791    1.477   .     S
C791   C794    1.401   .     A
C793   N828    1.436   .     S
C793   C796    1.421   .     A
C794   C795    1.414   .     A
C795   C797    1.420   .     A
C795   C796    1.417   .     A
C796   C107    1.415   1_556 S
C797   C105    1.416   1_556 S
C798   C799    1.424   .     A
C799   C800    1.413   .     A
C799   N830    1.436   .     S
C800   N822    1.436   .     S
H801   C1247   1.088   1_545 S
H802   N1287   1.046   1_545 S
H803   N1287   1.046   1_545 S
H804   N826    1.046   .     S
H805   N826    1.045   .     S
H806   N827    1.046   .     S
H807   N827    1.046   .     S
H808   N828    1.045   .     S
H809   N828    1.045   .     S
H810   N829    1.045   .     S
H811   N829    1.045   .     S
H813   N830    1.045   .     S
H814   N830    1.045   .     S
H816   N822    1.045   .     S
H817   N822    1.045   .     S
H818   N823    1.045   .     S
H819   N823    1.046   .     S
H820   N824    1.046   .     S
H821   N824    1.046   .     S
N824   C860    1.437   .     S
N825   C1017   1.437   .     S
N825   H1033   1.046   .     S
N825   H1034   1.046   .     S
O831   Zn845   1.953   .     S
O831   Zn847   1.929   .     S
O831   Zn846   1.931   .     S
O831   Zn844   1.961   .     S
O832   Zn845   1.918   .     S
O833   Zn847   1.932   .     S
O834   Zn846   1.929   .     S
O835   Zn844   1.916   .     S
O836   Zn844   1.937   .     S
O837   Zn847   1.937   .     S
O838   Zn845   1.931   .     S
O839   Zn846   1.945   .     S
O840   Zn847   1.943   .     S
O841   Zn844   1.930   .     S
O842   Zn845   1.941   .     S
O843   Zn846   1.936   .     S
Br848  C856    1.936   .     S
Br849  C871    1.944   .     S
C850   O915    1.270   .     A
C850   C860    1.435   .     S
C850   O917    1.265   .     A
C851   H892    1.081   .     S
C851   C874    1.404   .     A
C851   C852    1.392   .     A
C852   N904    1.432   .     S
C852   C161    1.413   1_556 S
C853   C859    1.464   .     S
C853   O918    1.273   .     A
C853   O916    1.285   .     A
C854   C855    1.429   .     A
C854   C856    1.427   .     A
C855   C875    1.433   .     A
C855   C858    1.406   .     A
C856   C857    1.403   .     A
C857   N903    1.436   .     S
C857   C869    1.404   .     A
C858   H889    1.078   .     S
C858   C869    1.386   .     A
C859   C706    1.352   1_655 S
C859   N746    1.438   1_655 S
C861   N906    1.436   .     S
C861   C868    1.410   .     A
C861   C870    1.413   .     A
C862   C865    1.453   .     S
C862   C1094   1.343   .     S
C862   H1109   1.088   .     S
C863   C864    1.432   .     S
C863   C1324   1.343   1_545 S
C863   N1364   1.437   1_545 S
C864   O913    1.277   .     A
C864   O919    1.277   .     A
C865   O914    1.262   .     A
C865   O920    1.272   .     A
C866   O909    1.283   .     A
C866   C869    1.460   .     S
C866   O911    1.275   .     A
C867   O912    1.288   .     A
C867   O910    1.282   .     A
C867   C868    1.477   .     S
C868   C871    1.401   .     A
C870   N905    1.436   .     S
C870   C873    1.421   .     A
C871   C872    1.414   .     A
C872   C874    1.420   .     A
C872   C873    1.417   .     A
C873   C184    1.415   1_556 S
C874   C182    1.416   1_556 S
C875   C876    1.424   .     A
C876   C877    1.413   .     A
C876   N907    1.436   .     S
C877   N899    1.436   .     S
H878   C1324   1.088   1_545 S
H879   N1364   1.046   1_545 S
H880   N1364   1.046   1_545 S
H881   N903    1.046   .     S
H882   N903    1.045   .     S
H883   N904    1.046   .     S
H884   N904    1.046   .     S
H885   N905    1.045   .     S
H886   N905    1.045   .     S
H887   N906    1.045   .     S
H888   N906    1.045   .     S
H890   N907    1.045   .     S
H891   N907    1.045   .     S
H893   N899    1.045   .     S
H894   N899    1.045   .     S
H895   N900    1.045   .     S
H896   N900    1.046   .     S
H897   N901    1.046   .     S
H898   N901    1.046   .     S
N901   C706    1.437   1_655 S
N902   C1094   1.437   .     S
N902   H1110   1.046   .     S
N902   H1111   1.046   .     S
O908   Zn922   1.953   .     S
O908   Zn924   1.929   .     S
O908   Zn923   1.931   .     S
O908   Zn921   1.961   .     S
O909   Zn922   1.918   .     S
O910   Zn924   1.932   .     S
O911   Zn923   1.929   .     S
O912   Zn921   1.916   .     S
O913   Zn921   1.937   .     S
O914   Zn924   1.937   .     S
O915   Zn922   1.931   .     S
O916   Zn923   1.945   .     S
O917   Zn924   1.943   .     S
O918   Zn921   1.930   .     S
O919   Zn922   1.941   .     S
O920   Zn923   1.936   .     S
Br925  C933    1.936   .     S
Br926  C948    1.944   .     S
C927   O992    1.270   .     A
C927   C937    1.435   .     S
C927   O994    1.265   .     A
C928   H969    1.081   .     S
C928   C951    1.404   .     A
C928   C929    1.392   .     A
C929   N981    1.432   .     S
C929   C238    1.413   1_556 S
C930   C936    1.464   .     S
C930   O995    1.273   .     A
C930   O993    1.285   .     A
C931   C932    1.429   .     A
C931   C933    1.427   .     A
C932   C952    1.433   .     A
C932   C935    1.406   .     A
C933   C934    1.403   .     A
C934   N980    1.436   .     S
C934   C946    1.404   .     A
C935   H966    1.078   .     S
C935   C946    1.386   .     A
C936   C1014   1.352   .     S
C936   N1054   1.438   .     S
C937   C1090   1.352   1_455 S
C937   N1132   1.437   1_455 S
C938   N983    1.436   .     S
C938   C945    1.410   .     A
C938   C947    1.413   .     A
C939   C942    1.453   .     S
C939   C1171   1.343   .     S
C939   H1186   1.088   .     S
C940   C941    1.432   .     S
C941   O990    1.277   .     A
C941   O996    1.277   .     A
C942   O991    1.262   .     A
C942   O997    1.272   .     A
C943   O986    1.283   .     A
C943   C946    1.460   .     S
C943   O988    1.275   .     A
C944   O989    1.288   .     A
C944   O987    1.282   .     A
C944   C945    1.477   .     S
C945   C948    1.401   .     A
C947   N982    1.436   .     S
C947   C950    1.421   .     A
C948   C949    1.414   .     A
C949   C951    1.420   .     A
C949   C950    1.417   .     A
C950   C261    1.415   1_556 S
C951   C259    1.416   1_556 S
C952   C953    1.424   .     A
C953   C954    1.413   .     A
C953   N984    1.436   .     S
C954   N976    1.436   .     S
H958   N980    1.046   .     S
H959   N980    1.045   .     S
H960   N981    1.046   .     S
H961   N981    1.046   .     S
H962   N982    1.045   .     S
H963   N982    1.045   .     S
H964   N983    1.045   .     S
H965   N983    1.045   .     S
H967   N984    1.045   .     S
H968   N984    1.045   .     S
H970   N976    1.045   .     S
H971   N976    1.045   .     S
H972   N977    1.045   .     S
H973   N977    1.046   .     S
H974   N978    1.046   .     S
H975   N978    1.046   .     S
N977   C1090   1.438   1_455 S
N978   C1014   1.437   .     S
N979   C1171   1.437   .     S
N979   H1187   1.046   .     S
N979   H1188   1.046   .     S
O985   Zn999   1.953   .     S
O985   Zn1001  1.929   .     S
O985   Zn1000  1.931   .     S
O985   Zn998   1.961   .     S
O986   Zn999   1.918   .     S
O987   Zn1001  1.932   .     S
O988   Zn1000  1.929   .     S
O989   Zn998   1.916   .     S
O990   Zn998   1.937   .     S
O991   Zn1001  1.937   .     S
O992   Zn999   1.931   .     S
O993   Zn1000  1.945   .     S
O994   Zn1001  1.943   .     S
O995   Zn998   1.930   .     S
O996   Zn999   1.941   .     S
O997   Zn1000  1.936   .     S
Br1002 C1010   1.936   .     S
Br1003 C1025   1.944   .     S
C1004  O1069   1.270   .     A
C1004  C1014   1.435   .     S
C1004  O1071   1.265   .     A
C1005  H1046   1.081   .     S
C1005  C1028   1.404   .     A
C1005  C1006   1.392   .     A
C1006  N1058   1.432   .     S
C1006  C315    1.413   1_556 S
C1007  C1013   1.464   .     S
C1007  O1072   1.273   .     A
C1007  O1070   1.285   .     A
C1008  C1009   1.429   .     A
C1008  C1010   1.427   .     A
C1009  C1029   1.433   .     A
C1009  C1012   1.406   .     A
C1010  C1011   1.403   .     A
C1011  N1057   1.436   .     S
C1011  C1023   1.404   .     A
C1012  H1043   1.078   .     S
C1012  C1023   1.386   .     A
C1013  C1091   1.352   .     S
C1013  N1131   1.438   .     S
C1015  N1060   1.436   .     S
C1015  C1022   1.410   .     A
C1015  C1024   1.413   .     A
C1016  C1019   1.453   .     S
C1016  C1248   1.343   .     S
C1016  H1263   1.088   .     S
C1017  C1018   1.432   .     S
C1018  O1067   1.277   .     A
C1018  O1073   1.277   .     A
C1019  O1068   1.262   .     A
C1019  O1074   1.272   .     A
C1020  O1063   1.283   .     A
C1020  C1023   1.460   .     S
C1020  O1065   1.275   .     A
C1021  O1066   1.288   .     A
C1021  O1064   1.282   .     A
C1021  C1022   1.477   .     S
C1022  C1025   1.401   .     A
C1024  N1059   1.436   .     S
C1024  C1027   1.421   .     A
C1025  C1026   1.414   .     A
C1026  C1028   1.420   .     A
C1026  C1027   1.417   .     A
C1027  C338    1.415   1_556 S
C1028  C336    1.416   1_556 S
C1029  C1030   1.424   .     A
C1030  C1031   1.413   .     A
C1030  N1061   1.436   .     S
C1031  N1053   1.436   .     S
H1035  N1057   1.046   .     S
H1036  N1057   1.045   .     S
H1037  N1058   1.046   .     S
H1038  N1058   1.046   .     S
H1039  N1059   1.045   .     S
H1040  N1059   1.045   .     S
H1041  N1060   1.045   .     S
H1042  N1060   1.045   .     S
H1044  N1061   1.045   .     S
H1045  N1061   1.045   .     S
H1047  N1053   1.045   .     S
H1048  N1053   1.045   .     S
H1049  N1054   1.045   .     S
H1050  N1054   1.046   .     S
H1051  N1055   1.046   .     S
H1052  N1055   1.046   .     S
N1055  C1091   1.437   .     S
N1056  C1248   1.437   .     S
N1056  H1264   1.046   .     S
N1056  H1265   1.046   .     S
O1062  Zn1076  1.953   .     S
O1062  Zn1078  1.929   .     S
O1062  Zn1077  1.931   .     S
O1062  Zn1075  1.961   .     S
O1063  Zn1076  1.918   .     S
O1064  Zn1078  1.932   .     S
O1065  Zn1077  1.929   .     S
O1066  Zn1075  1.916   .     S
O1067  Zn1075  1.937   .     S
O1068  Zn1078  1.937   .     S
O1069  Zn1076  1.931   .     S
O1070  Zn1077  1.945   .     S
O1071  Zn1078  1.943   .     S
O1072  Zn1075  1.930   .     S
O1073  Zn1076  1.941   .     S
O1074  Zn1077  1.936   .     S
Br1079 C1087   1.936   .     S
Br1080 C1102   1.944   .     S
C1081  O1146   1.270   .     A
C1081  C1091   1.435   .     S
C1081  O1148   1.265   .     A
C1082  H1123   1.081   .     S
C1082  C1105   1.404   .     A
C1082  C1083   1.392   .     A
C1083  N1135   1.432   .     S
C1083  C392    1.413   1_556 S
C1084  C1090   1.464   .     S
C1084  O1149   1.273   .     A
C1084  O1147   1.285   .     A
C1085  C1086   1.429   .     A
C1085  C1087   1.427   .     A
C1086  C1106   1.433   .     A
C1086  C1089   1.406   .     A
C1087  C1088   1.403   .     A
C1088  N1134   1.436   .     S
C1088  C1100   1.404   .     A
C1089  H1120   1.078   .     S
C1089  C1100   1.386   .     A
C1090  C937    1.352   1_655 S
C1090  N977    1.438   1_655 S
C1092  N1137   1.436   .     S
C1092  C1099   1.410   .     A
C1092  C1101   1.413   .     A
C1093  C1096   1.453   .     S
C1093  C1325   1.343   .     S
C1093  H1340   1.088   .     S
C1094  C1095   1.432   .     S
C1095  O1144   1.277   .     A
C1095  O1150   1.277   .     A
C1096  O1145   1.262   .     A
C1096  O1151   1.272   .     A
C1097  O1140   1.283   .     A
C1097  C1100   1.460   .     S
C1097  O1142   1.275   .     A
C1098  O1143   1.288   .     A
C1098  O1141   1.282   .     A
C1098  C1099   1.477   .     S
C1099  C1102   1.401   .     A
C1101  N1136   1.436   .     S
C1101  C1104   1.421   .     A
C1102  C1103   1.414   .     A
C1103  C1105   1.420   .     A
C1103  C1104   1.417   .     A
C1104  C415    1.415   1_556 S
C1105  C413    1.416   1_556 S
C1106  C1107   1.424   .     A
C1107  C1108   1.413   .     A
C1107  N1138   1.436   .     S
C1108  N1130   1.436   .     S
H1112  N1134   1.046   .     S
H1113  N1134   1.045   .     S
H1114  N1135   1.046   .     S
H1115  N1135   1.046   .     S
H1116  N1136   1.045   .     S
H1117  N1136   1.045   .     S
H1118  N1137   1.045   .     S
H1119  N1137   1.045   .     S
H1121  N1138   1.045   .     S
H1122  N1138   1.045   .     S
H1124  N1130   1.045   .     S
H1125  N1130   1.045   .     S
H1126  N1131   1.045   .     S
H1127  N1131   1.046   .     S
H1128  N1132   1.046   .     S
H1129  N1132   1.046   .     S
N1132  C937    1.437   1_655 S
N1133  C1325   1.437   .     S
N1133  H1341   1.046   .     S
N1133  H1342   1.046   .     S
O1139  Zn1153  1.953   .     S
O1139  Zn1155  1.929   .     S
O1139  Zn1154  1.931   .     S
O1139  Zn1152  1.961   .     S
O1140  Zn1153  1.918   .     S
O1141  Zn1155  1.932   .     S
O1142  Zn1154  1.929   .     S
O1143  Zn1152  1.916   .     S
O1144  Zn1152  1.937   .     S
O1145  Zn1155  1.937   .     S
O1146  Zn1153  1.931   .     S
O1147  Zn1154  1.945   .     S
O1148  Zn1155  1.943   .     S
O1149  Zn1152  1.930   .     S
O1150  Zn1153  1.941   .     S
O1151  Zn1154  1.936   .     S
Br1156 C1164   1.936   .     S
Br1157 C1179   1.944   .     S
C1158  O1223   1.270   .     A
C1158  C1168   1.435   .     S
C1158  O1225   1.265   .     A
C1159  H1200   1.081   .     S
C1159  C1182   1.404   .     A
C1159  C1160   1.392   .     A
C1160  N1212   1.432   .     S
C1160  C469    1.413   1_556 S
C1161  C1167   1.464   .     S
C1161  O1226   1.273   .     A
C1161  O1224   1.285   .     A
C1162  C1163   1.429   .     A
C1162  C1164   1.427   .     A
C1163  C1183   1.433   .     A
C1163  C1166   1.406   .     A
C1164  C1165   1.403   .     A
C1165  N1211   1.436   .     S
C1165  C1177   1.404   .     A
C1166  H1197   1.078   .     S
C1166  C1177   1.386   .     A
C1167  C1245   1.352   .     S
C1167  N1285   1.438   .     S
C1168  C1321   1.352   1_455 S
C1168  N1363   1.437   1_455 S
C1169  N1214   1.436   .     S
C1169  C1176   1.410   .     A
C1169  C1178   1.413   .     A
C1170  C1173   1.453   .     S
C1170  C709    1.343   1_565 S
C1170  H724    1.088   1_565 S
C1171  C1172   1.432   .     S
C1172  O1221   1.277   .     A
C1172  O1227   1.277   .     A
C1173  O1222   1.262   .     A
C1173  O1228   1.272   .     A
C1174  O1217   1.283   .     A
C1174  C1177   1.460   .     S
C1174  O1219   1.275   .     A
C1175  O1220   1.288   .     A
C1175  O1218   1.282   .     A
C1175  C1176   1.477   .     S
C1176  C1179   1.401   .     A
C1178  N1213   1.436   .     S
C1178  C1181   1.421   .     A
C1179  C1180   1.414   .     A
C1180  C1182   1.420   .     A
C1180  C1181   1.417   .     A
C1181  C492    1.415   1_556 S
C1182  C490    1.416   1_556 S
C1183  C1184   1.424   .     A
C1184  C1185   1.413   .     A
C1184  N1215   1.436   .     S
C1185  N1207   1.436   .     S
H1189  N1211   1.046   .     S
H1190  N1211   1.045   .     S
H1191  N1212   1.046   .     S
H1192  N1212   1.046   .     S
H1193  N1213   1.045   .     S
H1194  N1213   1.045   .     S
H1195  N1214   1.045   .     S
H1196  N1214   1.045   .     S
H1198  N1215   1.045   .     S
H1199  N1215   1.045   .     S
H1201  N1207   1.045   .     S
H1202  N1207   1.045   .     S
H1203  N1208   1.045   .     S
H1204  N1208   1.046   .     S
H1205  N1209   1.046   .     S
H1206  N1209   1.046   .     S
N1208  C1321   1.438   1_455 S
N1209  C1245   1.437   .     S
N1210  C709    1.437   1_565 S
N1210  H725    1.046   1_565 S
N1210  H726    1.046   1_565 S
O1216  Zn1230  1.953   .     S
O1216  Zn1232  1.929   .     S
O1216  Zn1231  1.931   .     S
O1216  Zn1229  1.961   .     S
O1217  Zn1230  1.918   .     S
O1218  Zn1232  1.932   .     S
O1219  Zn1231  1.929   .     S
O1220  Zn1229  1.916   .     S
O1221  Zn1229  1.937   .     S
O1222  Zn1232  1.937   .     S
O1223  Zn1230  1.931   .     S
O1224  Zn1231  1.945   .     S
O1225  Zn1232  1.943   .     S
O1226  Zn1229  1.930   .     S
O1227  Zn1230  1.941   .     S
O1228  Zn1231  1.936   .     S
Br1233 C1241   1.936   .     S
Br1234 C1256   1.944   .     S
C1235  O1300   1.270   .     A
C1235  C1245   1.435   .     S
C1235  O1302   1.265   .     A
C1236  H1277   1.081   .     S
C1236  C1259   1.404   .     A
C1236  C1237   1.392   .     A
C1237  N1289   1.432   .     S
C1237  C546    1.413   1_556 S
C1238  C1244   1.464   .     S
C1238  O1303   1.273   .     A
C1238  O1301   1.285   .     A
C1239  C1240   1.429   .     A
C1239  C1241   1.427   .     A
C1240  C1260   1.433   .     A
C1240  C1243   1.406   .     A
C1241  C1242   1.403   .     A
C1242  N1288   1.436   .     S
C1242  C1254   1.404   .     A
C1243  H1274   1.078   .     S
C1243  C1254   1.386   .     A
C1244  C1322   1.352   .     S
C1244  N1362   1.438   .     S
C1246  N1291   1.436   .     S
C1246  C1253   1.410   .     A
C1246  C1255   1.413   .     A
C1247  C1250   1.453   .     S
C1247  C786    1.343   1_565 S
C1247  H801    1.088   1_565 S
C1248  C1249   1.432   .     S
C1249  O1298   1.277   .     A
C1249  O1304   1.277   .     A
C1250  O1299   1.262   .     A
C1250  O1305   1.272   .     A
C1251  O1294   1.283   .     A
C1251  C1254   1.460   .     S
C1251  O1296   1.275   .     A
C1252  O1297   1.288   .     A
C1252  O1295   1.282   .     A
C1252  C1253   1.477   .     S
C1253  C1256   1.401   .     A
C1255  N1290   1.436   .     S
C1255  C1258   1.421   .     A
C1256  C1257   1.414   .     A
C1257  C1259   1.420   .     A
C1257  C1258   1.417   .     A
C1258  C569    1.415   1_556 S
C1259  C567    1.416   1_556 S
C1260  C1261   1.424   .     A
C1261  C1262   1.413   .     A
C1261  N1292   1.436   .     S
C1262  N1284   1.436   .     S
H1266  N1288   1.046   .     S
H1267  N1288   1.045   .     S
H1268  N1289   1.046   .     S
H1269  N1289   1.046   .     S
H1270  N1290   1.045   .     S
H1271  N1290   1.045   .     S
H1272  N1291   1.045   .     S
H1273  N1291   1.045   .     S
H1275  N1292   1.045   .     S
H1276  N1292   1.045   .     S
H1278  N1284   1.045   .     S
H1279  N1284   1.045   .     S
H1280  N1285   1.045   .     S
H1281  N1285   1.046   .     S
H1282  N1286   1.046   .     S
H1283  N1286   1.046   .     S
N1286  C1322   1.437   .     S
N1287  C786    1.437   1_565 S
N1287  H802    1.046   1_565 S
N1287  H803    1.046   1_565 S
O1293  Zn1307  1.953   .     S
O1293  Zn1309  1.929   .     S
O1293  Zn1308  1.931   .     S
O1293  Zn1306  1.961   .     S
O1294  Zn1307  1.918   .     S
O1295  Zn1309  1.932   .     S
O1296  Zn1308  1.929   .     S
O1297  Zn1306  1.916   .     S
O1298  Zn1306  1.937   .     S
O1299  Zn1309  1.937   .     S
O1300  Zn1307  1.931   .     S
O1301  Zn1308  1.945   .     S
O1302  Zn1309  1.943   .     S
O1303  Zn1306  1.930   .     S
O1304  Zn1307  1.941   .     S
O1305  Zn1308  1.936   .     S
Br1310 C1318   1.936   .     S
Br1311 C1333   1.944   .     S
C1312  O1377   1.270   .     A
C1312  C1322   1.435   .     S
C1312  O1379   1.265   .     A
C1313  H1354   1.081   .     S
C1313  C1336   1.404   .     A
C1313  C1314   1.392   .     A
C1314  N1366   1.432   .     S
C1314  C623    1.413   1_556 S
C1315  C1321   1.464   .     S
C1315  O1380   1.273   .     A
C1315  O1378   1.285   .     A
C1316  C1317   1.429   .     A
C1316  C1318   1.427   .     A
C1317  C1337   1.433   .     A
C1317  C1320   1.406   .     A
C1318  C1319   1.403   .     A
C1319  N1365   1.436   .     S
C1319  C1331   1.404   .     A
C1320  H1351   1.078   .     S
C1320  C1331   1.386   .     A
C1321  C1168   1.352   1_655 S
C1321  N1208   1.438   1_655 S
C1323  N1368   1.436   .     S
C1323  C1330   1.410   .     A
C1323  C1332   1.413   .     A
C1324  C1327   1.453   .     S
C1324  C863    1.343   1_565 S
C1324  H878    1.088   1_565 S
C1325  C1326   1.432   .     S
C1326  O1375   1.277   .     A
C1326  O1381   1.277   .     A
C1327  O1376   1.262   .     A
C1327  O1382   1.272   .     A
C1328  O1371   1.283   .     A
C1328  C1331   1.460   .     S
C1328  O1373   1.275   .     A
C1329  O1374   1.288   .     A
C1329  O1372   1.282   .     A
C1329  C1330   1.477   .     S
C1330  C1333   1.401   .     A
C1332  N1367   1.436   .     S
C1332  C1335   1.421   .     A
C1333  C1334   1.414   .     A
C1334  C1336   1.420   .     A
C1334  C1335   1.417   .     A
C1335  C646    1.415   1_556 S
C1336  C644    1.416   1_556 S
C1337  C1338   1.424   .     A
C1338  C1339   1.413   .     A
C1338  N1369   1.436   .     S
C1339  N1361   1.436   .     S
H1343  N1365   1.046   .     S
H1344  N1365   1.045   .     S
H1345  N1366   1.046   .     S
H1346  N1366   1.046   .     S
H1347  N1367   1.045   .     S
H1348  N1367   1.045   .     S
H1349  N1368   1.045   .     S
H1350  N1368   1.045   .     S
H1352  N1369   1.045   .     S
H1353  N1369   1.045   .     S
H1355  N1361   1.045   .     S
H1356  N1361   1.045   .     S
H1357  N1362   1.045   .     S
H1358  N1362   1.046   .     S
H1359  N1363   1.046   .     S
H1360  N1363   1.046   .     S
N1363  C1168   1.437   1_655 S
N1364  C863    1.437   1_565 S
N1364  H879    1.046   1_565 S
N1364  H880    1.046   1_565 S
O1370  Zn1384  1.953   .     S
O1370  Zn1386  1.929   .     S
O1370  Zn1385  1.931   .     S
O1370  Zn1383  1.961   .     S
O1371  Zn1384  1.918   .     S
O1372  Zn1386  1.932   .     S
O1373  Zn1385  1.929   .     S
O1374  Zn1383  1.916   .     S
O1375  Zn1383  1.937   .     S
O1376  Zn1386  1.937   .     S
O1377  Zn1384  1.931   .     S
O1378  Zn1385  1.945   .     S
O1379  Zn1386  1.943   .     S
O1380  Zn1383  1.930   .     S
O1381  Zn1384  1.941   .     S
O1382  Zn1385  1.936   .     S
