data_str_m1_o10_o18_pcu_sym.17
_audit_creation_date              2020-01-03
_audit_creation_method            'Materials Studio'
_symmetry_space_group_name_H-M    'P1'
_symmetry_Int_Tables_number       1
_symmetry_cell_setting            triclinic
loop_
_symmetry_equiv_pos_as_xyz
  x,y,z
_cell_length_a                    32.5404
_cell_length_b                    32.5174
_cell_length_c                    35.8672
_cell_angle_alpha                 98.4848
_cell_angle_beta                  73.0039
_cell_angle_gamma                 98.6012
loop_
_atom_site_label
_atom_site_type_symbol
_atom_site_fract_x
_atom_site_fract_y
_atom_site_fract_z
_atom_site_U_iso_or_equiv
_atom_site_adp_type
_atom_site_occupancy
Zn1    Zn    0.19244   0.14090   0.28277   0.00000  Uiso   1.00
Zn2    Zn    0.13459   0.12378   0.22257   0.00000  Uiso   1.00
Zn3    Zn    0.21166   0.19664   0.21188   0.00000  Uiso   1.00
Zn4    Zn    0.12798   0.20535   0.28277   0.00000  Uiso   1.00
O5     O     0.16667   0.16667   0.25000   0.00000  Uiso   1.00
O6     O     0.06990   0.18960   0.27820   0.00000  Uiso   1.00
O7     O     0.25440   0.15277   0.26767   0.00000  Uiso   1.00
O8     O     0.13800   0.06903   0.23607   0.00000  Uiso   1.00
O9     O     0.20437   0.25527   0.21805   0.00000  Uiso   1.00
O10    O     0.15693   0.12393   0.16625   0.00000  Uiso   1.00
O11    O     0.12687   0.20646   0.33749   0.00000  Uiso   1.00
O12    O     0.21088   0.17493   0.15877   0.00000  Uiso   1.00
O13    O     0.17198   0.16135   0.33749   0.00000  Uiso   1.00
O14    O     0.17849   0.08101   0.27820   0.00000  Uiso   1.00
O15    O     0.14581   0.26136   0.26767   0.00000  Uiso   1.00
O16    O     0.07452   0.13251   0.23607   0.00000  Uiso   1.00
O17    O     0.26785   0.19179   0.21805   0.00000  Uiso   1.00
C18    C     0.05247   0.15998   0.25870   0.00000  Uiso   1.00
C19    C     0.28101   0.17356   0.24120   0.00000  Uiso   1.00
C20    C     0.15578   0.05614   0.25892   0.00000  Uiso   1.00
C21    C     0.17678   0.27765   0.24139   0.00000  Uiso   1.00
C22    C     0.18815   0.14506   0.14414   0.00000  Uiso   1.00
C23    C     0.14584   0.18844   0.35616   0.00000  Uiso   1.00
C24    C     0.13643   0.19751   0.39934   0.00000  Uiso   1.00
C25    C     0.19562   0.13592   0.10193   0.00000  Uiso   1.00
C26    C     0.09614   0.22928   0.46252   0.00000  Uiso   1.00
C27    C     0.10679   0.22570   0.42164   0.00000  Uiso   1.00
C28    C     0.15657   0.17573   0.41875   0.00000  Uiso   1.00
C29    C     0.14661   0.17958   0.45994   0.00000  Uiso   1.00
C30    C     0.11562   0.20671   0.48167   0.00000  Uiso   1.00
C31    C     0.16642   0.15735   0.48023   0.00000  Uiso   1.00
C32    C     0.15785   0.16597   0.02166   0.00000  Uiso   1.00
C33    C     0.12417   0.19042   0.04214   0.00000  Uiso   1.00
C34    C     0.10391   0.21088   0.02248   0.00000  Uiso   1.00
C35    C     0.19329   0.12591   0.46088   0.00000  Uiso   1.00
C36    C     0.20979   0.10288   0.48167   0.00000  Uiso   1.00
C37    C     0.20264   0.11192   0.02227   0.00000  Uiso   1.00
C38    C     0.18060   0.14703   0.04181   0.00000  Uiso   1.00
C39    C     0.21781   0.08720   0.04369   0.00000  Uiso   1.00
C40    C     0.21271   0.09889   0.08365   0.00000  Uiso   1.00
C41    C     0.18186   0.16159   0.08086   0.00000  Uiso   1.00
H42    H     0.07880   0.23007   0.03939   0.00000  Uiso   1.00
H43    H     0.22235   0.07903   0.10065   0.00000  Uiso   1.00
H44    H     0.22914   0.07844   0.46525   0.00000  Uiso   1.00
H45    H     0.07310   0.25060   0.47945   0.00000  Uiso   1.00
H46    H     0.18047   0.15623   0.40084   0.00000  Uiso   1.00
H47    H     0.11169   0.19274   0.07365   0.00000  Uiso   1.00
H48    H     0.20045   0.11650   0.42982   0.00000  Uiso   1.00
C49    C     0.32703   0.17615   0.23757   0.00000  Uiso   1.00
H50    H     0.01679   0.19308   0.21485   0.00000  Uiso   1.00
C51    C     0.00707   0.15770   0.26212   0.00000  Uiso   1.00
H52    H     0.31797   0.14082   0.28519   0.00000  Uiso   1.00
C53    C     0.18074   0.32212   0.23824   0.00000  Uiso   1.00
H54    H     0.20795   0.00269   0.21635   0.00000  Uiso   1.00
C55    C     0.15126   0.01210   0.26204   0.00000  Uiso   1.00
H56    H     0.12363   0.33230   0.28398   0.00000  Uiso   1.00
N57    N     0.23608   0.04898   0.02610   0.00000  Uiso   1.00
O58    O     0.26821   0.03886   0.03624   0.00000  Uiso   1.00
O59    O     0.21585   0.02089   0.00594   0.00000  Uiso   1.00
N60    N     0.17431   0.20382   0.09743   0.00000  Uiso   1.00
O61    O     0.19378   0.23496   0.07752   0.00000  Uiso   1.00
O62    O     0.14806   0.21141   0.13219   0.00000  Uiso   1.00
N63    N     0.08808   0.25185   0.40364   0.00000  Uiso   1.00
O64    O     0.11307   0.27939   0.38181   0.00000  Uiso   1.00
O65    O     0.04673   0.25473   0.41589   0.00000  Uiso   1.00
Zn66   Zn    0.52577   0.14090   0.28277   0.00000  Uiso   1.00
Zn67   Zn    0.46792   0.12378   0.22257   0.00000  Uiso   1.00
Zn68   Zn    0.54500   0.19664   0.21188   0.00000  Uiso   1.00
Zn69   Zn    0.46131   0.20535   0.28277   0.00000  Uiso   1.00
O70    O     0.50000   0.16667   0.25000   0.00000  Uiso   1.00
O71    O     0.40323   0.18960   0.27820   0.00000  Uiso   1.00
O72    O     0.58773   0.15277   0.26767   0.00000  Uiso   1.00
O73    O     0.47133   0.06903   0.23607   0.00000  Uiso   1.00
O74    O     0.53771   0.25527   0.21805   0.00000  Uiso   1.00
O75    O     0.49027   0.12393   0.16625   0.00000  Uiso   1.00
O76    O     0.46020   0.20646   0.33749   0.00000  Uiso   1.00
O77    O     0.54421   0.17493   0.15877   0.00000  Uiso   1.00
O78    O     0.50532   0.16135   0.33749   0.00000  Uiso   1.00
O79    O     0.51182   0.08101   0.27820   0.00000  Uiso   1.00
O80    O     0.47914   0.26136   0.26767   0.00000  Uiso   1.00
O81    O     0.40785   0.13251   0.23607   0.00000  Uiso   1.00
O82    O     0.60119   0.19179   0.21805   0.00000  Uiso   1.00
C83    C     0.38580   0.15998   0.25870   0.00000  Uiso   1.00
C84    C     0.61434   0.17356   0.24120   0.00000  Uiso   1.00
C85    C     0.48912   0.05614   0.25892   0.00000  Uiso   1.00
C86    C     0.51011   0.27765   0.24139   0.00000  Uiso   1.00
C87    C     0.52148   0.14506   0.14414   0.00000  Uiso   1.00
C88    C     0.47918   0.18844   0.35616   0.00000  Uiso   1.00
C89    C     0.46977   0.19751   0.39934   0.00000  Uiso   1.00
C90    C     0.52896   0.13592   0.10193   0.00000  Uiso   1.00
C91    C     0.42948   0.22928   0.46252   0.00000  Uiso   1.00
C92    C     0.44012   0.22570   0.42164   0.00000  Uiso   1.00
C93    C     0.48990   0.17573   0.41875   0.00000  Uiso   1.00
C94    C     0.47994   0.17958   0.45994   0.00000  Uiso   1.00
C95    C     0.44896   0.20671   0.48167   0.00000  Uiso   1.00
C96    C     0.49976   0.15735   0.48023   0.00000  Uiso   1.00
C97    C     0.49119   0.16597   0.02166   0.00000  Uiso   1.00
C98    C     0.45751   0.19042   0.04214   0.00000  Uiso   1.00
C99    C     0.43724   0.21088   0.02248   0.00000  Uiso   1.00
C100   C     0.52662   0.12591   0.46088   0.00000  Uiso   1.00
C101   C     0.54313   0.10288   0.48167   0.00000  Uiso   1.00
C102   C     0.53597   0.11192   0.02227   0.00000  Uiso   1.00
C103   C     0.51393   0.14703   0.04181   0.00000  Uiso   1.00
C104   C     0.55115   0.08720   0.04369   0.00000  Uiso   1.00
C105   C     0.54605   0.09889   0.08365   0.00000  Uiso   1.00
C106   C     0.51519   0.16159   0.08086   0.00000  Uiso   1.00
H107   H     0.41214   0.23007   0.03939   0.00000  Uiso   1.00
H108   H     0.55568   0.07903   0.10065   0.00000  Uiso   1.00
H109   H     0.56248   0.07844   0.46525   0.00000  Uiso   1.00
H110   H     0.40643   0.25060   0.47945   0.00000  Uiso   1.00
H111   H     0.51380   0.15623   0.40084   0.00000  Uiso   1.00
H112   H     0.44503   0.19274   0.07365   0.00000  Uiso   1.00
H113   H     0.53378   0.11650   0.42982   0.00000  Uiso   1.00
C114   C     0.66036   0.17615   0.23757   0.00000  Uiso   1.00
H115   H     0.35012   0.19308   0.21485   0.00000  Uiso   1.00
C116   C     0.34041   0.15770   0.26212   0.00000  Uiso   1.00
H117   H     0.65131   0.14082   0.28519   0.00000  Uiso   1.00
C118   C     0.51407   0.32212   0.23824   0.00000  Uiso   1.00
H119   H     0.54129   0.00269   0.21635   0.00000  Uiso   1.00
C120   C     0.48459   0.01210   0.26204   0.00000  Uiso   1.00
H121   H     0.45696   0.33230   0.28398   0.00000  Uiso   1.00
N122   N     0.56942   0.04898   0.02610   0.00000  Uiso   1.00
O123   O     0.60154   0.03886   0.03624   0.00000  Uiso   1.00
O124   O     0.54919   0.02089   0.00594   0.00000  Uiso   1.00
N125   N     0.50764   0.20382   0.09743   0.00000  Uiso   1.00
O126   O     0.52711   0.23496   0.07752   0.00000  Uiso   1.00
O127   O     0.48139   0.21141   0.13219   0.00000  Uiso   1.00
N128   N     0.42142   0.25185   0.40364   0.00000  Uiso   1.00
O129   O     0.44640   0.27939   0.38181   0.00000  Uiso   1.00
O130   O     0.38006   0.25473   0.41589   0.00000  Uiso   1.00
Zn131  Zn    0.85910   0.14090   0.28277   0.00000  Uiso   1.00
Zn132  Zn    0.80125   0.12378   0.22257   0.00000  Uiso   1.00
Zn133  Zn    0.87833   0.19664   0.21188   0.00000  Uiso   1.00
Zn134  Zn    0.79465   0.20535   0.28277   0.00000  Uiso   1.00
O135   O     0.83333   0.16667   0.25000   0.00000  Uiso   1.00
O136   O     0.73656   0.18960   0.27820   0.00000  Uiso   1.00
O137   O     0.92106   0.15277   0.26767   0.00000  Uiso   1.00
O138   O     0.80467   0.06903   0.23607   0.00000  Uiso   1.00
O139   O     0.87104   0.25527   0.21805   0.00000  Uiso   1.00
O140   O     0.82360   0.12393   0.16625   0.00000  Uiso   1.00
O141   O     0.79354   0.20646   0.33749   0.00000  Uiso   1.00
O142   O     0.87755   0.17493   0.15877   0.00000  Uiso   1.00
O143   O     0.83865   0.16135   0.33749   0.00000  Uiso   1.00
O144   O     0.84515   0.08101   0.27820   0.00000  Uiso   1.00
O145   O     0.81247   0.26136   0.26767   0.00000  Uiso   1.00
O146   O     0.74119   0.13251   0.23607   0.00000  Uiso   1.00
O147   O     0.93452   0.19179   0.21805   0.00000  Uiso   1.00
C148   C     0.71913   0.15998   0.25870   0.00000  Uiso   1.00
C149   C     0.94768   0.17356   0.24120   0.00000  Uiso   1.00
C150   C     0.82245   0.05614   0.25892   0.00000  Uiso   1.00
C151   C     0.84345   0.27765   0.24139   0.00000  Uiso   1.00
C152   C     0.85482   0.14506   0.14414   0.00000  Uiso   1.00
C153   C     0.81251   0.18844   0.35616   0.00000  Uiso   1.00
C154   C     0.80310   0.19751   0.39934   0.00000  Uiso   1.00
C155   C     0.86229   0.13592   0.10193   0.00000  Uiso   1.00
C156   C     0.76281   0.22928   0.46252   0.00000  Uiso   1.00
C157   C     0.77345   0.22570   0.42164   0.00000  Uiso   1.00
C158   C     0.82324   0.17573   0.41875   0.00000  Uiso   1.00
C159   C     0.81327   0.17958   0.45994   0.00000  Uiso   1.00
C160   C     0.78229   0.20671   0.48167   0.00000  Uiso   1.00
C161   C     0.83309   0.15735   0.48023   0.00000  Uiso   1.00
C162   C     0.82452   0.16597   0.02166   0.00000  Uiso   1.00
C163   C     0.79084   0.19042   0.04214   0.00000  Uiso   1.00
C164   C     0.77058   0.21088   0.02248   0.00000  Uiso   1.00
C165   C     0.85996   0.12591   0.46088   0.00000  Uiso   1.00
C166   C     0.87646   0.10288   0.48167   0.00000  Uiso   1.00
C167   C     0.86931   0.11192   0.02227   0.00000  Uiso   1.00
C168   C     0.84727   0.14703   0.04181   0.00000  Uiso   1.00
C169   C     0.88448   0.08720   0.04369   0.00000  Uiso   1.00
C170   C     0.87938   0.09889   0.08365   0.00000  Uiso   1.00
C171   C     0.84852   0.16159   0.08086   0.00000  Uiso   1.00
H172   H     0.74547   0.23007   0.03939   0.00000  Uiso   1.00
H173   H     0.88902   0.07903   0.10065   0.00000  Uiso   1.00
H174   H     0.89581   0.07844   0.46525   0.00000  Uiso   1.00
H175   H     0.73977   0.25060   0.47945   0.00000  Uiso   1.00
H176   H     0.84713   0.15623   0.40084   0.00000  Uiso   1.00
H177   H     0.77836   0.19274   0.07365   0.00000  Uiso   1.00
H178   H     0.86711   0.11650   0.42982   0.00000  Uiso   1.00
C179   C     0.99370   0.17615   0.23757   0.00000  Uiso   1.00
H180   H     0.68346   0.19308   0.21485   0.00000  Uiso   1.00
C181   C     0.67374   0.15770   0.26212   0.00000  Uiso   1.00
H182   H     0.98464   0.14082   0.28519   0.00000  Uiso   1.00
C183   C     0.84740   0.32212   0.23824   0.00000  Uiso   1.00
H184   H     0.87462   0.00269   0.21635   0.00000  Uiso   1.00
C185   C     0.81793   0.01210   0.26204   0.00000  Uiso   1.00
H186   H     0.79030   0.33230   0.28398   0.00000  Uiso   1.00
N187   N     0.90275   0.04898   0.02610   0.00000  Uiso   1.00
O188   O     0.93487   0.03886   0.03624   0.00000  Uiso   1.00
O189   O     0.88252   0.02089   0.00594   0.00000  Uiso   1.00
N190   N     0.84097   0.20382   0.09743   0.00000  Uiso   1.00
O191   O     0.86044   0.23496   0.07752   0.00000  Uiso   1.00
O192   O     0.81473   0.21141   0.13219   0.00000  Uiso   1.00
N193   N     0.75475   0.25185   0.40364   0.00000  Uiso   1.00
O194   O     0.77974   0.27939   0.38181   0.00000  Uiso   1.00
O195   O     0.71339   0.25473   0.41589   0.00000  Uiso   1.00
Zn196  Zn    0.19244   0.47423   0.28277   0.00000  Uiso   1.00
Zn197  Zn    0.13459   0.45711   0.22257   0.00000  Uiso   1.00
Zn198  Zn    0.21166   0.52997   0.21188   0.00000  Uiso   1.00
Zn199  Zn    0.12798   0.53868   0.28277   0.00000  Uiso   1.00
O200   O     0.16667   0.50000   0.25000   0.00000  Uiso   1.00
O201   O     0.06990   0.52293   0.27820   0.00000  Uiso   1.00
O202   O     0.25440   0.48610   0.26767   0.00000  Uiso   1.00
O203   O     0.13800   0.40236   0.23607   0.00000  Uiso   1.00
O204   O     0.20437   0.58860   0.21805   0.00000  Uiso   1.00
O205   O     0.15693   0.45726   0.16625   0.00000  Uiso   1.00
O206   O     0.12687   0.53979   0.33749   0.00000  Uiso   1.00
O207   O     0.21088   0.50826   0.15877   0.00000  Uiso   1.00
O208   O     0.17198   0.49468   0.33749   0.00000  Uiso   1.00
O209   O     0.17849   0.41434   0.27820   0.00000  Uiso   1.00
O210   O     0.14581   0.59469   0.26767   0.00000  Uiso   1.00
O211   O     0.07452   0.46584   0.23607   0.00000  Uiso   1.00
O212   O     0.26785   0.52512   0.21805   0.00000  Uiso   1.00
C213   C     0.05247   0.49331   0.25870   0.00000  Uiso   1.00
C214   C     0.28101   0.50690   0.24120   0.00000  Uiso   1.00
C215   C     0.15578   0.38947   0.25892   0.00000  Uiso   1.00
C216   C     0.17678   0.61099   0.24139   0.00000  Uiso   1.00
C217   C     0.18815   0.47839   0.14414   0.00000  Uiso   1.00
C218   C     0.14584   0.52178   0.35616   0.00000  Uiso   1.00
C219   C     0.13643   0.53084   0.39934   0.00000  Uiso   1.00
C220   C     0.19562   0.46925   0.10193   0.00000  Uiso   1.00
C221   C     0.09614   0.56262   0.46252   0.00000  Uiso   1.00
C222   C     0.10679   0.55904   0.42164   0.00000  Uiso   1.00
C223   C     0.15657   0.50907   0.41875   0.00000  Uiso   1.00
C224   C     0.14661   0.51291   0.45994   0.00000  Uiso   1.00
C225   C     0.11562   0.54004   0.48167   0.00000  Uiso   1.00
C226   C     0.16642   0.49069   0.48023   0.00000  Uiso   1.00
C227   C     0.15785   0.49930   0.02166   0.00000  Uiso   1.00
C228   C     0.12417   0.52375   0.04214   0.00000  Uiso   1.00
C229   C     0.10391   0.54422   0.02248   0.00000  Uiso   1.00
C230   C     0.19329   0.45924   0.46088   0.00000  Uiso   1.00
C231   C     0.20979   0.43621   0.48167   0.00000  Uiso   1.00
C232   C     0.20264   0.44525   0.02227   0.00000  Uiso   1.00
C233   C     0.18060   0.48037   0.04181   0.00000  Uiso   1.00
C234   C     0.21781   0.42053   0.04369   0.00000  Uiso   1.00
C235   C     0.21271   0.43222   0.08365   0.00000  Uiso   1.00
C236   C     0.18186   0.49492   0.08086   0.00000  Uiso   1.00
H237   H     0.07880   0.56340   0.03939   0.00000  Uiso   1.00
H238   H     0.22235   0.41237   0.10065   0.00000  Uiso   1.00
H239   H     0.22914   0.41177   0.46525   0.00000  Uiso   1.00
H240   H     0.07310   0.58394   0.47945   0.00000  Uiso   1.00
H241   H     0.18047   0.48956   0.40084   0.00000  Uiso   1.00
H242   H     0.11169   0.52607   0.07365   0.00000  Uiso   1.00
H243   H     0.20045   0.44983   0.42982   0.00000  Uiso   1.00
C244   C     0.32703   0.50948   0.23757   0.00000  Uiso   1.00
H245   H     0.01679   0.52641   0.21485   0.00000  Uiso   1.00
C246   C     0.00707   0.49103   0.26212   0.00000  Uiso   1.00
H247   H     0.31797   0.47415   0.28519   0.00000  Uiso   1.00
C248   C     0.18074   0.65545   0.23824   0.00000  Uiso   1.00
H249   H     0.20795   0.33602   0.21635   0.00000  Uiso   1.00
C250   C     0.15126   0.34543   0.26204   0.00000  Uiso   1.00
H251   H     0.12363   0.66564   0.28398   0.00000  Uiso   1.00
N252   N     0.23608   0.38231   0.02610   0.00000  Uiso   1.00
O253   O     0.26821   0.37220   0.03624   0.00000  Uiso   1.00
O254   O     0.21585   0.35422   0.00594   0.00000  Uiso   1.00
N255   N     0.17431   0.53716   0.09743   0.00000  Uiso   1.00
O256   O     0.19378   0.56829   0.07752   0.00000  Uiso   1.00
O257   O     0.14806   0.54475   0.13219   0.00000  Uiso   1.00
N258   N     0.08808   0.58518   0.40364   0.00000  Uiso   1.00
O259   O     0.11307   0.61272   0.38181   0.00000  Uiso   1.00
O260   O     0.04673   0.58807   0.41589   0.00000  Uiso   1.00
Zn261  Zn    0.52577   0.47423   0.28277   0.00000  Uiso   1.00
Zn262  Zn    0.46792   0.45711   0.22257   0.00000  Uiso   1.00
Zn263  Zn    0.54500   0.52997   0.21188   0.00000  Uiso   1.00
Zn264  Zn    0.46131   0.53868   0.28277   0.00000  Uiso   1.00
O265   O     0.50000   0.50000   0.25000   0.00000  Uiso   1.00
O266   O     0.40323   0.52293   0.27820   0.00000  Uiso   1.00
O267   O     0.58773   0.48610   0.26767   0.00000  Uiso   1.00
O268   O     0.47133   0.40236   0.23607   0.00000  Uiso   1.00
O269   O     0.53771   0.58860   0.21805   0.00000  Uiso   1.00
O270   O     0.49027   0.45726   0.16625   0.00000  Uiso   1.00
O271   O     0.46020   0.53979   0.33749   0.00000  Uiso   1.00
O272   O     0.54421   0.50826   0.15877   0.00000  Uiso   1.00
O273   O     0.50532   0.49468   0.33749   0.00000  Uiso   1.00
O274   O     0.51182   0.41434   0.27820   0.00000  Uiso   1.00
O275   O     0.47914   0.59469   0.26767   0.00000  Uiso   1.00
O276   O     0.40785   0.46584   0.23607   0.00000  Uiso   1.00
O277   O     0.60119   0.52512   0.21805   0.00000  Uiso   1.00
C278   C     0.38580   0.49331   0.25870   0.00000  Uiso   1.00
C279   C     0.61434   0.50690   0.24120   0.00000  Uiso   1.00
C280   C     0.48912   0.38947   0.25892   0.00000  Uiso   1.00
C281   C     0.51011   0.61099   0.24139   0.00000  Uiso   1.00
C282   C     0.52148   0.47839   0.14414   0.00000  Uiso   1.00
C283   C     0.47918   0.52178   0.35616   0.00000  Uiso   1.00
C284   C     0.46977   0.53084   0.39934   0.00000  Uiso   1.00
C285   C     0.52896   0.46925   0.10193   0.00000  Uiso   1.00
C286   C     0.42948   0.56262   0.46252   0.00000  Uiso   1.00
C287   C     0.44012   0.55904   0.42164   0.00000  Uiso   1.00
C288   C     0.48990   0.50907   0.41875   0.00000  Uiso   1.00
C289   C     0.47994   0.51291   0.45994   0.00000  Uiso   1.00
C290   C     0.44896   0.54004   0.48167   0.00000  Uiso   1.00
C291   C     0.49976   0.49069   0.48023   0.00000  Uiso   1.00
C292   C     0.49119   0.49930   0.02166   0.00000  Uiso   1.00
C293   C     0.45751   0.52375   0.04214   0.00000  Uiso   1.00
C294   C     0.43724   0.54422   0.02248   0.00000  Uiso   1.00
C295   C     0.52662   0.45924   0.46088   0.00000  Uiso   1.00
C296   C     0.54313   0.43621   0.48167   0.00000  Uiso   1.00
C297   C     0.53597   0.44525   0.02227   0.00000  Uiso   1.00
C298   C     0.51393   0.48037   0.04181   0.00000  Uiso   1.00
C299   C     0.55115   0.42053   0.04369   0.00000  Uiso   1.00
C300   C     0.54605   0.43222   0.08365   0.00000  Uiso   1.00
C301   C     0.51519   0.49492   0.08086   0.00000  Uiso   1.00
H302   H     0.41214   0.56340   0.03939   0.00000  Uiso   1.00
H303   H     0.55568   0.41237   0.10065   0.00000  Uiso   1.00
H304   H     0.56248   0.41177   0.46525   0.00000  Uiso   1.00
H305   H     0.40643   0.58394   0.47945   0.00000  Uiso   1.00
H306   H     0.51380   0.48956   0.40084   0.00000  Uiso   1.00
H307   H     0.44503   0.52607   0.07365   0.00000  Uiso   1.00
H308   H     0.53378   0.44983   0.42982   0.00000  Uiso   1.00
C309   C     0.66036   0.50948   0.23757   0.00000  Uiso   1.00
H310   H     0.35012   0.52641   0.21485   0.00000  Uiso   1.00
C311   C     0.34041   0.49103   0.26212   0.00000  Uiso   1.00
H312   H     0.65131   0.47415   0.28519   0.00000  Uiso   1.00
C313   C     0.51407   0.65545   0.23824   0.00000  Uiso   1.00
H314   H     0.54129   0.33602   0.21635   0.00000  Uiso   1.00
C315   C     0.48459   0.34543   0.26204   0.00000  Uiso   1.00
H316   H     0.45696   0.66564   0.28398   0.00000  Uiso   1.00
N317   N     0.56942   0.38231   0.02610   0.00000  Uiso   1.00
O318   O     0.60154   0.37220   0.03624   0.00000  Uiso   1.00
O319   O     0.54919   0.35422   0.00594   0.00000  Uiso   1.00
N320   N     0.50764   0.53716   0.09743   0.00000  Uiso   1.00
O321   O     0.52711   0.56829   0.07752   0.00000  Uiso   1.00
O322   O     0.48139   0.54475   0.13219   0.00000  Uiso   1.00
N323   N     0.42142   0.58518   0.40364   0.00000  Uiso   1.00
O324   O     0.44640   0.61272   0.38181   0.00000  Uiso   1.00
O325   O     0.38006   0.58807   0.41589   0.00000  Uiso   1.00
Zn326  Zn    0.85910   0.47423   0.28277   0.00000  Uiso   1.00
Zn327  Zn    0.80125   0.45711   0.22257   0.00000  Uiso   1.00
Zn328  Zn    0.87833   0.52997   0.21188   0.00000  Uiso   1.00
Zn329  Zn    0.79465   0.53868   0.28277   0.00000  Uiso   1.00
O330   O     0.83333   0.50000   0.25000   0.00000  Uiso   1.00
O331   O     0.73656   0.52293   0.27820   0.00000  Uiso   1.00
O332   O     0.92106   0.48610   0.26767   0.00000  Uiso   1.00
O333   O     0.80467   0.40236   0.23607   0.00000  Uiso   1.00
O334   O     0.87104   0.58860   0.21805   0.00000  Uiso   1.00
O335   O     0.82360   0.45726   0.16625   0.00000  Uiso   1.00
O336   O     0.79354   0.53979   0.33749   0.00000  Uiso   1.00
O337   O     0.87755   0.50826   0.15877   0.00000  Uiso   1.00
O338   O     0.83865   0.49468   0.33749   0.00000  Uiso   1.00
O339   O     0.84515   0.41434   0.27820   0.00000  Uiso   1.00
O340   O     0.81247   0.59469   0.26767   0.00000  Uiso   1.00
O341   O     0.74119   0.46584   0.23607   0.00000  Uiso   1.00
O342   O     0.93452   0.52512   0.21805   0.00000  Uiso   1.00
C343   C     0.71913   0.49331   0.25870   0.00000  Uiso   1.00
C344   C     0.94768   0.50690   0.24120   0.00000  Uiso   1.00
C345   C     0.82245   0.38947   0.25892   0.00000  Uiso   1.00
C346   C     0.84345   0.61099   0.24139   0.00000  Uiso   1.00
C347   C     0.85482   0.47839   0.14414   0.00000  Uiso   1.00
C348   C     0.81251   0.52178   0.35616   0.00000  Uiso   1.00
C349   C     0.80310   0.53084   0.39934   0.00000  Uiso   1.00
C350   C     0.86229   0.46925   0.10193   0.00000  Uiso   1.00
C351   C     0.76281   0.56262   0.46252   0.00000  Uiso   1.00
C352   C     0.77345   0.55904   0.42164   0.00000  Uiso   1.00
C353   C     0.82324   0.50907   0.41875   0.00000  Uiso   1.00
C354   C     0.81327   0.51291   0.45994   0.00000  Uiso   1.00
C355   C     0.78229   0.54004   0.48167   0.00000  Uiso   1.00
C356   C     0.83309   0.49069   0.48023   0.00000  Uiso   1.00
C357   C     0.82452   0.49930   0.02166   0.00000  Uiso   1.00
C358   C     0.79084   0.52375   0.04214   0.00000  Uiso   1.00
C359   C     0.77058   0.54422   0.02248   0.00000  Uiso   1.00
C360   C     0.85996   0.45924   0.46088   0.00000  Uiso   1.00
C361   C     0.87646   0.43621   0.48167   0.00000  Uiso   1.00
C362   C     0.86931   0.44525   0.02227   0.00000  Uiso   1.00
C363   C     0.84727   0.48037   0.04181   0.00000  Uiso   1.00
C364   C     0.88448   0.42053   0.04369   0.00000  Uiso   1.00
C365   C     0.87938   0.43222   0.08365   0.00000  Uiso   1.00
C366   C     0.84852   0.49492   0.08086   0.00000  Uiso   1.00
H367   H     0.74547   0.56340   0.03939   0.00000  Uiso   1.00
H368   H     0.88902   0.41237   0.10065   0.00000  Uiso   1.00
H369   H     0.89581   0.41177   0.46525   0.00000  Uiso   1.00
H370   H     0.73977   0.58394   0.47945   0.00000  Uiso   1.00
H371   H     0.84713   0.48956   0.40084   0.00000  Uiso   1.00
H372   H     0.77836   0.52607   0.07365   0.00000  Uiso   1.00
H373   H     0.86711   0.44983   0.42982   0.00000  Uiso   1.00
C374   C     0.99370   0.50948   0.23757   0.00000  Uiso   1.00
H375   H     0.68346   0.52641   0.21485   0.00000  Uiso   1.00
C376   C     0.67374   0.49103   0.26212   0.00000  Uiso   1.00
H377   H     0.98464   0.47415   0.28519   0.00000  Uiso   1.00
C378   C     0.84740   0.65545   0.23824   0.00000  Uiso   1.00
H379   H     0.87462   0.33602   0.21635   0.00000  Uiso   1.00
C380   C     0.81793   0.34543   0.26204   0.00000  Uiso   1.00
H381   H     0.79030   0.66564   0.28398   0.00000  Uiso   1.00
N382   N     0.90275   0.38231   0.02610   0.00000  Uiso   1.00
O383   O     0.93487   0.37220   0.03624   0.00000  Uiso   1.00
O384   O     0.88252   0.35422   0.00594   0.00000  Uiso   1.00
N385   N     0.84097   0.53716   0.09743   0.00000  Uiso   1.00
O386   O     0.86044   0.56829   0.07752   0.00000  Uiso   1.00
O387   O     0.81473   0.54475   0.13219   0.00000  Uiso   1.00
N388   N     0.75475   0.58518   0.40364   0.00000  Uiso   1.00
O389   O     0.77974   0.61272   0.38181   0.00000  Uiso   1.00
O390   O     0.71339   0.58807   0.41589   0.00000  Uiso   1.00
Zn391  Zn    0.19244   0.80756   0.28277   0.00000  Uiso   1.00
Zn392  Zn    0.13459   0.79044   0.22257   0.00000  Uiso   1.00
Zn393  Zn    0.21166   0.86331   0.21188   0.00000  Uiso   1.00
Zn394  Zn    0.12798   0.87202   0.28277   0.00000  Uiso   1.00
O395   O     0.16667   0.83333   0.25000   0.00000  Uiso   1.00
O396   O     0.06990   0.85627   0.27820   0.00000  Uiso   1.00
O397   O     0.25440   0.81944   0.26767   0.00000  Uiso   1.00
O398   O     0.13800   0.73570   0.23607   0.00000  Uiso   1.00
O399   O     0.20437   0.92193   0.21805   0.00000  Uiso   1.00
O400   O     0.15693   0.79060   0.16625   0.00000  Uiso   1.00
O401   O     0.12687   0.87313   0.33749   0.00000  Uiso   1.00
O402   O     0.21088   0.84159   0.15877   0.00000  Uiso   1.00
O403   O     0.17198   0.82802   0.33749   0.00000  Uiso   1.00
O404   O     0.17849   0.74768   0.27820   0.00000  Uiso   1.00
O405   O     0.14581   0.92803   0.26767   0.00000  Uiso   1.00
O406   O     0.07452   0.79917   0.23607   0.00000  Uiso   1.00
O407   O     0.26785   0.85845   0.21805   0.00000  Uiso   1.00
C408   C     0.05247   0.82665   0.25870   0.00000  Uiso   1.00
C409   C     0.28101   0.84023   0.24120   0.00000  Uiso   1.00
C410   C     0.15578   0.72281   0.25892   0.00000  Uiso   1.00
C411   C     0.17678   0.94432   0.24139   0.00000  Uiso   1.00
C412   C     0.18815   0.81172   0.14414   0.00000  Uiso   1.00
C413   C     0.14584   0.85511   0.35616   0.00000  Uiso   1.00
C414   C     0.13643   0.86417   0.39934   0.00000  Uiso   1.00
C415   C     0.19562   0.80258   0.10193   0.00000  Uiso   1.00
C416   C     0.09614   0.89595   0.46252   0.00000  Uiso   1.00
C417   C     0.10679   0.89237   0.42164   0.00000  Uiso   1.00
C418   C     0.15657   0.84240   0.41875   0.00000  Uiso   1.00
C419   C     0.14661   0.84625   0.45994   0.00000  Uiso   1.00
C420   C     0.11562   0.87338   0.48167   0.00000  Uiso   1.00
C421   C     0.16642   0.82402   0.48023   0.00000  Uiso   1.00
C422   C     0.15785   0.83263   0.02166   0.00000  Uiso   1.00
C423   C     0.12417   0.85708   0.04214   0.00000  Uiso   1.00
C424   C     0.10391   0.87755   0.02248   0.00000  Uiso   1.00
C425   C     0.19329   0.79257   0.46088   0.00000  Uiso   1.00
C426   C     0.20979   0.76955   0.48167   0.00000  Uiso   1.00
C427   C     0.20264   0.77859   0.02227   0.00000  Uiso   1.00
C428   C     0.18060   0.81370   0.04181   0.00000  Uiso   1.00
C429   C     0.21781   0.75387   0.04369   0.00000  Uiso   1.00
C430   C     0.21271   0.76556   0.08365   0.00000  Uiso   1.00
C431   C     0.18186   0.82825   0.08086   0.00000  Uiso   1.00
H432   H     0.07880   0.89673   0.03939   0.00000  Uiso   1.00
H433   H     0.22235   0.74570   0.10065   0.00000  Uiso   1.00
H434   H     0.22914   0.74510   0.46525   0.00000  Uiso   1.00
H435   H     0.07310   0.91727   0.47945   0.00000  Uiso   1.00
H436   H     0.18047   0.82289   0.40084   0.00000  Uiso   1.00
H437   H     0.11169   0.85940   0.07365   0.00000  Uiso   1.00
H438   H     0.20045   0.78316   0.42982   0.00000  Uiso   1.00
C439   C     0.32703   0.84281   0.23757   0.00000  Uiso   1.00
H440   H     0.01679   0.85975   0.21485   0.00000  Uiso   1.00
C441   C     0.00707   0.82436   0.26212   0.00000  Uiso   1.00
H442   H     0.31797   0.80748   0.28519   0.00000  Uiso   1.00
C443   C     0.18074   0.98879   0.23824   0.00000  Uiso   1.00
H444   H     0.20795   0.66936   0.21635   0.00000  Uiso   1.00
C445   C     0.15126   0.67876   0.26204   0.00000  Uiso   1.00
H446   H     0.12363   0.99897   0.28398   0.00000  Uiso   1.00
N447   N     0.23608   0.71564   0.02610   0.00000  Uiso   1.00
O448   O     0.26821   0.70553   0.03624   0.00000  Uiso   1.00
O449   O     0.21585   0.68756   0.00594   0.00000  Uiso   1.00
N450   N     0.17431   0.87049   0.09743   0.00000  Uiso   1.00
O451   O     0.19378   0.90163   0.07752   0.00000  Uiso   1.00
O452   O     0.14806   0.87808   0.13219   0.00000  Uiso   1.00
N453   N     0.08808   0.91851   0.40364   0.00000  Uiso   1.00
O454   O     0.11307   0.94606   0.38181   0.00000  Uiso   1.00
O455   O     0.04673   0.92140   0.41589   0.00000  Uiso   1.00
Zn456  Zn    0.52577   0.80756   0.28277   0.00000  Uiso   1.00
Zn457  Zn    0.46792   0.79044   0.22257   0.00000  Uiso   1.00
Zn458  Zn    0.54500   0.86331   0.21188   0.00000  Uiso   1.00
Zn459  Zn    0.46131   0.87202   0.28277   0.00000  Uiso   1.00
O460   O     0.50000   0.83333   0.25000   0.00000  Uiso   1.00
O461   O     0.40323   0.85627   0.27820   0.00000  Uiso   1.00
O462   O     0.58773   0.81944   0.26767   0.00000  Uiso   1.00
O463   O     0.47133   0.73570   0.23607   0.00000  Uiso   1.00
O464   O     0.53771   0.92193   0.21805   0.00000  Uiso   1.00
O465   O     0.49027   0.79060   0.16625   0.00000  Uiso   1.00
O466   O     0.46020   0.87313   0.33749   0.00000  Uiso   1.00
O467   O     0.54421   0.84159   0.15877   0.00000  Uiso   1.00
O468   O     0.50532   0.82802   0.33749   0.00000  Uiso   1.00
O469   O     0.51182   0.74768   0.27820   0.00000  Uiso   1.00
O470   O     0.47914   0.92803   0.26767   0.00000  Uiso   1.00
O471   O     0.40785   0.79917   0.23607   0.00000  Uiso   1.00
O472   O     0.60119   0.85845   0.21805   0.00000  Uiso   1.00
C473   C     0.38580   0.82665   0.25870   0.00000  Uiso   1.00
C474   C     0.61434   0.84023   0.24120   0.00000  Uiso   1.00
C475   C     0.48912   0.72281   0.25892   0.00000  Uiso   1.00
C476   C     0.51011   0.94432   0.24139   0.00000  Uiso   1.00
C477   C     0.52148   0.81172   0.14414   0.00000  Uiso   1.00
C478   C     0.47918   0.85511   0.35616   0.00000  Uiso   1.00
C479   C     0.46977   0.86417   0.39934   0.00000  Uiso   1.00
C480   C     0.52896   0.80258   0.10193   0.00000  Uiso   1.00
C481   C     0.42948   0.89595   0.46252   0.00000  Uiso   1.00
C482   C     0.44012   0.89237   0.42164   0.00000  Uiso   1.00
C483   C     0.48990   0.84240   0.41875   0.00000  Uiso   1.00
C484   C     0.47994   0.84625   0.45994   0.00000  Uiso   1.00
C485   C     0.44896   0.87338   0.48167   0.00000  Uiso   1.00
C486   C     0.49976   0.82402   0.48023   0.00000  Uiso   1.00
C487   C     0.49119   0.83263   0.02166   0.00000  Uiso   1.00
C488   C     0.45751   0.85708   0.04214   0.00000  Uiso   1.00
C489   C     0.43724   0.87755   0.02248   0.00000  Uiso   1.00
C490   C     0.52662   0.79257   0.46088   0.00000  Uiso   1.00
C491   C     0.54313   0.76955   0.48167   0.00000  Uiso   1.00
C492   C     0.53597   0.77859   0.02227   0.00000  Uiso   1.00
C493   C     0.51393   0.81370   0.04181   0.00000  Uiso   1.00
C494   C     0.55115   0.75387   0.04369   0.00000  Uiso   1.00
C495   C     0.54605   0.76556   0.08365   0.00000  Uiso   1.00
C496   C     0.51519   0.82825   0.08086   0.00000  Uiso   1.00
H497   H     0.41214   0.89673   0.03939   0.00000  Uiso   1.00
H498   H     0.55568   0.74570   0.10065   0.00000  Uiso   1.00
H499   H     0.56248   0.74510   0.46525   0.00000  Uiso   1.00
H500   H     0.40643   0.91727   0.47945   0.00000  Uiso   1.00
H501   H     0.51380   0.82289   0.40084   0.00000  Uiso   1.00
H502   H     0.44503   0.85940   0.07365   0.00000  Uiso   1.00
H503   H     0.53378   0.78316   0.42982   0.00000  Uiso   1.00
C504   C     0.66036   0.84281   0.23757   0.00000  Uiso   1.00
H505   H     0.35012   0.85975   0.21485   0.00000  Uiso   1.00
C506   C     0.34041   0.82436   0.26212   0.00000  Uiso   1.00
H507   H     0.65131   0.80748   0.28519   0.00000  Uiso   1.00
C508   C     0.51407   0.98879   0.23824   0.00000  Uiso   1.00
H509   H     0.54129   0.66936   0.21635   0.00000  Uiso   1.00
C510   C     0.48459   0.67876   0.26204   0.00000  Uiso   1.00
H511   H     0.45696   0.99897   0.28398   0.00000  Uiso   1.00
N512   N     0.56942   0.71564   0.02610   0.00000  Uiso   1.00
O513   O     0.60154   0.70553   0.03624   0.00000  Uiso   1.00
O514   O     0.54919   0.68756   0.00594   0.00000  Uiso   1.00
N515   N     0.50764   0.87049   0.09743   0.00000  Uiso   1.00
O516   O     0.52711   0.90163   0.07752   0.00000  Uiso   1.00
O517   O     0.48139   0.87808   0.13219   0.00000  Uiso   1.00
N518   N     0.42142   0.91851   0.40364   0.00000  Uiso   1.00
O519   O     0.44640   0.94606   0.38181   0.00000  Uiso   1.00
O520   O     0.38006   0.92140   0.41589   0.00000  Uiso   1.00
Zn521  Zn    0.85910   0.80756   0.28277   0.00000  Uiso   1.00
Zn522  Zn    0.80125   0.79044   0.22257   0.00000  Uiso   1.00
Zn523  Zn    0.87833   0.86331   0.21188   0.00000  Uiso   1.00
Zn524  Zn    0.79465   0.87202   0.28277   0.00000  Uiso   1.00
O525   O     0.83333   0.83333   0.25000   0.00000  Uiso   1.00
O526   O     0.73656   0.85627   0.27820   0.00000  Uiso   1.00
O527   O     0.92106   0.81944   0.26767   0.00000  Uiso   1.00
O528   O     0.80467   0.73570   0.23607   0.00000  Uiso   1.00
O529   O     0.87104   0.92193   0.21805   0.00000  Uiso   1.00
O530   O     0.82360   0.79060   0.16625   0.00000  Uiso   1.00
O531   O     0.79354   0.87313   0.33749   0.00000  Uiso   1.00
O532   O     0.87755   0.84159   0.15877   0.00000  Uiso   1.00
O533   O     0.83865   0.82802   0.33749   0.00000  Uiso   1.00
O534   O     0.84515   0.74768   0.27820   0.00000  Uiso   1.00
O535   O     0.81247   0.92803   0.26767   0.00000  Uiso   1.00
O536   O     0.74119   0.79917   0.23607   0.00000  Uiso   1.00
O537   O     0.93452   0.85845   0.21805   0.00000  Uiso   1.00
C538   C     0.71913   0.82665   0.25870   0.00000  Uiso   1.00
C539   C     0.94768   0.84023   0.24120   0.00000  Uiso   1.00
C540   C     0.82245   0.72281   0.25892   0.00000  Uiso   1.00
C541   C     0.84345   0.94432   0.24139   0.00000  Uiso   1.00
C542   C     0.85482   0.81172   0.14414   0.00000  Uiso   1.00
C543   C     0.81251   0.85511   0.35616   0.00000  Uiso   1.00
C544   C     0.80310   0.86417   0.39934   0.00000  Uiso   1.00
C545   C     0.86229   0.80258   0.10193   0.00000  Uiso   1.00
C546   C     0.76281   0.89595   0.46252   0.00000  Uiso   1.00
C547   C     0.77345   0.89237   0.42164   0.00000  Uiso   1.00
C548   C     0.82324   0.84240   0.41875   0.00000  Uiso   1.00
C549   C     0.81327   0.84625   0.45994   0.00000  Uiso   1.00
C550   C     0.78229   0.87338   0.48167   0.00000  Uiso   1.00
C551   C     0.83309   0.82402   0.48023   0.00000  Uiso   1.00
C552   C     0.82452   0.83263   0.02166   0.00000  Uiso   1.00
C553   C     0.79084   0.85708   0.04214   0.00000  Uiso   1.00
C554   C     0.77058   0.87755   0.02248   0.00000  Uiso   1.00
C555   C     0.85996   0.79257   0.46088   0.00000  Uiso   1.00
C556   C     0.87646   0.76955   0.48167   0.00000  Uiso   1.00
C557   C     0.86931   0.77859   0.02227   0.00000  Uiso   1.00
C558   C     0.84727   0.81370   0.04181   0.00000  Uiso   1.00
C559   C     0.88448   0.75387   0.04369   0.00000  Uiso   1.00
C560   C     0.87938   0.76556   0.08365   0.00000  Uiso   1.00
C561   C     0.84852   0.82825   0.08086   0.00000  Uiso   1.00
H562   H     0.74547   0.89673   0.03939   0.00000  Uiso   1.00
H563   H     0.88902   0.74570   0.10065   0.00000  Uiso   1.00
H564   H     0.89581   0.74510   0.46525   0.00000  Uiso   1.00
H565   H     0.73977   0.91727   0.47945   0.00000  Uiso   1.00
H566   H     0.84713   0.82289   0.40084   0.00000  Uiso   1.00
H567   H     0.77836   0.85940   0.07365   0.00000  Uiso   1.00
H568   H     0.86711   0.78316   0.42982   0.00000  Uiso   1.00
C569   C     0.99370   0.84281   0.23757   0.00000  Uiso   1.00
H570   H     0.68346   0.85975   0.21485   0.00000  Uiso   1.00
C571   C     0.67374   0.82436   0.26212   0.00000  Uiso   1.00
H572   H     0.98464   0.80748   0.28519   0.00000  Uiso   1.00
C573   C     0.84740   0.98879   0.23824   0.00000  Uiso   1.00
H574   H     0.87462   0.66936   0.21635   0.00000  Uiso   1.00
C575   C     0.81793   0.67876   0.26204   0.00000  Uiso   1.00
H576   H     0.79030   0.99897   0.28398   0.00000  Uiso   1.00
N577   N     0.90275   0.71564   0.02610   0.00000  Uiso   1.00
O578   O     0.93487   0.70553   0.03624   0.00000  Uiso   1.00
O579   O     0.88252   0.68756   0.00594   0.00000  Uiso   1.00
N580   N     0.84097   0.87049   0.09743   0.00000  Uiso   1.00
O581   O     0.86044   0.90163   0.07752   0.00000  Uiso   1.00
O582   O     0.81473   0.87808   0.13219   0.00000  Uiso   1.00
N583   N     0.75475   0.91851   0.40364   0.00000  Uiso   1.00
O584   O     0.77974   0.94606   0.38181   0.00000  Uiso   1.00
O585   O     0.71339   0.92140   0.41589   0.00000  Uiso   1.00
Zn586  Zn    0.19244   0.14090   0.78277   0.00000  Uiso   1.00
Zn587  Zn    0.13459   0.12378   0.72257   0.00000  Uiso   1.00
Zn588  Zn    0.21166   0.19664   0.71188   0.00000  Uiso   1.00
Zn589  Zn    0.12798   0.20535   0.78277   0.00000  Uiso   1.00
O590   O     0.16667   0.16667   0.75000   0.00000  Uiso   1.00
O591   O     0.06990   0.18960   0.77820   0.00000  Uiso   1.00
O592   O     0.25440   0.15277   0.76767   0.00000  Uiso   1.00
O593   O     0.13800   0.06903   0.73607   0.00000  Uiso   1.00
O594   O     0.20437   0.25527   0.71805   0.00000  Uiso   1.00
O595   O     0.15693   0.12393   0.66625   0.00000  Uiso   1.00
O596   O     0.12687   0.20646   0.83749   0.00000  Uiso   1.00
O597   O     0.21088   0.17493   0.65877   0.00000  Uiso   1.00
O598   O     0.17198   0.16135   0.83749   0.00000  Uiso   1.00
O599   O     0.17849   0.08101   0.77820   0.00000  Uiso   1.00
O600   O     0.14581   0.26136   0.76767   0.00000  Uiso   1.00
O601   O     0.07452   0.13251   0.73607   0.00000  Uiso   1.00
O602   O     0.26785   0.19179   0.71805   0.00000  Uiso   1.00
C603   C     0.05247   0.15998   0.75870   0.00000  Uiso   1.00
C604   C     0.28101   0.17356   0.74120   0.00000  Uiso   1.00
C605   C     0.15578   0.05614   0.75892   0.00000  Uiso   1.00
C606   C     0.17678   0.27765   0.74139   0.00000  Uiso   1.00
C607   C     0.18815   0.14506   0.64414   0.00000  Uiso   1.00
C608   C     0.14584   0.18844   0.85616   0.00000  Uiso   1.00
C609   C     0.13643   0.19751   0.89934   0.00000  Uiso   1.00
C610   C     0.19562   0.13592   0.60193   0.00000  Uiso   1.00
C611   C     0.09614   0.22928   0.96252   0.00000  Uiso   1.00
C612   C     0.10679   0.22570   0.92164   0.00000  Uiso   1.00
C613   C     0.15657   0.17573   0.91875   0.00000  Uiso   1.00
C614   C     0.14661   0.17958   0.95994   0.00000  Uiso   1.00
C615   C     0.11562   0.20671   0.98167   0.00000  Uiso   1.00
C616   C     0.16642   0.15735   0.98023   0.00000  Uiso   1.00
C617   C     0.15785   0.16597   0.52166   0.00000  Uiso   1.00
C618   C     0.12417   0.19042   0.54214   0.00000  Uiso   1.00
C619   C     0.10391   0.21088   0.52248   0.00000  Uiso   1.00
C620   C     0.19329   0.12591   0.96088   0.00000  Uiso   1.00
C621   C     0.20979   0.10288   0.98167   0.00000  Uiso   1.00
C622   C     0.20264   0.11192   0.52227   0.00000  Uiso   1.00
C623   C     0.18060   0.14703   0.54181   0.00000  Uiso   1.00
C624   C     0.21781   0.08720   0.54369   0.00000  Uiso   1.00
C625   C     0.21271   0.09889   0.58365   0.00000  Uiso   1.00
C626   C     0.18186   0.16159   0.58086   0.00000  Uiso   1.00
H627   H     0.07880   0.23007   0.53939   0.00000  Uiso   1.00
H628   H     0.22235   0.07903   0.60065   0.00000  Uiso   1.00
H629   H     0.22914   0.07844   0.96525   0.00000  Uiso   1.00
H630   H     0.07310   0.25060   0.97945   0.00000  Uiso   1.00
H631   H     0.18047   0.15623   0.90084   0.00000  Uiso   1.00
H632   H     0.11169   0.19274   0.57365   0.00000  Uiso   1.00
H633   H     0.20045   0.11650   0.92982   0.00000  Uiso   1.00
C634   C     0.32703   0.17615   0.73757   0.00000  Uiso   1.00
H635   H     0.01679   0.19308   0.71485   0.00000  Uiso   1.00
C636   C     0.00707   0.15770   0.76212   0.00000  Uiso   1.00
H637   H     0.31797   0.14082   0.78519   0.00000  Uiso   1.00
C638   C     0.18074   0.32212   0.73824   0.00000  Uiso   1.00
H639   H     0.20795   0.00269   0.71635   0.00000  Uiso   1.00
C640   C     0.15126   0.01210   0.76204   0.00000  Uiso   1.00
H641   H     0.12363   0.33230   0.78398   0.00000  Uiso   1.00
N642   N     0.23608   0.04898   0.52610   0.00000  Uiso   1.00
O643   O     0.26821   0.03886   0.53624   0.00000  Uiso   1.00
O644   O     0.21585   0.02089   0.50594   0.00000  Uiso   1.00
N645   N     0.17431   0.20382   0.59743   0.00000  Uiso   1.00
O646   O     0.19378   0.23496   0.57752   0.00000  Uiso   1.00
O647   O     0.14806   0.21141   0.63219   0.00000  Uiso   1.00
N648   N     0.08808   0.25185   0.90364   0.00000  Uiso   1.00
O649   O     0.11307   0.27939   0.88181   0.00000  Uiso   1.00
O650   O     0.04673   0.25473   0.91589   0.00000  Uiso   1.00
Zn651  Zn    0.52577   0.14090   0.78277   0.00000  Uiso   1.00
Zn652  Zn    0.46792   0.12378   0.72257   0.00000  Uiso   1.00
Zn653  Zn    0.54500   0.19664   0.71188   0.00000  Uiso   1.00
Zn654  Zn    0.46131   0.20535   0.78277   0.00000  Uiso   1.00
O655   O     0.50000   0.16667   0.75000   0.00000  Uiso   1.00
O656   O     0.40323   0.18960   0.77820   0.00000  Uiso   1.00
O657   O     0.58773   0.15277   0.76767   0.00000  Uiso   1.00
O658   O     0.47133   0.06903   0.73607   0.00000  Uiso   1.00
O659   O     0.53771   0.25527   0.71805   0.00000  Uiso   1.00
O660   O     0.49027   0.12393   0.66625   0.00000  Uiso   1.00
O661   O     0.46020   0.20646   0.83749   0.00000  Uiso   1.00
O662   O     0.54421   0.17493   0.65877   0.00000  Uiso   1.00
O663   O     0.50532   0.16135   0.83749   0.00000  Uiso   1.00
O664   O     0.51182   0.08101   0.77820   0.00000  Uiso   1.00
O665   O     0.47914   0.26136   0.76767   0.00000  Uiso   1.00
O666   O     0.40785   0.13251   0.73607   0.00000  Uiso   1.00
O667   O     0.60119   0.19179   0.71805   0.00000  Uiso   1.00
C668   C     0.38580   0.15998   0.75870   0.00000  Uiso   1.00
C669   C     0.61434   0.17356   0.74120   0.00000  Uiso   1.00
C670   C     0.48912   0.05614   0.75892   0.00000  Uiso   1.00
C671   C     0.51011   0.27765   0.74139   0.00000  Uiso   1.00
C672   C     0.52148   0.14506   0.64414   0.00000  Uiso   1.00
C673   C     0.47918   0.18844   0.85616   0.00000  Uiso   1.00
C674   C     0.46977   0.19751   0.89934   0.00000  Uiso   1.00
C675   C     0.52896   0.13592   0.60193   0.00000  Uiso   1.00
C676   C     0.42948   0.22928   0.96252   0.00000  Uiso   1.00
C677   C     0.44012   0.22570   0.92164   0.00000  Uiso   1.00
C678   C     0.48990   0.17573   0.91875   0.00000  Uiso   1.00
C679   C     0.47994   0.17958   0.95994   0.00000  Uiso   1.00
C680   C     0.44896   0.20671   0.98167   0.00000  Uiso   1.00
C681   C     0.49976   0.15735   0.98023   0.00000  Uiso   1.00
C682   C     0.49119   0.16597   0.52166   0.00000  Uiso   1.00
C683   C     0.45751   0.19042   0.54214   0.00000  Uiso   1.00
C684   C     0.43724   0.21088   0.52248   0.00000  Uiso   1.00
C685   C     0.52662   0.12591   0.96088   0.00000  Uiso   1.00
C686   C     0.54313   0.10288   0.98167   0.00000  Uiso   1.00
C687   C     0.53597   0.11192   0.52227   0.00000  Uiso   1.00
C688   C     0.51393   0.14703   0.54181   0.00000  Uiso   1.00
C689   C     0.55115   0.08720   0.54369   0.00000  Uiso   1.00
C690   C     0.54605   0.09889   0.58365   0.00000  Uiso   1.00
C691   C     0.51519   0.16159   0.58086   0.00000  Uiso   1.00
H692   H     0.41214   0.23007   0.53939   0.00000  Uiso   1.00
H693   H     0.55568   0.07903   0.60065   0.00000  Uiso   1.00
H694   H     0.56248   0.07844   0.96525   0.00000  Uiso   1.00
H695   H     0.40643   0.25060   0.97945   0.00000  Uiso   1.00
H696   H     0.51380   0.15623   0.90084   0.00000  Uiso   1.00
H697   H     0.44503   0.19274   0.57365   0.00000  Uiso   1.00
H698   H     0.53378   0.11650   0.92982   0.00000  Uiso   1.00
C699   C     0.66036   0.17615   0.73757   0.00000  Uiso   1.00
H700   H     0.35012   0.19308   0.71485   0.00000  Uiso   1.00
C701   C     0.34041   0.15770   0.76212   0.00000  Uiso   1.00
H702   H     0.65131   0.14082   0.78519   0.00000  Uiso   1.00
C703   C     0.51407   0.32212   0.73824   0.00000  Uiso   1.00
H704   H     0.54129   0.00269   0.71635   0.00000  Uiso   1.00
C705   C     0.48459   0.01210   0.76204   0.00000  Uiso   1.00
H706   H     0.45696   0.33230   0.78398   0.00000  Uiso   1.00
N707   N     0.56942   0.04898   0.52610   0.00000  Uiso   1.00
O708   O     0.60154   0.03886   0.53624   0.00000  Uiso   1.00
O709   O     0.54919   0.02089   0.50594   0.00000  Uiso   1.00
N710   N     0.50764   0.20382   0.59743   0.00000  Uiso   1.00
O711   O     0.52711   0.23496   0.57752   0.00000  Uiso   1.00
O712   O     0.48139   0.21141   0.63219   0.00000  Uiso   1.00
N713   N     0.42142   0.25185   0.90364   0.00000  Uiso   1.00
O714   O     0.44640   0.27939   0.88181   0.00000  Uiso   1.00
O715   O     0.38006   0.25473   0.91589   0.00000  Uiso   1.00
Zn716  Zn    0.85910   0.14090   0.78277   0.00000  Uiso   1.00
Zn717  Zn    0.80125   0.12378   0.72257   0.00000  Uiso   1.00
Zn718  Zn    0.87833   0.19664   0.71188   0.00000  Uiso   1.00
Zn719  Zn    0.79465   0.20535   0.78277   0.00000  Uiso   1.00
O720   O     0.83333   0.16667   0.75000   0.00000  Uiso   1.00
O721   O     0.73656   0.18960   0.77820   0.00000  Uiso   1.00
O722   O     0.92106   0.15277   0.76767   0.00000  Uiso   1.00
O723   O     0.80467   0.06903   0.73607   0.00000  Uiso   1.00
O724   O     0.87104   0.25527   0.71805   0.00000  Uiso   1.00
O725   O     0.82360   0.12393   0.66625   0.00000  Uiso   1.00
O726   O     0.79354   0.20646   0.83749   0.00000  Uiso   1.00
O727   O     0.87755   0.17493   0.65877   0.00000  Uiso   1.00
O728   O     0.83865   0.16135   0.83749   0.00000  Uiso   1.00
O729   O     0.84515   0.08101   0.77820   0.00000  Uiso   1.00
O730   O     0.81247   0.26136   0.76767   0.00000  Uiso   1.00
O731   O     0.74119   0.13251   0.73607   0.00000  Uiso   1.00
O732   O     0.93452   0.19179   0.71805   0.00000  Uiso   1.00
C733   C     0.71913   0.15998   0.75870   0.00000  Uiso   1.00
C734   C     0.94768   0.17356   0.74120   0.00000  Uiso   1.00
C735   C     0.82245   0.05614   0.75892   0.00000  Uiso   1.00
C736   C     0.84345   0.27765   0.74139   0.00000  Uiso   1.00
C737   C     0.85482   0.14506   0.64414   0.00000  Uiso   1.00
C738   C     0.81251   0.18844   0.85616   0.00000  Uiso   1.00
C739   C     0.80310   0.19751   0.89934   0.00000  Uiso   1.00
C740   C     0.86229   0.13592   0.60193   0.00000  Uiso   1.00
C741   C     0.76281   0.22928   0.96252   0.00000  Uiso   1.00
C742   C     0.77345   0.22570   0.92164   0.00000  Uiso   1.00
C743   C     0.82324   0.17573   0.91875   0.00000  Uiso   1.00
C744   C     0.81327   0.17958   0.95994   0.00000  Uiso   1.00
C745   C     0.78229   0.20671   0.98167   0.00000  Uiso   1.00
C746   C     0.83309   0.15735   0.98023   0.00000  Uiso   1.00
C747   C     0.82452   0.16597   0.52166   0.00000  Uiso   1.00
C748   C     0.79084   0.19042   0.54214   0.00000  Uiso   1.00
C749   C     0.77058   0.21088   0.52248   0.00000  Uiso   1.00
C750   C     0.85996   0.12591   0.96088   0.00000  Uiso   1.00
C751   C     0.87646   0.10288   0.98167   0.00000  Uiso   1.00
C752   C     0.86931   0.11192   0.52227   0.00000  Uiso   1.00
C753   C     0.84727   0.14703   0.54181   0.00000  Uiso   1.00
C754   C     0.88448   0.08720   0.54369   0.00000  Uiso   1.00
C755   C     0.87938   0.09889   0.58365   0.00000  Uiso   1.00
C756   C     0.84852   0.16159   0.58086   0.00000  Uiso   1.00
H757   H     0.74547   0.23007   0.53939   0.00000  Uiso   1.00
H758   H     0.88902   0.07903   0.60065   0.00000  Uiso   1.00
H759   H     0.89581   0.07844   0.96525   0.00000  Uiso   1.00
H760   H     0.73977   0.25060   0.97945   0.00000  Uiso   1.00
H761   H     0.84713   0.15623   0.90084   0.00000  Uiso   1.00
H762   H     0.77836   0.19274   0.57365   0.00000  Uiso   1.00
H763   H     0.86711   0.11650   0.92982   0.00000  Uiso   1.00
C764   C     0.99370   0.17615   0.73757   0.00000  Uiso   1.00
H765   H     0.68346   0.19308   0.71485   0.00000  Uiso   1.00
C766   C     0.67374   0.15770   0.76212   0.00000  Uiso   1.00
H767   H     0.98464   0.14082   0.78519   0.00000  Uiso   1.00
C768   C     0.84740   0.32212   0.73824   0.00000  Uiso   1.00
H769   H     0.87462   0.00269   0.71635   0.00000  Uiso   1.00
C770   C     0.81793   0.01210   0.76204   0.00000  Uiso   1.00
H771   H     0.79030   0.33230   0.78398   0.00000  Uiso   1.00
N772   N     0.90275   0.04898   0.52610   0.00000  Uiso   1.00
O773   O     0.93487   0.03886   0.53624   0.00000  Uiso   1.00
O774   O     0.88252   0.02089   0.50594   0.00000  Uiso   1.00
N775   N     0.84097   0.20382   0.59743   0.00000  Uiso   1.00
O776   O     0.86044   0.23496   0.57752   0.00000  Uiso   1.00
O777   O     0.81473   0.21141   0.63219   0.00000  Uiso   1.00
N778   N     0.75475   0.25185   0.90364   0.00000  Uiso   1.00
O779   O     0.77974   0.27939   0.88181   0.00000  Uiso   1.00
O780   O     0.71339   0.25473   0.91589   0.00000  Uiso   1.00
Zn781  Zn    0.19244   0.47423   0.78277   0.00000  Uiso   1.00
Zn782  Zn    0.13459   0.45711   0.72257   0.00000  Uiso   1.00
Zn783  Zn    0.21166   0.52997   0.71188   0.00000  Uiso   1.00
Zn784  Zn    0.12798   0.53868   0.78277   0.00000  Uiso   1.00
O785   O     0.16667   0.50000   0.75000   0.00000  Uiso   1.00
O786   O     0.06990   0.52293   0.77820   0.00000  Uiso   1.00
O787   O     0.25440   0.48610   0.76767   0.00000  Uiso   1.00
O788   O     0.13800   0.40236   0.73607   0.00000  Uiso   1.00
O789   O     0.20437   0.58860   0.71805   0.00000  Uiso   1.00
O790   O     0.15693   0.45726   0.66625   0.00000  Uiso   1.00
O791   O     0.12687   0.53979   0.83749   0.00000  Uiso   1.00
O792   O     0.21088   0.50826   0.65877   0.00000  Uiso   1.00
O793   O     0.17198   0.49468   0.83749   0.00000  Uiso   1.00
O794   O     0.17849   0.41434   0.77820   0.00000  Uiso   1.00
O795   O     0.14581   0.59469   0.76767   0.00000  Uiso   1.00
O796   O     0.07452   0.46584   0.73607   0.00000  Uiso   1.00
O797   O     0.26785   0.52512   0.71805   0.00000  Uiso   1.00
C798   C     0.05247   0.49331   0.75870   0.00000  Uiso   1.00
C799   C     0.28101   0.50690   0.74120   0.00000  Uiso   1.00
C800   C     0.15578   0.38947   0.75892   0.00000  Uiso   1.00
C801   C     0.17678   0.61099   0.74139   0.00000  Uiso   1.00
C802   C     0.18815   0.47839   0.64414   0.00000  Uiso   1.00
C803   C     0.14584   0.52178   0.85616   0.00000  Uiso   1.00
C804   C     0.13643   0.53084   0.89934   0.00000  Uiso   1.00
C805   C     0.19562   0.46925   0.60193   0.00000  Uiso   1.00
C806   C     0.09614   0.56262   0.96252   0.00000  Uiso   1.00
C807   C     0.10679   0.55904   0.92164   0.00000  Uiso   1.00
C808   C     0.15657   0.50907   0.91875   0.00000  Uiso   1.00
C809   C     0.14661   0.51291   0.95994   0.00000  Uiso   1.00
C810   C     0.11562   0.54004   0.98167   0.00000  Uiso   1.00
C811   C     0.16642   0.49069   0.98023   0.00000  Uiso   1.00
C812   C     0.15785   0.49930   0.52166   0.00000  Uiso   1.00
C813   C     0.12417   0.52375   0.54214   0.00000  Uiso   1.00
C814   C     0.10391   0.54422   0.52248   0.00000  Uiso   1.00
C815   C     0.19329   0.45924   0.96088   0.00000  Uiso   1.00
C816   C     0.20979   0.43621   0.98167   0.00000  Uiso   1.00
C817   C     0.20264   0.44525   0.52227   0.00000  Uiso   1.00
C818   C     0.18060   0.48037   0.54181   0.00000  Uiso   1.00
C819   C     0.21781   0.42053   0.54369   0.00000  Uiso   1.00
C820   C     0.21271   0.43222   0.58365   0.00000  Uiso   1.00
C821   C     0.18186   0.49492   0.58086   0.00000  Uiso   1.00
H822   H     0.07880   0.56340   0.53939   0.00000  Uiso   1.00
H823   H     0.22235   0.41237   0.60065   0.00000  Uiso   1.00
H824   H     0.22914   0.41177   0.96525   0.00000  Uiso   1.00
H825   H     0.07310   0.58394   0.97945   0.00000  Uiso   1.00
H826   H     0.18047   0.48956   0.90084   0.00000  Uiso   1.00
H827   H     0.11169   0.52607   0.57365   0.00000  Uiso   1.00
H828   H     0.20045   0.44983   0.92982   0.00000  Uiso   1.00
C829   C     0.32703   0.50948   0.73757   0.00000  Uiso   1.00
H830   H     0.01679   0.52641   0.71485   0.00000  Uiso   1.00
C831   C     0.00707   0.49103   0.76212   0.00000  Uiso   1.00
H832   H     0.31797   0.47415   0.78519   0.00000  Uiso   1.00
C833   C     0.18074   0.65545   0.73824   0.00000  Uiso   1.00
H834   H     0.20795   0.33602   0.71635   0.00000  Uiso   1.00
C835   C     0.15126   0.34543   0.76204   0.00000  Uiso   1.00
H836   H     0.12363   0.66564   0.78398   0.00000  Uiso   1.00
N837   N     0.23608   0.38231   0.52610   0.00000  Uiso   1.00
O838   O     0.26821   0.37220   0.53624   0.00000  Uiso   1.00
O839   O     0.21585   0.35422   0.50594   0.00000  Uiso   1.00
N840   N     0.17431   0.53716   0.59743   0.00000  Uiso   1.00
O841   O     0.19378   0.56829   0.57752   0.00000  Uiso   1.00
O842   O     0.14806   0.54475   0.63219   0.00000  Uiso   1.00
N843   N     0.08808   0.58518   0.90364   0.00000  Uiso   1.00
O844   O     0.11307   0.61272   0.88181   0.00000  Uiso   1.00
O845   O     0.04673   0.58807   0.91589   0.00000  Uiso   1.00
Zn846  Zn    0.52577   0.47423   0.78277   0.00000  Uiso   1.00
Zn847  Zn    0.46792   0.45711   0.72257   0.00000  Uiso   1.00
Zn848  Zn    0.54500   0.52997   0.71188   0.00000  Uiso   1.00
Zn849  Zn    0.46131   0.53868   0.78277   0.00000  Uiso   1.00
O850   O     0.50000   0.50000   0.75000   0.00000  Uiso   1.00
O851   O     0.40323   0.52293   0.77820   0.00000  Uiso   1.00
O852   O     0.58773   0.48610   0.76767   0.00000  Uiso   1.00
O853   O     0.47133   0.40236   0.73607   0.00000  Uiso   1.00
O854   O     0.53771   0.58860   0.71805   0.00000  Uiso   1.00
O855   O     0.49027   0.45726   0.66625   0.00000  Uiso   1.00
O856   O     0.46020   0.53979   0.83749   0.00000  Uiso   1.00
O857   O     0.54421   0.50826   0.65877   0.00000  Uiso   1.00
O858   O     0.50532   0.49468   0.83749   0.00000  Uiso   1.00
O859   O     0.51182   0.41434   0.77820   0.00000  Uiso   1.00
O860   O     0.47914   0.59469   0.76767   0.00000  Uiso   1.00
O861   O     0.40785   0.46584   0.73607   0.00000  Uiso   1.00
O862   O     0.60119   0.52512   0.71805   0.00000  Uiso   1.00
C863   C     0.38580   0.49331   0.75870   0.00000  Uiso   1.00
C864   C     0.61434   0.50690   0.74120   0.00000  Uiso   1.00
C865   C     0.48912   0.38947   0.75892   0.00000  Uiso   1.00
C866   C     0.51011   0.61099   0.74139   0.00000  Uiso   1.00
C867   C     0.52148   0.47839   0.64414   0.00000  Uiso   1.00
C868   C     0.47918   0.52178   0.85616   0.00000  Uiso   1.00
C869   C     0.46977   0.53084   0.89934   0.00000  Uiso   1.00
C870   C     0.52896   0.46925   0.60193   0.00000  Uiso   1.00
C871   C     0.42948   0.56262   0.96252   0.00000  Uiso   1.00
C872   C     0.44012   0.55904   0.92164   0.00000  Uiso   1.00
C873   C     0.48990   0.50907   0.91875   0.00000  Uiso   1.00
C874   C     0.47994   0.51291   0.95994   0.00000  Uiso   1.00
C875   C     0.44896   0.54004   0.98167   0.00000  Uiso   1.00
C876   C     0.49976   0.49069   0.98023   0.00000  Uiso   1.00
C877   C     0.49119   0.49930   0.52166   0.00000  Uiso   1.00
C878   C     0.45751   0.52375   0.54214   0.00000  Uiso   1.00
C879   C     0.43724   0.54422   0.52248   0.00000  Uiso   1.00
C880   C     0.52662   0.45924   0.96088   0.00000  Uiso   1.00
C881   C     0.54313   0.43621   0.98167   0.00000  Uiso   1.00
C882   C     0.53597   0.44525   0.52227   0.00000  Uiso   1.00
C883   C     0.51393   0.48037   0.54181   0.00000  Uiso   1.00
C884   C     0.55115   0.42053   0.54369   0.00000  Uiso   1.00
C885   C     0.54605   0.43222   0.58365   0.00000  Uiso   1.00
C886   C     0.51519   0.49492   0.58086   0.00000  Uiso   1.00
H887   H     0.41214   0.56340   0.53939   0.00000  Uiso   1.00
H888   H     0.55568   0.41237   0.60065   0.00000  Uiso   1.00
H889   H     0.56248   0.41177   0.96525   0.00000  Uiso   1.00
H890   H     0.40643   0.58394   0.97945   0.00000  Uiso   1.00
H891   H     0.51380   0.48956   0.90084   0.00000  Uiso   1.00
H892   H     0.44503   0.52607   0.57365   0.00000  Uiso   1.00
H893   H     0.53378   0.44983   0.92982   0.00000  Uiso   1.00
C894   C     0.66036   0.50948   0.73757   0.00000  Uiso   1.00
H895   H     0.35012   0.52641   0.71485   0.00000  Uiso   1.00
C896   C     0.34041   0.49103   0.76212   0.00000  Uiso   1.00
H897   H     0.65131   0.47415   0.78519   0.00000  Uiso   1.00
C898   C     0.51407   0.65545   0.73824   0.00000  Uiso   1.00
H899   H     0.54129   0.33602   0.71635   0.00000  Uiso   1.00
C900   C     0.48459   0.34543   0.76204   0.00000  Uiso   1.00
H901   H     0.45696   0.66564   0.78398   0.00000  Uiso   1.00
N902   N     0.56942   0.38231   0.52610   0.00000  Uiso   1.00
O903   O     0.60154   0.37220   0.53624   0.00000  Uiso   1.00
O904   O     0.54919   0.35422   0.50594   0.00000  Uiso   1.00
N905   N     0.50764   0.53716   0.59743   0.00000  Uiso   1.00
O906   O     0.52711   0.56829   0.57752   0.00000  Uiso   1.00
O907   O     0.48139   0.54475   0.63219   0.00000  Uiso   1.00
N908   N     0.42142   0.58518   0.90364   0.00000  Uiso   1.00
O909   O     0.44640   0.61272   0.88181   0.00000  Uiso   1.00
O910   O     0.38006   0.58807   0.91589   0.00000  Uiso   1.00
Zn911  Zn    0.85910   0.47423   0.78277   0.00000  Uiso   1.00
Zn912  Zn    0.80125   0.45711   0.72257   0.00000  Uiso   1.00
Zn913  Zn    0.87833   0.52997   0.71188   0.00000  Uiso   1.00
Zn914  Zn    0.79465   0.53868   0.78277   0.00000  Uiso   1.00
O915   O     0.83333   0.50000   0.75000   0.00000  Uiso   1.00
O916   O     0.73656   0.52293   0.77820   0.00000  Uiso   1.00
O917   O     0.92106   0.48610   0.76767   0.00000  Uiso   1.00
O918   O     0.80467   0.40236   0.73607   0.00000  Uiso   1.00
O919   O     0.87104   0.58860   0.71805   0.00000  Uiso   1.00
O920   O     0.82360   0.45726   0.66625   0.00000  Uiso   1.00
O921   O     0.79354   0.53979   0.83749   0.00000  Uiso   1.00
O922   O     0.87755   0.50826   0.65877   0.00000  Uiso   1.00
O923   O     0.83865   0.49468   0.83749   0.00000  Uiso   1.00
O924   O     0.84515   0.41434   0.77820   0.00000  Uiso   1.00
O925   O     0.81247   0.59469   0.76767   0.00000  Uiso   1.00
O926   O     0.74119   0.46584   0.73607   0.00000  Uiso   1.00
O927   O     0.93452   0.52512   0.71805   0.00000  Uiso   1.00
C928   C     0.71913   0.49331   0.75870   0.00000  Uiso   1.00
C929   C     0.94768   0.50690   0.74120   0.00000  Uiso   1.00
C930   C     0.82245   0.38947   0.75892   0.00000  Uiso   1.00
C931   C     0.84345   0.61099   0.74139   0.00000  Uiso   1.00
C932   C     0.85482   0.47839   0.64414   0.00000  Uiso   1.00
C933   C     0.81251   0.52178   0.85616   0.00000  Uiso   1.00
C934   C     0.80310   0.53084   0.89934   0.00000  Uiso   1.00
C935   C     0.86229   0.46925   0.60193   0.00000  Uiso   1.00
C936   C     0.76281   0.56262   0.96252   0.00000  Uiso   1.00
C937   C     0.77345   0.55904   0.92164   0.00000  Uiso   1.00
C938   C     0.82324   0.50907   0.91875   0.00000  Uiso   1.00
C939   C     0.81327   0.51291   0.95994   0.00000  Uiso   1.00
C940   C     0.78229   0.54004   0.98167   0.00000  Uiso   1.00
C941   C     0.83309   0.49069   0.98023   0.00000  Uiso   1.00
C942   C     0.82452   0.49930   0.52166   0.00000  Uiso   1.00
C943   C     0.79084   0.52375   0.54214   0.00000  Uiso   1.00
C944   C     0.77058   0.54422   0.52248   0.00000  Uiso   1.00
C945   C     0.85996   0.45924   0.96088   0.00000  Uiso   1.00
C946   C     0.87646   0.43621   0.98167   0.00000  Uiso   1.00
C947   C     0.86931   0.44525   0.52227   0.00000  Uiso   1.00
C948   C     0.84727   0.48037   0.54181   0.00000  Uiso   1.00
C949   C     0.88448   0.42053   0.54369   0.00000  Uiso   1.00
C950   C     0.87938   0.43222   0.58365   0.00000  Uiso   1.00
C951   C     0.84852   0.49492   0.58086   0.00000  Uiso   1.00
H952   H     0.74547   0.56340   0.53939   0.00000  Uiso   1.00
H953   H     0.88902   0.41237   0.60065   0.00000  Uiso   1.00
H954   H     0.89581   0.41177   0.96525   0.00000  Uiso   1.00
H955   H     0.73977   0.58394   0.97945   0.00000  Uiso   1.00
H956   H     0.84713   0.48956   0.90084   0.00000  Uiso   1.00
H957   H     0.77836   0.52607   0.57365   0.00000  Uiso   1.00
H958   H     0.86711   0.44983   0.92982   0.00000  Uiso   1.00
C959   C     0.99370   0.50948   0.73757   0.00000  Uiso   1.00
H960   H     0.68346   0.52641   0.71485   0.00000  Uiso   1.00
C961   C     0.67374   0.49103   0.76212   0.00000  Uiso   1.00
H962   H     0.98464   0.47415   0.78519   0.00000  Uiso   1.00
C963   C     0.84740   0.65545   0.73824   0.00000  Uiso   1.00
H964   H     0.87462   0.33602   0.71635   0.00000  Uiso   1.00
C965   C     0.81793   0.34543   0.76204   0.00000  Uiso   1.00
H966   H     0.79030   0.66564   0.78398   0.00000  Uiso   1.00
N967   N     0.90275   0.38231   0.52610   0.00000  Uiso   1.00
O968   O     0.93487   0.37220   0.53624   0.00000  Uiso   1.00
O969   O     0.88252   0.35422   0.50594   0.00000  Uiso   1.00
N970   N     0.84097   0.53716   0.59743   0.00000  Uiso   1.00
O971   O     0.86044   0.56829   0.57752   0.00000  Uiso   1.00
O972   O     0.81473   0.54475   0.63219   0.00000  Uiso   1.00
N973   N     0.75475   0.58518   0.90364   0.00000  Uiso   1.00
O974   O     0.77974   0.61272   0.88181   0.00000  Uiso   1.00
O975   O     0.71339   0.58807   0.91589   0.00000  Uiso   1.00
Zn976  Zn    0.19244   0.80756   0.78277   0.00000  Uiso   1.00
Zn977  Zn    0.13459   0.79044   0.72257   0.00000  Uiso   1.00
Zn978  Zn    0.21166   0.86331   0.71188   0.00000  Uiso   1.00
Zn979  Zn    0.12798   0.87202   0.78277   0.00000  Uiso   1.00
O980   O     0.16667   0.83333   0.75000   0.00000  Uiso   1.00
O981   O     0.06990   0.85627   0.77820   0.00000  Uiso   1.00
O982   O     0.25440   0.81944   0.76767   0.00000  Uiso   1.00
O983   O     0.13800   0.73570   0.73607   0.00000  Uiso   1.00
O984   O     0.20437   0.92193   0.71805   0.00000  Uiso   1.00
O985   O     0.15693   0.79060   0.66625   0.00000  Uiso   1.00
O986   O     0.12687   0.87313   0.83749   0.00000  Uiso   1.00
O987   O     0.21088   0.84159   0.65877   0.00000  Uiso   1.00
O988   O     0.17198   0.82802   0.83749   0.00000  Uiso   1.00
O989   O     0.17849   0.74768   0.77820   0.00000  Uiso   1.00
O990   O     0.14581   0.92803   0.76767   0.00000  Uiso   1.00
O991   O     0.07452   0.79917   0.73607   0.00000  Uiso   1.00
O992   O     0.26785   0.85845   0.71805   0.00000  Uiso   1.00
C993   C     0.05247   0.82665   0.75870   0.00000  Uiso   1.00
C994   C     0.28101   0.84023   0.74120   0.00000  Uiso   1.00
C995   C     0.15578   0.72281   0.75892   0.00000  Uiso   1.00
C996   C     0.17678   0.94432   0.74139   0.00000  Uiso   1.00
C997   C     0.18815   0.81172   0.64414   0.00000  Uiso   1.00
C998   C     0.14584   0.85511   0.85616   0.00000  Uiso   1.00
C999   C     0.13643   0.86417   0.89934   0.00000  Uiso   1.00
C1000  C     0.19562   0.80258   0.60193   0.00000  Uiso   1.00
C1001  C     0.09614   0.89595   0.96252   0.00000  Uiso   1.00
C1002  C     0.10679   0.89237   0.92164   0.00000  Uiso   1.00
C1003  C     0.15657   0.84240   0.91875   0.00000  Uiso   1.00
C1004  C     0.14661   0.84625   0.95994   0.00000  Uiso   1.00
C1005  C     0.11562   0.87338   0.98167   0.00000  Uiso   1.00
C1006  C     0.16642   0.82402   0.98023   0.00000  Uiso   1.00
C1007  C     0.15785   0.83263   0.52166   0.00000  Uiso   1.00
C1008  C     0.12417   0.85708   0.54214   0.00000  Uiso   1.00
C1009  C     0.10391   0.87755   0.52248   0.00000  Uiso   1.00
C1010  C     0.19329   0.79257   0.96088   0.00000  Uiso   1.00
C1011  C     0.20979   0.76955   0.98167   0.00000  Uiso   1.00
C1012  C     0.20264   0.77859   0.52227   0.00000  Uiso   1.00
C1013  C     0.18060   0.81370   0.54181   0.00000  Uiso   1.00
C1014  C     0.21781   0.75387   0.54369   0.00000  Uiso   1.00
C1015  C     0.21271   0.76556   0.58365   0.00000  Uiso   1.00
C1016  C     0.18186   0.82825   0.58086   0.00000  Uiso   1.00
H1017  H     0.07880   0.89673   0.53939   0.00000  Uiso   1.00
H1018  H     0.22235   0.74570   0.60065   0.00000  Uiso   1.00
H1019  H     0.22914   0.74510   0.96525   0.00000  Uiso   1.00
H1020  H     0.07310   0.91727   0.97945   0.00000  Uiso   1.00
H1021  H     0.18047   0.82289   0.90084   0.00000  Uiso   1.00
H1022  H     0.11169   0.85940   0.57365   0.00000  Uiso   1.00
H1023  H     0.20045   0.78316   0.92982   0.00000  Uiso   1.00
C1024  C     0.32703   0.84281   0.73757   0.00000  Uiso   1.00
H1025  H     0.01679   0.85975   0.71485   0.00000  Uiso   1.00
C1026  C     0.00707   0.82436   0.76212   0.00000  Uiso   1.00
H1027  H     0.31797   0.80748   0.78519   0.00000  Uiso   1.00
C1028  C     0.18074   0.98879   0.73824   0.00000  Uiso   1.00
H1029  H     0.20795   0.66936   0.71635   0.00000  Uiso   1.00
C1030  C     0.15126   0.67876   0.76204   0.00000  Uiso   1.00
H1031  H     0.12363   0.99897   0.78398   0.00000  Uiso   1.00
N1032  N     0.23608   0.71564   0.52610   0.00000  Uiso   1.00
O1033  O     0.26821   0.70553   0.53624   0.00000  Uiso   1.00
O1034  O     0.21585   0.68756   0.50594   0.00000  Uiso   1.00
N1035  N     0.17431   0.87049   0.59743   0.00000  Uiso   1.00
O1036  O     0.19378   0.90163   0.57752   0.00000  Uiso   1.00
O1037  O     0.14806   0.87808   0.63219   0.00000  Uiso   1.00
N1038  N     0.08808   0.91851   0.90364   0.00000  Uiso   1.00
O1039  O     0.11307   0.94606   0.88181   0.00000  Uiso   1.00
O1040  O     0.04673   0.92140   0.91589   0.00000  Uiso   1.00
Zn1041 Zn    0.52577   0.80756   0.78277   0.00000  Uiso   1.00
Zn1042 Zn    0.46792   0.79044   0.72257   0.00000  Uiso   1.00
Zn1043 Zn    0.54500   0.86331   0.71188   0.00000  Uiso   1.00
Zn1044 Zn    0.46131   0.87202   0.78277   0.00000  Uiso   1.00
O1045  O     0.50000   0.83333   0.75000   0.00000  Uiso   1.00
O1046  O     0.40323   0.85627   0.77820   0.00000  Uiso   1.00
O1047  O     0.58773   0.81944   0.76767   0.00000  Uiso   1.00
O1048  O     0.47133   0.73570   0.73607   0.00000  Uiso   1.00
O1049  O     0.53771   0.92193   0.71805   0.00000  Uiso   1.00
O1050  O     0.49027   0.79060   0.66625   0.00000  Uiso   1.00
O1051  O     0.46020   0.87313   0.83749   0.00000  Uiso   1.00
O1052  O     0.54421   0.84159   0.65877   0.00000  Uiso   1.00
O1053  O     0.50532   0.82802   0.83749   0.00000  Uiso   1.00
O1054  O     0.51182   0.74768   0.77820   0.00000  Uiso   1.00
O1055  O     0.47914   0.92803   0.76767   0.00000  Uiso   1.00
O1056  O     0.40785   0.79917   0.73607   0.00000  Uiso   1.00
O1057  O     0.60119   0.85845   0.71805   0.00000  Uiso   1.00
C1058  C     0.38580   0.82665   0.75870   0.00000  Uiso   1.00
C1059  C     0.61434   0.84023   0.74120   0.00000  Uiso   1.00
C1060  C     0.48912   0.72281   0.75892   0.00000  Uiso   1.00
C1061  C     0.51011   0.94432   0.74139   0.00000  Uiso   1.00
C1062  C     0.52148   0.81172   0.64414   0.00000  Uiso   1.00
C1063  C     0.47918   0.85511   0.85616   0.00000  Uiso   1.00
C1064  C     0.46977   0.86417   0.89934   0.00000  Uiso   1.00
C1065  C     0.52896   0.80258   0.60193   0.00000  Uiso   1.00
C1066  C     0.42948   0.89595   0.96252   0.00000  Uiso   1.00
C1067  C     0.44012   0.89237   0.92164   0.00000  Uiso   1.00
C1068  C     0.48990   0.84240   0.91875   0.00000  Uiso   1.00
C1069  C     0.47994   0.84625   0.95994   0.00000  Uiso   1.00
C1070  C     0.44896   0.87338   0.98167   0.00000  Uiso   1.00
C1071  C     0.49976   0.82402   0.98023   0.00000  Uiso   1.00
C1072  C     0.49119   0.83263   0.52166   0.00000  Uiso   1.00
C1073  C     0.45751   0.85708   0.54214   0.00000  Uiso   1.00
C1074  C     0.43724   0.87755   0.52248   0.00000  Uiso   1.00
C1075  C     0.52662   0.79257   0.96088   0.00000  Uiso   1.00
C1076  C     0.54313   0.76955   0.98167   0.00000  Uiso   1.00
C1077  C     0.53597   0.77859   0.52227   0.00000  Uiso   1.00
C1078  C     0.51393   0.81370   0.54181   0.00000  Uiso   1.00
C1079  C     0.55115   0.75387   0.54369   0.00000  Uiso   1.00
C1080  C     0.54605   0.76556   0.58365   0.00000  Uiso   1.00
C1081  C     0.51519   0.82825   0.58086   0.00000  Uiso   1.00
H1082  H     0.41214   0.89673   0.53939   0.00000  Uiso   1.00
H1083  H     0.55568   0.74570   0.60065   0.00000  Uiso   1.00
H1084  H     0.56248   0.74510   0.96525   0.00000  Uiso   1.00
H1085  H     0.40643   0.91727   0.97945   0.00000  Uiso   1.00
H1086  H     0.51380   0.82289   0.90084   0.00000  Uiso   1.00
H1087  H     0.44503   0.85940   0.57365   0.00000  Uiso   1.00
H1088  H     0.53378   0.78316   0.92982   0.00000  Uiso   1.00
C1089  C     0.66036   0.84281   0.73757   0.00000  Uiso   1.00
H1090  H     0.35012   0.85975   0.71485   0.00000  Uiso   1.00
C1091  C     0.34041   0.82436   0.76212   0.00000  Uiso   1.00
H1092  H     0.65131   0.80748   0.78519   0.00000  Uiso   1.00
C1093  C     0.51407   0.98879   0.73824   0.00000  Uiso   1.00
H1094  H     0.54129   0.66936   0.71635   0.00000  Uiso   1.00
C1095  C     0.48459   0.67876   0.76204   0.00000  Uiso   1.00
H1096  H     0.45696   0.99897   0.78398   0.00000  Uiso   1.00
N1097  N     0.56942   0.71564   0.52610   0.00000  Uiso   1.00
O1098  O     0.60154   0.70553   0.53624   0.00000  Uiso   1.00
O1099  O     0.54919   0.68756   0.50594   0.00000  Uiso   1.00
N1100  N     0.50764   0.87049   0.59743   0.00000  Uiso   1.00
O1101  O     0.52711   0.90163   0.57752   0.00000  Uiso   1.00
O1102  O     0.48139   0.87808   0.63219   0.00000  Uiso   1.00
N1103  N     0.42142   0.91851   0.90364   0.00000  Uiso   1.00
O1104  O     0.44640   0.94606   0.88181   0.00000  Uiso   1.00
O1105  O     0.38006   0.92140   0.91589   0.00000  Uiso   1.00
Zn1106 Zn    0.85910   0.80756   0.78277   0.00000  Uiso   1.00
Zn1107 Zn    0.80125   0.79044   0.72257   0.00000  Uiso   1.00
Zn1108 Zn    0.87833   0.86331   0.71188   0.00000  Uiso   1.00
Zn1109 Zn    0.79465   0.87202   0.78277   0.00000  Uiso   1.00
O1110  O     0.83333   0.83333   0.75000   0.00000  Uiso   1.00
O1111  O     0.73656   0.85627   0.77820   0.00000  Uiso   1.00
O1112  O     0.92106   0.81944   0.76767   0.00000  Uiso   1.00
O1113  O     0.80467   0.73570   0.73607   0.00000  Uiso   1.00
O1114  O     0.87104   0.92193   0.71805   0.00000  Uiso   1.00
O1115  O     0.82360   0.79060   0.66625   0.00000  Uiso   1.00
O1116  O     0.79354   0.87313   0.83749   0.00000  Uiso   1.00
O1117  O     0.87755   0.84159   0.65877   0.00000  Uiso   1.00
O1118  O     0.83865   0.82802   0.83749   0.00000  Uiso   1.00
O1119  O     0.84515   0.74768   0.77820   0.00000  Uiso   1.00
O1120  O     0.81247   0.92803   0.76767   0.00000  Uiso   1.00
O1121  O     0.74119   0.79917   0.73607   0.00000  Uiso   1.00
O1122  O     0.93452   0.85845   0.71805   0.00000  Uiso   1.00
C1123  C     0.71913   0.82665   0.75870   0.00000  Uiso   1.00
C1124  C     0.94768   0.84023   0.74120   0.00000  Uiso   1.00
C1125  C     0.82245   0.72281   0.75892   0.00000  Uiso   1.00
C1126  C     0.84345   0.94432   0.74139   0.00000  Uiso   1.00
C1127  C     0.85482   0.81172   0.64414   0.00000  Uiso   1.00
C1128  C     0.81251   0.85511   0.85616   0.00000  Uiso   1.00
C1129  C     0.80310   0.86417   0.89934   0.00000  Uiso   1.00
C1130  C     0.86229   0.80258   0.60193   0.00000  Uiso   1.00
C1131  C     0.76281   0.89595   0.96252   0.00000  Uiso   1.00
C1132  C     0.77345   0.89237   0.92164   0.00000  Uiso   1.00
C1133  C     0.82324   0.84240   0.91875   0.00000  Uiso   1.00
C1134  C     0.81327   0.84625   0.95994   0.00000  Uiso   1.00
C1135  C     0.78229   0.87338   0.98167   0.00000  Uiso   1.00
C1136  C     0.83309   0.82402   0.98023   0.00000  Uiso   1.00
C1137  C     0.82452   0.83263   0.52166   0.00000  Uiso   1.00
C1138  C     0.79084   0.85708   0.54214   0.00000  Uiso   1.00
C1139  C     0.77058   0.87755   0.52248   0.00000  Uiso   1.00
C1140  C     0.85996   0.79257   0.96088   0.00000  Uiso   1.00
C1141  C     0.87646   0.76955   0.98167   0.00000  Uiso   1.00
C1142  C     0.86931   0.77859   0.52227   0.00000  Uiso   1.00
C1143  C     0.84727   0.81370   0.54181   0.00000  Uiso   1.00
C1144  C     0.88448   0.75387   0.54369   0.00000  Uiso   1.00
C1145  C     0.87938   0.76556   0.58365   0.00000  Uiso   1.00
C1146  C     0.84852   0.82825   0.58086   0.00000  Uiso   1.00
H1147  H     0.74547   0.89673   0.53939   0.00000  Uiso   1.00
H1148  H     0.88902   0.74570   0.60065   0.00000  Uiso   1.00
H1149  H     0.89581   0.74510   0.96525   0.00000  Uiso   1.00
H1150  H     0.73977   0.91727   0.97945   0.00000  Uiso   1.00
H1151  H     0.84713   0.82289   0.90084   0.00000  Uiso   1.00
H1152  H     0.77836   0.85940   0.57365   0.00000  Uiso   1.00
H1153  H     0.86711   0.78316   0.92982   0.00000  Uiso   1.00
C1154  C     0.99370   0.84281   0.73757   0.00000  Uiso   1.00
H1155  H     0.68346   0.85975   0.71485   0.00000  Uiso   1.00
C1156  C     0.67374   0.82436   0.76212   0.00000  Uiso   1.00
H1157  H     0.98464   0.80748   0.78519   0.00000  Uiso   1.00
C1158  C     0.84740   0.98879   0.73824   0.00000  Uiso   1.00
H1159  H     0.87462   0.66936   0.71635   0.00000  Uiso   1.00
C1160  C     0.81793   0.67876   0.76204   0.00000  Uiso   1.00
H1161  H     0.79030   0.99897   0.78398   0.00000  Uiso   1.00
N1162  N     0.90275   0.71564   0.52610   0.00000  Uiso   1.00
O1163  O     0.93487   0.70553   0.53624   0.00000  Uiso   1.00
O1164  O     0.88252   0.68756   0.50594   0.00000  Uiso   1.00
N1165  N     0.84097   0.87049   0.59743   0.00000  Uiso   1.00
O1166  O     0.86044   0.90163   0.57752   0.00000  Uiso   1.00
O1167  O     0.81473   0.87808   0.63219   0.00000  Uiso   1.00
N1168  N     0.75475   0.91851   0.90364   0.00000  Uiso   1.00
O1169  O     0.77974   0.94606   0.88181   0.00000  Uiso   1.00
O1170  O     0.71339   0.92140   0.91589   0.00000  Uiso   1.00
loop_
_geom_bond_atom_site_label_1
_geom_bond_atom_site_label_2
_geom_bond_distance
_geom_bond_site_symmetry_2
_ccdc_geom_bond_type
Zn1    O14     1.926   .     S
Zn1    O5      1.966   .     S
Zn1    O13     1.929   .     S
Zn1    O7      1.923   .     S
Zn2    O16     1.926   .     S
Zn2    O5      1.940   .     S
Zn2    O8      1.939   .     S
Zn2    O10     1.937   .     S
Zn3    O9      1.929   .     S
Zn3    O17     1.937   .     S
Zn3    O12     1.938   .     S
Zn3    O5      1.939   .     S
Zn4    O15     1.933   .     S
Zn4    O5      1.929   .     S
Zn4    O11     1.947   .     S
Zn4    O6      1.931   .     S
O6     C18     1.268   .     A
O7     C19     1.282   .     A
O8     C20     1.278   .     A
O9     C21     1.270   .     A
O10    C22     1.270   .     A
O11    C23     1.280   .     A
O12    C22     1.276   .     A
O13    C23     1.290   .     A
O14    C20     1.278   .     A
O15    C21     1.272   .     A
O16    C18     1.269   .     A
O17    C19     1.286   .     A
C18    C51     1.438   .     S
C19    C49     1.455   .     S
C20    C55     1.435   .     S
C21    C53     1.451   .     S
C22    C25     1.454   .     S
C23    C24     1.481   .     S
C24    C27     1.417   .     A
C24    C28     1.402   .     A
C25    C40     1.394   .     A
C25    C41     1.402   .     A
C26    C30     1.398   .     A
C26    C27     1.396   .     A
C26    H45     1.085   .     S
C27    N63     1.434   .     S
C28    H46     1.075   .     S
C28    C29     1.408   .     A
C29    C30     1.416   .     A
C29    C31     1.427   .     A
C30    C619    1.392   .     S
C31    C35     1.412   .     A
C31    C617    1.422   .     S
C32    C38     1.425   .     A
C32    C33     1.411   .     A
C32    C616    1.422   1_554 S
C33    C34     1.385   .     A
C33    H47     1.079   .     S
C34    H42     1.084   .     S
C34    C615    1.392   1_554 S
C35    H48     1.076   .     S
C35    C36     1.387   .     A
C36    H44     1.082   .     S
C36    C622    1.399   .     S
C37    C38     1.423   .     A
C37    C39     1.415   .     A
C37    C621    1.399   1_554 S
C38    C41     1.421   .     A
C39    N57     1.438   .     S
C39    C40     1.395   .     A
C40    H43     1.084   .     S
C41    N60     1.440   .     S
C49    H115    1.088   .     S
C49    C116    1.335   .     S
H50    C179    1.088   1_455 S
C51    C179    1.335   1_455 S
C51    H182    1.086   1_455 S
H52    C116    1.086   .     S
C53    H249    1.088   .     S
C53    C250    1.331   .     S
H54    C443    1.088   1_545 S
C55    C443    1.331   1_545 S
C55    H446    1.086   1_545 S
H56    C250    1.086   .     S
N57    O58     1.301   .     A
N57    O59     1.301   .     A
N60    O62     1.302   .     A
N60    O61     1.301   .     A
N63    O65     1.301   .     A
N63    O64     1.301   .     A
Zn66   O79     1.926   .     S
Zn66   O70     1.966   .     S
Zn66   O78     1.929   .     S
Zn66   O72     1.923   .     S
Zn67   O81     1.926   .     S
Zn67   O70     1.940   .     S
Zn67   O73     1.939   .     S
Zn67   O75     1.937   .     S
Zn68   O74     1.929   .     S
Zn68   O82     1.937   .     S
Zn68   O77     1.938   .     S
Zn68   O70     1.939   .     S
Zn69   O80     1.933   .     S
Zn69   O70     1.929   .     S
Zn69   O76     1.947   .     S
Zn69   O71     1.931   .     S
O71    C83     1.268   .     A
O72    C84     1.282   .     A
O73    C85     1.278   .     A
O74    C86     1.270   .     A
O75    C87     1.270   .     A
O76    C88     1.280   .     A
O77    C87     1.276   .     A
O78    C88     1.290   .     A
O79    C85     1.278   .     A
O80    C86     1.272   .     A
O81    C83     1.269   .     A
O82    C84     1.286   .     A
C83    C116    1.438   .     S
C84    C114    1.455   .     S
C85    C120    1.435   .     S
C86    C118    1.451   .     S
C87    C90     1.454   .     S
C88    C89     1.481   .     S
C89    C92     1.417   .     A
C89    C93     1.402   .     A
C90    C105    1.394   .     A
C90    C106    1.402   .     A
C91    C95     1.398   .     A
C91    C92     1.396   .     A
C91    H110    1.085   .     S
C92    N128    1.434   .     S
C93    H111    1.075   .     S
C93    C94     1.408   .     A
C94    C95     1.416   .     A
C94    C96     1.427   .     A
C95    C684    1.392   .     S
C96    C100    1.412   .     A
C96    C682    1.422   .     S
C97    C103    1.425   .     A
C97    C98     1.411   .     A
C97    C681    1.422   1_554 S
C98    C99     1.385   .     A
C98    H112    1.079   .     S
C99    H107    1.084   .     S
C99    C680    1.392   1_554 S
C100   H113    1.076   .     S
C100   C101    1.387   .     A
C101   H109    1.082   .     S
C101   C687    1.399   .     S
C102   C103    1.423   .     A
C102   C104    1.415   .     A
C102   C686    1.399   1_554 S
C103   C106    1.421   .     A
C104   N122    1.438   .     S
C104   C105    1.395   .     A
C105   H108    1.084   .     S
C106   N125    1.440   .     S
C114   H180    1.088   .     S
C114   C181    1.335   .     S
H117   C181    1.086   .     S
C118   H314    1.088   .     S
C118   C315    1.331   .     S
H119   C508    1.088   1_545 S
C120   C508    1.331   1_545 S
C120   H511    1.086   1_545 S
H121   C315    1.086   .     S
N122   O123    1.301   .     A
N122   O124    1.301   .     A
N125   O127    1.302   .     A
N125   O126    1.301   .     A
N128   O130    1.301   .     A
N128   O129    1.301   .     A
Zn131  O144    1.926   .     S
Zn131  O135    1.966   .     S
Zn131  O143    1.929   .     S
Zn131  O137    1.923   .     S
Zn132  O146    1.926   .     S
Zn132  O135    1.940   .     S
Zn132  O138    1.939   .     S
Zn132  O140    1.937   .     S
Zn133  O139    1.929   .     S
Zn133  O147    1.937   .     S
Zn133  O142    1.938   .     S
Zn133  O135    1.939   .     S
Zn134  O145    1.933   .     S
Zn134  O135    1.929   .     S
Zn134  O141    1.947   .     S
Zn134  O136    1.931   .     S
O136   C148    1.268   .     A
O137   C149    1.282   .     A
O138   C150    1.278   .     A
O139   C151    1.270   .     A
O140   C152    1.270   .     A
O141   C153    1.280   .     A
O142   C152    1.276   .     A
O143   C153    1.290   .     A
O144   C150    1.278   .     A
O145   C151    1.272   .     A
O146   C148    1.269   .     A
O147   C149    1.286   .     A
C148   C181    1.438   .     S
C149   C179    1.455   .     S
C150   C185    1.435   .     S
C151   C183    1.451   .     S
C152   C155    1.454   .     S
C153   C154    1.481   .     S
C154   C157    1.417   .     A
C154   C158    1.402   .     A
C155   C170    1.394   .     A
C155   C171    1.402   .     A
C156   C160    1.398   .     A
C156   C157    1.396   .     A
C156   H175    1.085   .     S
C157   N193    1.434   .     S
C158   H176    1.075   .     S
C158   C159    1.408   .     A
C159   C160    1.416   .     A
C159   C161    1.427   .     A
C160   C749    1.392   .     S
C161   C165    1.412   .     A
C161   C747    1.422   .     S
C162   C168    1.425   .     A
C162   C163    1.411   .     A
C162   C746    1.422   1_554 S
C163   C164    1.385   .     A
C163   H177    1.079   .     S
C164   H172    1.084   .     S
C164   C745    1.392   1_554 S
C165   H178    1.076   .     S
C165   C166    1.387   .     A
C166   H174    1.082   .     S
C166   C752    1.399   .     S
C167   C168    1.423   .     A
C167   C169    1.415   .     A
C167   C751    1.399   1_554 S
C168   C171    1.421   .     A
C169   N187    1.438   .     S
C169   C170    1.395   .     A
C170   H173    1.084   .     S
C171   N190    1.440   .     S
C179   H50     1.088   1_655 S
C179   C51     1.335   1_655 S
H182   C51     1.086   1_655 S
C183   H379    1.088   .     S
C183   C380    1.331   .     S
H184   C573    1.088   1_545 S
C185   C573    1.331   1_545 S
C185   H576    1.086   1_545 S
H186   C380    1.086   .     S
N187   O188    1.301   .     A
N187   O189    1.301   .     A
N190   O192    1.302   .     A
N190   O191    1.301   .     A
N193   O195    1.301   .     A
N193   O194    1.301   .     A
Zn196  O209    1.926   .     S
Zn196  O200    1.966   .     S
Zn196  O208    1.929   .     S
Zn196  O202    1.923   .     S
Zn197  O211    1.926   .     S
Zn197  O200    1.940   .     S
Zn197  O203    1.939   .     S
Zn197  O205    1.937   .     S
Zn198  O204    1.929   .     S
Zn198  O212    1.937   .     S
Zn198  O207    1.938   .     S
Zn198  O200    1.939   .     S
Zn199  O210    1.933   .     S
Zn199  O200    1.929   .     S
Zn199  O206    1.947   .     S
Zn199  O201    1.931   .     S
O201   C213    1.268   .     A
O202   C214    1.282   .     A
O203   C215    1.278   .     A
O204   C216    1.270   .     A
O205   C217    1.270   .     A
O206   C218    1.280   .     A
O207   C217    1.276   .     A
O208   C218    1.290   .     A
O209   C215    1.278   .     A
O210   C216    1.272   .     A
O211   C213    1.269   .     A
O212   C214    1.286   .     A
C213   C246    1.438   .     S
C214   C244    1.455   .     S
C215   C250    1.435   .     S
C216   C248    1.451   .     S
C217   C220    1.454   .     S
C218   C219    1.481   .     S
C219   C222    1.417   .     A
C219   C223    1.402   .     A
C220   C235    1.394   .     A
C220   C236    1.402   .     A
C221   C225    1.398   .     A
C221   C222    1.396   .     A
C221   H240    1.085   .     S
C222   N258    1.434   .     S
C223   H241    1.075   .     S
C223   C224    1.408   .     A
C224   C225    1.416   .     A
C224   C226    1.427   .     A
C225   C814    1.392   .     S
C226   C230    1.412   .     A
C226   C812    1.422   .     S
C227   C233    1.425   .     A
C227   C228    1.411   .     A
C227   C811    1.422   1_554 S
C228   C229    1.385   .     A
C228   H242    1.079   .     S
C229   H237    1.084   .     S
C229   C810    1.392   1_554 S
C230   H243    1.076   .     S
C230   C231    1.387   .     A
C231   H239    1.082   .     S
C231   C817    1.399   .     S
C232   C233    1.423   .     A
C232   C234    1.415   .     A
C232   C816    1.399   1_554 S
C233   C236    1.421   .     A
C234   N252    1.438   .     S
C234   C235    1.395   .     A
C235   H238    1.084   .     S
C236   N255    1.440   .     S
C244   H310    1.088   .     S
C244   C311    1.335   .     S
H245   C374    1.088   1_455 S
C246   C374    1.335   1_455 S
C246   H377    1.086   1_455 S
H247   C311    1.086   .     S
C248   H444    1.088   .     S
C248   C445    1.331   .     S
H251   C445    1.086   .     S
N252   O253    1.301   .     A
N252   O254    1.301   .     A
N255   O257    1.302   .     A
N255   O256    1.301   .     A
N258   O260    1.301   .     A
N258   O259    1.301   .     A
Zn261  O274    1.926   .     S
Zn261  O265    1.966   .     S
Zn261  O273    1.929   .     S
Zn261  O267    1.923   .     S
Zn262  O276    1.926   .     S
Zn262  O265    1.940   .     S
Zn262  O268    1.939   .     S
Zn262  O270    1.937   .     S
Zn263  O269    1.929   .     S
Zn263  O277    1.937   .     S
Zn263  O272    1.938   .     S
Zn263  O265    1.939   .     S
Zn264  O275    1.933   .     S
Zn264  O265    1.929   .     S
Zn264  O271    1.947   .     S
Zn264  O266    1.931   .     S
O266   C278    1.268   .     A
O267   C279    1.282   .     A
O268   C280    1.278   .     A
O269   C281    1.270   .     A
O270   C282    1.270   .     A
O271   C283    1.280   .     A
O272   C282    1.276   .     A
O273   C283    1.290   .     A
O274   C280    1.278   .     A
O275   C281    1.272   .     A
O276   C278    1.269   .     A
O277   C279    1.286   .     A
C278   C311    1.438   .     S
C279   C309    1.455   .     S
C280   C315    1.435   .     S
C281   C313    1.451   .     S
C282   C285    1.454   .     S
C283   C284    1.481   .     S
C284   C287    1.417   .     A
C284   C288    1.402   .     A
C285   C300    1.394   .     A
C285   C301    1.402   .     A
C286   C290    1.398   .     A
C286   C287    1.396   .     A
C286   H305    1.085   .     S
C287   N323    1.434   .     S
C288   H306    1.075   .     S
C288   C289    1.408   .     A
C289   C290    1.416   .     A
C289   C291    1.427   .     A
C290   C879    1.392   .     S
C291   C295    1.412   .     A
C291   C877    1.422   .     S
C292   C298    1.425   .     A
C292   C293    1.411   .     A
C292   C876    1.422   1_554 S
C293   C294    1.385   .     A
C293   H307    1.079   .     S
C294   H302    1.084   .     S
C294   C875    1.392   1_554 S
C295   H308    1.076   .     S
C295   C296    1.387   .     A
C296   H304    1.082   .     S
C296   C882    1.399   .     S
C297   C298    1.423   .     A
C297   C299    1.415   .     A
C297   C881    1.399   1_554 S
C298   C301    1.421   .     A
C299   N317    1.438   .     S
C299   C300    1.395   .     A
C300   H303    1.084   .     S
C301   N320    1.440   .     S
C309   H375    1.088   .     S
C309   C376    1.335   .     S
H312   C376    1.086   .     S
C313   H509    1.088   .     S
C313   C510    1.331   .     S
H316   C510    1.086   .     S
N317   O318    1.301   .     A
N317   O319    1.301   .     A
N320   O322    1.302   .     A
N320   O321    1.301   .     A
N323   O325    1.301   .     A
N323   O324    1.301   .     A
Zn326  O339    1.926   .     S
Zn326  O330    1.966   .     S
Zn326  O338    1.929   .     S
Zn326  O332    1.923   .     S
Zn327  O341    1.926   .     S
Zn327  O330    1.940   .     S
Zn327  O333    1.939   .     S
Zn327  O335    1.937   .     S
Zn328  O334    1.929   .     S
Zn328  O342    1.937   .     S
Zn328  O337    1.938   .     S
Zn328  O330    1.939   .     S
Zn329  O340    1.933   .     S
Zn329  O330    1.929   .     S
Zn329  O336    1.947   .     S
Zn329  O331    1.931   .     S
O331   C343    1.268   .     A
O332   C344    1.282   .     A
O333   C345    1.278   .     A
O334   C346    1.270   .     A
O335   C347    1.270   .     A
O336   C348    1.280   .     A
O337   C347    1.276   .     A
O338   C348    1.290   .     A
O339   C345    1.278   .     A
O340   C346    1.272   .     A
O341   C343    1.269   .     A
O342   C344    1.286   .     A
C343   C376    1.438   .     S
C344   C374    1.455   .     S
C345   C380    1.435   .     S
C346   C378    1.451   .     S
C347   C350    1.454   .     S
C348   C349    1.481   .     S
C349   C352    1.417   .     A
C349   C353    1.402   .     A
C350   C365    1.394   .     A
C350   C366    1.402   .     A
C351   C355    1.398   .     A
C351   C352    1.396   .     A
C351   H370    1.085   .     S
C352   N388    1.434   .     S
C353   H371    1.075   .     S
C353   C354    1.408   .     A
C354   C355    1.416   .     A
C354   C356    1.427   .     A
C355   C944    1.392   .     S
C356   C360    1.412   .     A
C356   C942    1.422   .     S
C357   C363    1.425   .     A
C357   C358    1.411   .     A
C357   C941    1.422   1_554 S
C358   C359    1.385   .     A
C358   H372    1.079   .     S
C359   H367    1.084   .     S
C359   C940    1.392   1_554 S
C360   H373    1.076   .     S
C360   C361    1.387   .     A
C361   H369    1.082   .     S
C361   C947    1.399   .     S
C362   C363    1.423   .     A
C362   C364    1.415   .     A
C362   C946    1.399   1_554 S
C363   C366    1.421   .     A
C364   N382    1.438   .     S
C364   C365    1.395   .     A
C365   H368    1.084   .     S
C366   N385    1.440   .     S
C374   H245    1.088   1_655 S
C374   C246    1.335   1_655 S
H377   C246    1.086   1_655 S
C378   H574    1.088   .     S
C378   C575    1.331   .     S
H381   C575    1.086   .     S
N382   O383    1.301   .     A
N382   O384    1.301   .     A
N385   O387    1.302   .     A
N385   O386    1.301   .     A
N388   O390    1.301   .     A
N388   O389    1.301   .     A
Zn391  O404    1.926   .     S
Zn391  O395    1.966   .     S
Zn391  O403    1.929   .     S
Zn391  O397    1.923   .     S
Zn392  O406    1.926   .     S
Zn392  O395    1.940   .     S
Zn392  O398    1.939   .     S
Zn392  O400    1.937   .     S
Zn393  O399    1.929   .     S
Zn393  O407    1.937   .     S
Zn393  O402    1.938   .     S
Zn393  O395    1.939   .     S
Zn394  O405    1.933   .     S
Zn394  O395    1.929   .     S
Zn394  O401    1.947   .     S
Zn394  O396    1.931   .     S
O396   C408    1.268   .     A
O397   C409    1.282   .     A
O398   C410    1.278   .     A
O399   C411    1.270   .     A
O400   C412    1.270   .     A
O401   C413    1.280   .     A
O402   C412    1.276   .     A
O403   C413    1.290   .     A
O404   C410    1.278   .     A
O405   C411    1.272   .     A
O406   C408    1.269   .     A
O407   C409    1.286   .     A
C408   C441    1.438   .     S
C409   C439    1.455   .     S
C410   C445    1.435   .     S
C411   C443    1.451   .     S
C412   C415    1.454   .     S
C413   C414    1.481   .     S
C414   C417    1.417   .     A
C414   C418    1.402   .     A
C415   C430    1.394   .     A
C415   C431    1.402   .     A
C416   C420    1.398   .     A
C416   C417    1.396   .     A
C416   H435    1.085   .     S
C417   N453    1.434   .     S
C418   H436    1.075   .     S
C418   C419    1.408   .     A
C419   C420    1.416   .     A
C419   C421    1.427   .     A
C420   C1009   1.392   .     S
C421   C425    1.412   .     A
C421   C1007   1.422   .     S
C422   C428    1.425   .     A
C422   C423    1.411   .     A
C422   C1006   1.422   1_554 S
C423   C424    1.385   .     A
C423   H437    1.079   .     S
C424   H432    1.084   .     S
C424   C1005   1.392   1_554 S
C425   H438    1.076   .     S
C425   C426    1.387   .     A
C426   H434    1.082   .     S
C426   C1012   1.399   .     S
C427   C428    1.423   .     A
C427   C429    1.415   .     A
C427   C1011   1.399   1_554 S
C428   C431    1.421   .     A
C429   N447    1.438   .     S
C429   C430    1.395   .     A
C430   H433    1.084   .     S
C431   N450    1.440   .     S
C439   H505    1.088   .     S
C439   C506    1.335   .     S
H440   C569    1.088   1_455 S
C441   C569    1.335   1_455 S
C441   H572    1.086   1_455 S
H442   C506    1.086   .     S
C443   H54     1.088   1_565 S
C443   C55     1.331   1_565 S
H446   C55     1.086   1_565 S
N447   O448    1.301   .     A
N447   O449    1.301   .     A
N450   O452    1.302   .     A
N450   O451    1.301   .     A
N453   O455    1.301   .     A
N453   O454    1.301   .     A
Zn456  O469    1.926   .     S
Zn456  O460    1.966   .     S
Zn456  O468    1.929   .     S
Zn456  O462    1.923   .     S
Zn457  O471    1.926   .     S
Zn457  O460    1.940   .     S
Zn457  O463    1.939   .     S
Zn457  O465    1.937   .     S
Zn458  O464    1.929   .     S
Zn458  O472    1.937   .     S
Zn458  O467    1.938   .     S
Zn458  O460    1.939   .     S
Zn459  O470    1.933   .     S
Zn459  O460    1.929   .     S
Zn459  O466    1.947   .     S
Zn459  O461    1.931   .     S
O461   C473    1.268   .     A
O462   C474    1.282   .     A
O463   C475    1.278   .     A
O464   C476    1.270   .     A
O465   C477    1.270   .     A
O466   C478    1.280   .     A
O467   C477    1.276   .     A
O468   C478    1.290   .     A
O469   C475    1.278   .     A
O470   C476    1.272   .     A
O471   C473    1.269   .     A
O472   C474    1.286   .     A
C473   C506    1.438   .     S
C474   C504    1.455   .     S
C475   C510    1.435   .     S
C476   C508    1.451   .     S
C477   C480    1.454   .     S
C478   C479    1.481   .     S
C479   C482    1.417   .     A
C479   C483    1.402   .     A
C480   C495    1.394   .     A
C480   C496    1.402   .     A
C481   C485    1.398   .     A
C481   C482    1.396   .     A
C481   H500    1.085   .     S
C482   N518    1.434   .     S
C483   H501    1.075   .     S
C483   C484    1.408   .     A
C484   C485    1.416   .     A
C484   C486    1.427   .     A
C485   C1074   1.392   .     S
C486   C490    1.412   .     A
C486   C1072   1.422   .     S
C487   C493    1.425   .     A
C487   C488    1.411   .     A
C487   C1071   1.422   1_554 S
C488   C489    1.385   .     A
C488   H502    1.079   .     S
C489   H497    1.084   .     S
C489   C1070   1.392   1_554 S
C490   H503    1.076   .     S
C490   C491    1.387   .     A
C491   H499    1.082   .     S
C491   C1077   1.399   .     S
C492   C493    1.423   .     A
C492   C494    1.415   .     A
C492   C1076   1.399   1_554 S
C493   C496    1.421   .     A
C494   N512    1.438   .     S
C494   C495    1.395   .     A
C495   H498    1.084   .     S
C496   N515    1.440   .     S
C504   H570    1.088   .     S
C504   C571    1.335   .     S
H507   C571    1.086   .     S
C508   H119    1.088   1_565 S
C508   C120    1.331   1_565 S
H511   C120    1.086   1_565 S
N512   O513    1.301   .     A
N512   O514    1.301   .     A
N515   O517    1.302   .     A
N515   O516    1.301   .     A
N518   O520    1.301   .     A
N518   O519    1.301   .     A
Zn521  O534    1.926   .     S
Zn521  O525    1.966   .     S
Zn521  O533    1.929   .     S
Zn521  O527    1.923   .     S
Zn522  O536    1.926   .     S
Zn522  O525    1.940   .     S
Zn522  O528    1.939   .     S
Zn522  O530    1.937   .     S
Zn523  O529    1.929   .     S
Zn523  O537    1.937   .     S
Zn523  O532    1.938   .     S
Zn523  O525    1.939   .     S
Zn524  O535    1.933   .     S
Zn524  O525    1.929   .     S
Zn524  O531    1.947   .     S
Zn524  O526    1.931   .     S
O526   C538    1.268   .     A
O527   C539    1.282   .     A
O528   C540    1.278   .     A
O529   C541    1.270   .     A
O530   C542    1.270   .     A
O531   C543    1.280   .     A
O532   C542    1.276   .     A
O533   C543    1.290   .     A
O534   C540    1.278   .     A
O535   C541    1.272   .     A
O536   C538    1.269   .     A
O537   C539    1.286   .     A
C538   C571    1.438   .     S
C539   C569    1.455   .     S
C540   C575    1.435   .     S
C541   C573    1.451   .     S
C542   C545    1.454   .     S
C543   C544    1.481   .     S
C544   C547    1.417   .     A
C544   C548    1.402   .     A
C545   C560    1.394   .     A
C545   C561    1.402   .     A
C546   C550    1.398   .     A
C546   C547    1.396   .     A
C546   H565    1.085   .     S
C547   N583    1.434   .     S
C548   H566    1.075   .     S
C548   C549    1.408   .     A
C549   C550    1.416   .     A
C549   C551    1.427   .     A
C550   C1139   1.392   .     S
C551   C555    1.412   .     A
C551   C1137   1.422   .     S
C552   C558    1.425   .     A
C552   C553    1.411   .     A
C552   C1136   1.422   1_554 S
C553   C554    1.385   .     A
C553   H567    1.079   .     S
C554   H562    1.084   .     S
C554   C1135   1.392   1_554 S
C555   H568    1.076   .     S
C555   C556    1.387   .     A
C556   H564    1.082   .     S
C556   C1142   1.399   .     S
C557   C558    1.423   .     A
C557   C559    1.415   .     A
C557   C1141   1.399   1_554 S
C558   C561    1.421   .     A
C559   N577    1.438   .     S
C559   C560    1.395   .     A
C560   H563    1.084   .     S
C561   N580    1.440   .     S
C569   H440    1.088   1_655 S
C569   C441    1.335   1_655 S
H572   C441    1.086   1_655 S
C573   H184    1.088   1_565 S
C573   C185    1.331   1_565 S
H576   C185    1.086   1_565 S
N577   O578    1.301   .     A
N577   O579    1.301   .     A
N580   O582    1.302   .     A
N580   O581    1.301   .     A
N583   O585    1.301   .     A
N583   O584    1.301   .     A
Zn586  O599    1.926   .     S
Zn586  O590    1.966   .     S
Zn586  O598    1.929   .     S
Zn586  O592    1.923   .     S
Zn587  O601    1.926   .     S
Zn587  O590    1.940   .     S
Zn587  O593    1.939   .     S
Zn587  O595    1.937   .     S
Zn588  O594    1.929   .     S
Zn588  O602    1.937   .     S
Zn588  O597    1.938   .     S
Zn588  O590    1.939   .     S
Zn589  O600    1.933   .     S
Zn589  O590    1.929   .     S
Zn589  O596    1.947   .     S
Zn589  O591    1.931   .     S
O591   C603    1.268   .     A
O592   C604    1.282   .     A
O593   C605    1.278   .     A
O594   C606    1.270   .     A
O595   C607    1.270   .     A
O596   C608    1.280   .     A
O597   C607    1.276   .     A
O598   C608    1.290   .     A
O599   C605    1.278   .     A
O600   C606    1.272   .     A
O601   C603    1.269   .     A
O602   C604    1.286   .     A
C603   C636    1.438   .     S
C604   C634    1.455   .     S
C605   C640    1.435   .     S
C606   C638    1.451   .     S
C607   C610    1.454   .     S
C608   C609    1.481   .     S
C609   C612    1.417   .     A
C609   C613    1.402   .     A
C610   C625    1.394   .     A
C610   C626    1.402   .     A
C611   C615    1.398   .     A
C611   C612    1.396   .     A
C611   H630    1.085   .     S
C612   N648    1.434   .     S
C613   H631    1.075   .     S
C613   C614    1.408   .     A
C614   C615    1.416   .     A
C614   C616    1.427   .     A
C615   C34     1.392   1_556 S
C616   C620    1.412   .     A
C616   C32     1.422   1_556 S
C617   C623    1.425   .     A
C617   C618    1.411   .     A
C618   C619    1.385   .     A
C618   H632    1.079   .     S
C619   H627    1.084   .     S
C620   H633    1.076   .     S
C620   C621    1.387   .     A
C621   H629    1.082   .     S
C621   C37     1.399   1_556 S
C622   C623    1.423   .     A
C622   C624    1.415   .     A
C623   C626    1.421   .     A
C624   N642    1.438   .     S
C624   C625    1.395   .     A
C625   H628    1.084   .     S
C626   N645    1.440   .     S
C634   H700    1.088   .     S
C634   C701    1.335   .     S
H635   C764    1.088   1_455 S
C636   C764    1.335   1_455 S
C636   H767    1.086   1_455 S
H637   C701    1.086   .     S
C638   H834    1.088   .     S
C638   C835    1.331   .     S
H639   C1028   1.088   1_545 S
C640   C1028   1.331   1_545 S
C640   H1031   1.086   1_545 S
H641   C835    1.086   .     S
N642   O643    1.301   .     A
N642   O644    1.301   .     A
N645   O647    1.302   .     A
N645   O646    1.301   .     A
N648   O650    1.301   .     A
N648   O649    1.301   .     A
Zn651  O664    1.926   .     S
Zn651  O655    1.966   .     S
Zn651  O663    1.929   .     S
Zn651  O657    1.923   .     S
Zn652  O666    1.926   .     S
Zn652  O655    1.940   .     S
Zn652  O658    1.939   .     S
Zn652  O660    1.937   .     S
Zn653  O659    1.929   .     S
Zn653  O667    1.937   .     S
Zn653  O662    1.938   .     S
Zn653  O655    1.939   .     S
Zn654  O665    1.933   .     S
Zn654  O655    1.929   .     S
Zn654  O661    1.947   .     S
Zn654  O656    1.931   .     S
O656   C668    1.268   .     A
O657   C669    1.282   .     A
O658   C670    1.278   .     A
O659   C671    1.270   .     A
O660   C672    1.270   .     A
O661   C673    1.280   .     A
O662   C672    1.276   .     A
O663   C673    1.290   .     A
O664   C670    1.278   .     A
O665   C671    1.272   .     A
O666   C668    1.269   .     A
O667   C669    1.286   .     A
C668   C701    1.438   .     S
C669   C699    1.455   .     S
C670   C705    1.435   .     S
C671   C703    1.451   .     S
C672   C675    1.454   .     S
C673   C674    1.481   .     S
C674   C677    1.417   .     A
C674   C678    1.402   .     A
C675   C690    1.394   .     A
C675   C691    1.402   .     A
C676   C680    1.398   .     A
C676   C677    1.396   .     A
C676   H695    1.085   .     S
C677   N713    1.434   .     S
C678   H696    1.075   .     S
C678   C679    1.408   .     A
C679   C680    1.416   .     A
C679   C681    1.427   .     A
C680   C99     1.392   1_556 S
C681   C685    1.412   .     A
C681   C97     1.422   1_556 S
C682   C688    1.425   .     A
C682   C683    1.411   .     A
C683   C684    1.385   .     A
C683   H697    1.079   .     S
C684   H692    1.084   .     S
C685   H698    1.076   .     S
C685   C686    1.387   .     A
C686   H694    1.082   .     S
C686   C102    1.399   1_556 S
C687   C688    1.423   .     A
C687   C689    1.415   .     A
C688   C691    1.421   .     A
C689   N707    1.438   .     S
C689   C690    1.395   .     A
C690   H693    1.084   .     S
C691   N710    1.440   .     S
C699   H765    1.088   .     S
C699   C766    1.335   .     S
H702   C766    1.086   .     S
C703   H899    1.088   .     S
C703   C900    1.331   .     S
H704   C1093   1.088   1_545 S
C705   C1093   1.331   1_545 S
C705   H1096   1.086   1_545 S
H706   C900    1.086   .     S
N707   O708    1.301   .     A
N707   O709    1.301   .     A
N710   O712    1.302   .     A
N710   O711    1.301   .     A
N713   O715    1.301   .     A
N713   O714    1.301   .     A
Zn716  O729    1.926   .     S
Zn716  O720    1.966   .     S
Zn716  O728    1.929   .     S
Zn716  O722    1.923   .     S
Zn717  O731    1.926   .     S
Zn717  O720    1.940   .     S
Zn717  O723    1.939   .     S
Zn717  O725    1.937   .     S
Zn718  O724    1.929   .     S
Zn718  O732    1.937   .     S
Zn718  O727    1.938   .     S
Zn718  O720    1.939   .     S
Zn719  O730    1.933   .     S
Zn719  O720    1.929   .     S
Zn719  O726    1.947   .     S
Zn719  O721    1.931   .     S
O721   C733    1.268   .     A
O722   C734    1.282   .     A
O723   C735    1.278   .     A
O724   C736    1.270   .     A
O725   C737    1.270   .     A
O726   C738    1.280   .     A
O727   C737    1.276   .     A
O728   C738    1.290   .     A
O729   C735    1.278   .     A
O730   C736    1.272   .     A
O731   C733    1.269   .     A
O732   C734    1.286   .     A
C733   C766    1.438   .     S
C734   C764    1.455   .     S
C735   C770    1.435   .     S
C736   C768    1.451   .     S
C737   C740    1.454   .     S
C738   C739    1.481   .     S
C739   C742    1.417   .     A
C739   C743    1.402   .     A
C740   C755    1.394   .     A
C740   C756    1.402   .     A
C741   C745    1.398   .     A
C741   C742    1.396   .     A
C741   H760    1.085   .     S
C742   N778    1.434   .     S
C743   H761    1.075   .     S
C743   C744    1.408   .     A
C744   C745    1.416   .     A
C744   C746    1.427   .     A
C745   C164    1.392   1_556 S
C746   C750    1.412   .     A
C746   C162    1.422   1_556 S
C747   C753    1.425   .     A
C747   C748    1.411   .     A
C748   C749    1.385   .     A
C748   H762    1.079   .     S
C749   H757    1.084   .     S
C750   H763    1.076   .     S
C750   C751    1.387   .     A
C751   H759    1.082   .     S
C751   C167    1.399   1_556 S
C752   C753    1.423   .     A
C752   C754    1.415   .     A
C753   C756    1.421   .     A
C754   N772    1.438   .     S
C754   C755    1.395   .     A
C755   H758    1.084   .     S
C756   N775    1.440   .     S
C764   H635    1.088   1_655 S
C764   C636    1.335   1_655 S
H767   C636    1.086   1_655 S
C768   H964    1.088   .     S
C768   C965    1.331   .     S
H769   C1158   1.088   1_545 S
C770   C1158   1.331   1_545 S
C770   H1161   1.086   1_545 S
H771   C965    1.086   .     S
N772   O773    1.301   .     A
N772   O774    1.301   .     A
N775   O777    1.302   .     A
N775   O776    1.301   .     A
N778   O780    1.301   .     A
N778   O779    1.301   .     A
Zn781  O794    1.926   .     S
Zn781  O785    1.966   .     S
Zn781  O793    1.929   .     S
Zn781  O787    1.923   .     S
Zn782  O796    1.926   .     S
Zn782  O785    1.940   .     S
Zn782  O788    1.939   .     S
Zn782  O790    1.937   .     S
Zn783  O789    1.929   .     S
Zn783  O797    1.937   .     S
Zn783  O792    1.938   .     S
Zn783  O785    1.939   .     S
Zn784  O795    1.933   .     S
Zn784  O785    1.929   .     S
Zn784  O791    1.947   .     S
Zn784  O786    1.931   .     S
O786   C798    1.268   .     A
O787   C799    1.282   .     A
O788   C800    1.278   .     A
O789   C801    1.270   .     A
O790   C802    1.270   .     A
O791   C803    1.280   .     A
O792   C802    1.276   .     A
O793   C803    1.290   .     A
O794   C800    1.278   .     A
O795   C801    1.272   .     A
O796   C798    1.269   .     A
O797   C799    1.286   .     A
C798   C831    1.438   .     S
C799   C829    1.455   .     S
C800   C835    1.435   .     S
C801   C833    1.451   .     S
C802   C805    1.454   .     S
C803   C804    1.481   .     S
C804   C807    1.417   .     A
C804   C808    1.402   .     A
C805   C820    1.394   .     A
C805   C821    1.402   .     A
C806   C810    1.398   .     A
C806   C807    1.396   .     A
C806   H825    1.085   .     S
C807   N843    1.434   .     S
C808   H826    1.075   .     S
C808   C809    1.408   .     A
C809   C810    1.416   .     A
C809   C811    1.427   .     A
C810   C229    1.392   1_556 S
C811   C815    1.412   .     A
C811   C227    1.422   1_556 S
C812   C818    1.425   .     A
C812   C813    1.411   .     A
C813   C814    1.385   .     A
C813   H827    1.079   .     S
C814   H822    1.084   .     S
C815   H828    1.076   .     S
C815   C816    1.387   .     A
C816   H824    1.082   .     S
C816   C232    1.399   1_556 S
C817   C818    1.423   .     A
C817   C819    1.415   .     A
C818   C821    1.421   .     A
C819   N837    1.438   .     S
C819   C820    1.395   .     A
C820   H823    1.084   .     S
C821   N840    1.440   .     S
C829   H895    1.088   .     S
C829   C896    1.335   .     S
H830   C959    1.088   1_455 S
C831   C959    1.335   1_455 S
C831   H962    1.086   1_455 S
H832   C896    1.086   .     S
C833   H1029   1.088   .     S
C833   C1030   1.331   .     S
H836   C1030   1.086   .     S
N837   O838    1.301   .     A
N837   O839    1.301   .     A
N840   O842    1.302   .     A
N840   O841    1.301   .     A
N843   O845    1.301   .     A
N843   O844    1.301   .     A
Zn846  O859    1.926   .     S
Zn846  O850    1.966   .     S
Zn846  O858    1.929   .     S
Zn846  O852    1.923   .     S
Zn847  O861    1.926   .     S
Zn847  O850    1.940   .     S
Zn847  O853    1.939   .     S
Zn847  O855    1.937   .     S
Zn848  O854    1.929   .     S
Zn848  O862    1.937   .     S
Zn848  O857    1.938   .     S
Zn848  O850    1.939   .     S
Zn849  O860    1.933   .     S
Zn849  O850    1.929   .     S
Zn849  O856    1.947   .     S
Zn849  O851    1.931   .     S
O851   C863    1.268   .     A
O852   C864    1.282   .     A
O853   C865    1.278   .     A
O854   C866    1.270   .     A
O855   C867    1.270   .     A
O856   C868    1.280   .     A
O857   C867    1.276   .     A
O858   C868    1.290   .     A
O859   C865    1.278   .     A
O860   C866    1.272   .     A
O861   C863    1.269   .     A
O862   C864    1.286   .     A
C863   C896    1.438   .     S
C864   C894    1.455   .     S
C865   C900    1.435   .     S
C866   C898    1.451   .     S
C867   C870    1.454   .     S
C868   C869    1.481   .     S
C869   C872    1.417   .     A
C869   C873    1.402   .     A
C870   C885    1.394   .     A
C870   C886    1.402   .     A
C871   C875    1.398   .     A
C871   C872    1.396   .     A
C871   H890    1.085   .     S
C872   N908    1.434   .     S
C873   H891    1.075   .     S
C873   C874    1.408   .     A
C874   C875    1.416   .     A
C874   C876    1.427   .     A
C875   C294    1.392   1_556 S
C876   C880    1.412   .     A
C876   C292    1.422   1_556 S
C877   C883    1.425   .     A
C877   C878    1.411   .     A
C878   C879    1.385   .     A
C878   H892    1.079   .     S
C879   H887    1.084   .     S
C880   H893    1.076   .     S
C880   C881    1.387   .     A
C881   H889    1.082   .     S
C881   C297    1.399   1_556 S
C882   C883    1.423   .     A
C882   C884    1.415   .     A
C883   C886    1.421   .     A
C884   N902    1.438   .     S
C884   C885    1.395   .     A
C885   H888    1.084   .     S
C886   N905    1.440   .     S
C894   H960    1.088   .     S
C894   C961    1.335   .     S
H897   C961    1.086   .     S
C898   H1094   1.088   .     S
C898   C1095   1.331   .     S
H901   C1095   1.086   .     S
N902   O903    1.301   .     A
N902   O904    1.301   .     A
N905   O907    1.302   .     A
N905   O906    1.301   .     A
N908   O910    1.301   .     A
N908   O909    1.301   .     A
Zn911  O924    1.926   .     S
Zn911  O915    1.966   .     S
Zn911  O923    1.929   .     S
Zn911  O917    1.923   .     S
Zn912  O926    1.926   .     S
Zn912  O915    1.940   .     S
Zn912  O918    1.939   .     S
Zn912  O920    1.937   .     S
Zn913  O919    1.929   .     S
Zn913  O927    1.937   .     S
Zn913  O922    1.938   .     S
Zn913  O915    1.939   .     S
Zn914  O925    1.933   .     S
Zn914  O915    1.929   .     S
Zn914  O921    1.947   .     S
Zn914  O916    1.931   .     S
O916   C928    1.268   .     A
O917   C929    1.282   .     A
O918   C930    1.278   .     A
O919   C931    1.270   .     A
O920   C932    1.270   .     A
O921   C933    1.280   .     A
O922   C932    1.276   .     A
O923   C933    1.290   .     A
O924   C930    1.278   .     A
O925   C931    1.272   .     A
O926   C928    1.269   .     A
O927   C929    1.286   .     A
C928   C961    1.438   .     S
C929   C959    1.455   .     S
C930   C965    1.435   .     S
C931   C963    1.451   .     S
C932   C935    1.454   .     S
C933   C934    1.481   .     S
C934   C937    1.417   .     A
C934   C938    1.402   .     A
C935   C950    1.394   .     A
C935   C951    1.402   .     A
C936   C940    1.398   .     A
C936   C937    1.396   .     A
C936   H955    1.085   .     S
C937   N973    1.434   .     S
C938   H956    1.075   .     S
C938   C939    1.408   .     A
C939   C940    1.416   .     A
C939   C941    1.427   .     A
C940   C359    1.392   1_556 S
C941   C945    1.412   .     A
C941   C357    1.422   1_556 S
C942   C948    1.425   .     A
C942   C943    1.411   .     A
C943   C944    1.385   .     A
C943   H957    1.079   .     S
C944   H952    1.084   .     S
C945   H958    1.076   .     S
C945   C946    1.387   .     A
C946   H954    1.082   .     S
C946   C362    1.399   1_556 S
C947   C948    1.423   .     A
C947   C949    1.415   .     A
C948   C951    1.421   .     A
C949   N967    1.438   .     S
C949   C950    1.395   .     A
C950   H953    1.084   .     S
C951   N970    1.440   .     S
C959   H830    1.088   1_655 S
C959   C831    1.335   1_655 S
H962   C831    1.086   1_655 S
C963   H1159   1.088   .     S
C963   C1160   1.331   .     S
H966   C1160   1.086   .     S
N967   O968    1.301   .     A
N967   O969    1.301   .     A
N970   O972    1.302   .     A
N970   O971    1.301   .     A
N973   O975    1.301   .     A
N973   O974    1.301   .     A
Zn976  O989    1.926   .     S
Zn976  O980    1.966   .     S
Zn976  O988    1.929   .     S
Zn976  O982    1.923   .     S
Zn977  O991    1.926   .     S
Zn977  O980    1.940   .     S
Zn977  O983    1.939   .     S
Zn977  O985    1.937   .     S
Zn978  O984    1.929   .     S
Zn978  O992    1.937   .     S
Zn978  O987    1.938   .     S
Zn978  O980    1.939   .     S
Zn979  O990    1.933   .     S
Zn979  O980    1.929   .     S
Zn979  O986    1.947   .     S
Zn979  O981    1.931   .     S
O981   C993    1.268   .     A
O982   C994    1.282   .     A
O983   C995    1.278   .     A
O984   C996    1.270   .     A
O985   C997    1.270   .     A
O986   C998    1.280   .     A
O987   C997    1.276   .     A
O988   C998    1.290   .     A
O989   C995    1.278   .     A
O990   C996    1.272   .     A
O991   C993    1.269   .     A
O992   C994    1.286   .     A
C993   C1026   1.438   .     S
C994   C1024   1.455   .     S
C995   C1030   1.435   .     S
C996   C1028   1.451   .     S
C997   C1000   1.454   .     S
C998   C999    1.481   .     S
C999   C1002   1.417   .     A
C999   C1003   1.402   .     A
C1000  C1015   1.394   .     A
C1000  C1016   1.402   .     A
C1001  C1005   1.398   .     A
C1001  C1002   1.396   .     A
C1001  H1020   1.085   .     S
C1002  N1038   1.434   .     S
C1003  H1021   1.075   .     S
C1003  C1004   1.408   .     A
C1004  C1005   1.416   .     A
C1004  C1006   1.427   .     A
C1005  C424    1.392   1_556 S
C1006  C1010   1.412   .     A
C1006  C422    1.422   1_556 S
C1007  C1013   1.425   .     A
C1007  C1008   1.411   .     A
C1008  C1009   1.385   .     A
C1008  H1022   1.079   .     S
C1009  H1017   1.084   .     S
C1010  H1023   1.076   .     S
C1010  C1011   1.387   .     A
C1011  H1019   1.082   .     S
C1011  C427    1.399   1_556 S
C1012  C1013   1.423   .     A
C1012  C1014   1.415   .     A
C1013  C1016   1.421   .     A
C1014  N1032   1.438   .     S
C1014  C1015   1.395   .     A
C1015  H1018   1.084   .     S
C1016  N1035   1.440   .     S
C1024  H1090   1.088   .     S
C1024  C1091   1.335   .     S
H1025  C1154   1.088   1_455 S
C1026  C1154   1.335   1_455 S
C1026  H1157   1.086   1_455 S
H1027  C1091   1.086   .     S
C1028  H639    1.088   1_565 S
C1028  C640    1.331   1_565 S
H1031  C640    1.086   1_565 S
N1032  O1033   1.301   .     A
N1032  O1034   1.301   .     A
N1035  O1037   1.302   .     A
N1035  O1036   1.301   .     A
N1038  O1040   1.301   .     A
N1038  O1039   1.301   .     A
Zn1041 O1054   1.926   .     S
Zn1041 O1045   1.966   .     S
Zn1041 O1053   1.929   .     S
Zn1041 O1047   1.923   .     S
Zn1042 O1056   1.926   .     S
Zn1042 O1045   1.940   .     S
Zn1042 O1048   1.939   .     S
Zn1042 O1050   1.937   .     S
Zn1043 O1049   1.929   .     S
Zn1043 O1057   1.937   .     S
Zn1043 O1052   1.938   .     S
Zn1043 O1045   1.939   .     S
Zn1044 O1055   1.933   .     S
Zn1044 O1045   1.929   .     S
Zn1044 O1051   1.947   .     S
Zn1044 O1046   1.931   .     S
O1046  C1058   1.268   .     A
O1047  C1059   1.282   .     A
O1048  C1060   1.278   .     A
O1049  C1061   1.270   .     A
O1050  C1062   1.270   .     A
O1051  C1063   1.280   .     A
O1052  C1062   1.276   .     A
O1053  C1063   1.290   .     A
O1054  C1060   1.278   .     A
O1055  C1061   1.272   .     A
O1056  C1058   1.269   .     A
O1057  C1059   1.286   .     A
C1058  C1091   1.438   .     S
C1059  C1089   1.455   .     S
C1060  C1095   1.435   .     S
C1061  C1093   1.451   .     S
C1062  C1065   1.454   .     S
C1063  C1064   1.481   .     S
C1064  C1067   1.417   .     A
C1064  C1068   1.402   .     A
C1065  C1080   1.394   .     A
C1065  C1081   1.402   .     A
C1066  C1070   1.398   .     A
C1066  C1067   1.396   .     A
C1066  H1085   1.085   .     S
C1067  N1103   1.434   .     S
C1068  H1086   1.075   .     S
C1068  C1069   1.408   .     A
C1069  C1070   1.416   .     A
C1069  C1071   1.427   .     A
C1070  C489    1.392   1_556 S
C1071  C1075   1.412   .     A
C1071  C487    1.422   1_556 S
C1072  C1078   1.425   .     A
C1072  C1073   1.411   .     A
C1073  C1074   1.385   .     A
C1073  H1087   1.079   .     S
C1074  H1082   1.084   .     S
C1075  H1088   1.076   .     S
C1075  C1076   1.387   .     A
C1076  H1084   1.082   .     S
C1076  C492    1.399   1_556 S
C1077  C1078   1.423   .     A
C1077  C1079   1.415   .     A
C1078  C1081   1.421   .     A
C1079  N1097   1.438   .     S
C1079  C1080   1.395   .     A
C1080  H1083   1.084   .     S
C1081  N1100   1.440   .     S
C1089  H1155   1.088   .     S
C1089  C1156   1.335   .     S
H1092  C1156   1.086   .     S
C1093  H704    1.088   1_565 S
C1093  C705    1.331   1_565 S
H1096  C705    1.086   1_565 S
N1097  O1098   1.301   .     A
N1097  O1099   1.301   .     A
N1100  O1102   1.302   .     A
N1100  O1101   1.301   .     A
N1103  O1105   1.301   .     A
N1103  O1104   1.301   .     A
Zn1106 O1119   1.926   .     S
Zn1106 O1110   1.966   .     S
Zn1106 O1118   1.929   .     S
Zn1106 O1112   1.923   .     S
Zn1107 O1121   1.926   .     S
Zn1107 O1110   1.940   .     S
Zn1107 O1113   1.939   .     S
Zn1107 O1115   1.937   .     S
Zn1108 O1114   1.929   .     S
Zn1108 O1122   1.937   .     S
Zn1108 O1117   1.938   .     S
Zn1108 O1110   1.939   .     S
Zn1109 O1120   1.933   .     S
Zn1109 O1110   1.929   .     S
Zn1109 O1116   1.947   .     S
Zn1109 O1111   1.931   .     S
O1111  C1123   1.268   .     A
O1112  C1124   1.282   .     A
O1113  C1125   1.278   .     A
O1114  C1126   1.270   .     A
O1115  C1127   1.270   .     A
O1116  C1128   1.280   .     A
O1117  C1127   1.276   .     A
O1118  C1128   1.290   .     A
O1119  C1125   1.278   .     A
O1120  C1126   1.272   .     A
O1121  C1123   1.269   .     A
O1122  C1124   1.286   .     A
C1123  C1156   1.438   .     S
C1124  C1154   1.455   .     S
C1125  C1160   1.435   .     S
C1126  C1158   1.451   .     S
C1127  C1130   1.454   .     S
C1128  C1129   1.481   .     S
C1129  C1132   1.417   .     A
C1129  C1133   1.402   .     A
C1130  C1145   1.394   .     A
C1130  C1146   1.402   .     A
C1131  C1135   1.398   .     A
C1131  C1132   1.396   .     A
C1131  H1150   1.085   .     S
C1132  N1168   1.434   .     S
C1133  H1151   1.075   .     S
C1133  C1134   1.408   .     A
C1134  C1135   1.416   .     A
C1134  C1136   1.427   .     A
C1135  C554    1.392   1_556 S
C1136  C1140   1.412   .     A
C1136  C552    1.422   1_556 S
C1137  C1143   1.425   .     A
C1137  C1138   1.411   .     A
C1138  C1139   1.385   .     A
C1138  H1152   1.079   .     S
C1139  H1147   1.084   .     S
C1140  H1153   1.076   .     S
C1140  C1141   1.387   .     A
C1141  H1149   1.082   .     S
C1141  C557    1.399   1_556 S
C1142  C1143   1.423   .     A
C1142  C1144   1.415   .     A
C1143  C1146   1.421   .     A
C1144  N1162   1.438   .     S
C1144  C1145   1.395   .     A
C1145  H1148   1.084   .     S
C1146  N1165   1.440   .     S
C1154  H1025   1.088   1_655 S
C1154  C1026   1.335   1_655 S
H1157  C1026   1.086   1_655 S
C1158  H769    1.088   1_565 S
C1158  C770    1.331   1_565 S
H1161  C770    1.086   1_565 S
N1162  O1163   1.301   .     A
N1162  O1164   1.301   .     A
N1165  O1167   1.302   .     A
N1165  O1166   1.301   .     A
N1168  O1170   1.301   .     A
N1168  O1169   1.301   .     A
