data_str_m1_o5_o17_pcu_sym.30
_audit_creation_date              2020-01-03
_audit_creation_method            'Materials Studio'
_symmetry_space_group_name_H-M    'P1'
_symmetry_Int_Tables_number       1
_symmetry_cell_setting            triclinic
loop_
_symmetry_equiv_pos_as_xyz
  x,y,z
_cell_length_a                    31.7513
_cell_length_b                    31.7314
_cell_length_c                    34.4524
_cell_angle_alpha                 90.0306
_cell_angle_beta                  89.8673
_cell_angle_gamma                 89.9678
loop_
_atom_site_label
_atom_site_type_symbol
_atom_site_fract_x
_atom_site_fract_y
_atom_site_fract_z
_atom_site_U_iso_or_equiv
_atom_site_adp_type
_atom_site_occupancy
C1     C     0.25002   0.00001   0.35592   0.00000  Uiso   1.00
C2     C     0.33000   0.41996   0.74999   0.00000  Uiso   1.00
C3     C     0.42488   0.23510   0.01982   0.00000  Uiso   1.00
C4     C     0.24034   0.07543   0.98165   0.00000  Uiso   1.00
C5     C     0.26191   0.42376   0.01952   0.00000  Uiso   1.00
C6     C     0.42592   0.23095   0.97931   0.00000  Uiso   1.00
C7     C     0.07536   0.26592   0.01982   0.00000  Uiso   1.00
C8     C     0.41997   0.16997   0.25001   0.00000  Uiso   1.00
C9     C     0.08004   0.33002   0.75000   0.00000  Uiso   1.00
C10    C     0.33003   0.41999   0.24999   0.00000  Uiso   1.00
C11    C     0.16998   0.08004   0.75003   0.00000  Uiso   1.00
C12    C     0.08000   0.33003   0.25000   0.00000  Uiso   1.00
C13    C     0.41999   0.16997   0.75001   0.00000  Uiso   1.00
C14    C     0.16997   0.41997   0.75001   0.00000  Uiso   1.00
C15    C     0.33003   0.08004   0.24999   0.00000  Uiso   1.00
C16    C     0.41999   0.33003   0.75002   0.00000  Uiso   1.00
C17    C     0.25000   0.49999   0.64390   0.00000  Uiso   1.00
C18    C     0.08000   0.16996   0.24999   0.00000  Uiso   1.00
C19    C     0.33002   0.08002   0.74998   0.00000  Uiso   1.00
C20    C     0.16998   0.41998   0.25002   0.00000  Uiso   1.00
C21    C     0.08004   0.16999   0.75001   0.00000  Uiso   1.00
C22    C     0.41997   0.33002   0.25001   0.00000  Uiso   1.00
C23    C     0.13833   0.38833   0.25003   0.00000  Uiso   1.00
C24    C     0.36166   0.11167   0.74997   0.00000  Uiso   1.00
C25    C     0.11164   0.13831   0.25000   0.00000  Uiso   1.00
C26    C     0.38835   0.36167   0.75003   0.00000  Uiso   1.00
C27    C     0.36167   0.11167   0.24998   0.00000  Uiso   1.00
C28    C     0.49996   0.25000   0.35591   0.00000  Uiso   1.00
C29    C     0.13834   0.38833   0.75001   0.00000  Uiso   1.00
C30    C     0.38833   0.36167   0.25002   0.00000  Uiso   1.00
C31    C     0.11170   0.13837   0.75003   0.00000  Uiso   1.00
C32    C     0.13835   0.11168   0.75006   0.00000  Uiso   1.00
C33    C     0.36168   0.38835   0.25000   0.00000  Uiso   1.00
C34    C     0.11168   0.36166   0.75000   0.00000  Uiso   1.00
C35    C     0.38833   0.13834   0.25000   0.00000  Uiso   1.00
C36    C     0.36164   0.38831   0.74999   0.00000  Uiso   1.00
C37    C     0.13835   0.11167   0.25004   0.00000  Uiso   1.00
C38    C     0.38835   0.13832   0.75000   0.00000  Uiso   1.00
C39    C     0.00004   0.25025   0.64391   0.00000  Uiso   1.00
C40    C     0.11164   0.36168   0.25000   0.00000  Uiso   1.00
C41    C     0.00422   0.28846   0.41853   0.00000  Uiso   1.00
C42    C     0.01788   0.21621   0.58057   0.00000  Uiso   1.00
C43    C     0.21172   0.00390   0.41870   0.00000  Uiso   1.00
C44    C     0.28402   0.01810   0.58053   0.00000  Uiso   1.00
C45    C     0.49569   0.21187   0.41867   0.00000  Uiso   1.00
C46    C     0.48256   0.28481   0.58062   0.00000  Uiso   1.00
C47    C     0.28835   0.49614   0.41852   0.00000  Uiso   1.00
C48    C     0.21603   0.48185   0.58065   0.00000  Uiso   1.00
C49    C     0.24165   0.03854   0.91844   0.00000  Uiso   1.00
C50    C     0.00023   0.25003   0.85588   0.00000  Uiso   1.00
C51    C     0.26502   0.46364   0.08125   0.00000  Uiso   1.00
C52    C     0.46192   0.25252   0.91851   0.00000  Uiso   1.00
C53    C     0.03306   0.27011   0.08044   0.00000  Uiso   1.00
C54    C     0.25172   0.46164   0.91814   0.00000  Uiso   1.00
C55    C     0.24049   0.03722   0.08212   0.00000  Uiso   1.00
C56    C     0.03878   0.24841   0.91842   0.00000  Uiso   1.00
C57    C     0.46699   0.23045   0.08041   0.00000  Uiso   1.00
C58    C     0.49990   0.25012   0.39824   0.00000  Uiso   1.00
C59    C     0.00012   0.25045   0.60127   0.00000  Uiso   1.00
C60    C     0.25003   0.00003   0.39826   0.00000  Uiso   1.00
C61    C     0.00002   0.25001   0.14386   0.00000  Uiso   1.00
C62    C     0.25002   0.49997   0.60126   0.00000  Uiso   1.00
C63    C     0.24865   0.00034   0.89825   0.00000  Uiso   1.00
C64    C     0.25128   0.49975   0.10176   0.00000  Uiso   1.00
C65    C     0.00033   0.25020   0.89816   0.00000  Uiso   1.00
C66    C     0.00006   0.25012   0.10115   0.00000  Uiso   1.00
C67    C     0.00465   0.21183   0.45881   0.00000  Uiso   1.00
C68    C     0.49146   0.28798   0.54051   0.00000  Uiso   1.00
C69    C     0.28838   0.00498   0.45872   0.00000  Uiso   1.00
C70    C     0.21262   0.49068   0.54059   0.00000  Uiso   1.00
C71    C     0.49549   0.28865   0.45875   0.00000  Uiso   1.00
C72    C     0.24975   0.00024   0.85589   0.00000  Uiso   1.00
C73    C     0.00907   0.21285   0.54053   0.00000  Uiso   1.00
C74    C     0.21170   0.49503   0.45887   0.00000  Uiso   1.00
C75    C     0.28745   0.00927   0.54045   0.00000  Uiso   1.00
C76    C     0.25791   0.46201   0.95872   0.00000  Uiso   1.00
C77    C     0.23793   0.03643   0.04113   0.00000  Uiso   1.00
C78    C     0.03833   0.25727   0.95863   0.00000  Uiso   1.00
C79    C     0.46317   0.23935   0.04038   0.00000  Uiso   1.00
C80    C     0.24404   0.03835   0.95944   0.00000  Uiso   1.00
C81    C     0.25834   0.46168   0.04081   0.00000  Uiso   1.00
C82    C     0.46223   0.24384   0.95868   0.00000  Uiso   1.00
C83    C     0.25025   0.49895   0.14411   0.00000  Uiso   1.00
C84    C     0.03699   0.26150   0.04037   0.00000  Uiso   1.00
C85    C     0.00013   0.25028   0.47924   0.00000  Uiso   1.00
C86    C     0.00022   0.25037   0.52004   0.00000  Uiso   1.00
C87    C     0.25004  -0.00000   0.47925   0.00000  Uiso   1.00
C88    C     0.25004   0.49998   0.52004   0.00000  Uiso   1.00
C89    C     0.24984   0.49969   0.97945   0.00000  Uiso   1.00
C90    C     0.24930   0.49934   0.02059   0.00000  Uiso   1.00
C91    C     0.00023   0.25053   0.97911   0.00000  Uiso   1.00
C92    C     0.00013   0.25047   0.01990   0.00000  Uiso   1.00
C93    C     0.01553   0.17487   0.47949   0.00000  Uiso   1.00
C94    C     0.16999   0.08002   0.25002   0.00000  Uiso   1.00
C95    C     0.48934   0.32647   0.51987   0.00000  Uiso   1.00
C96    C     0.32525   0.01615   0.47934   0.00000  Uiso   1.00
C97    C     0.17412   0.48820   0.52013   0.00000  Uiso   1.00
C98    C     0.48473   0.32569   0.47942   0.00000  Uiso   1.00
C99    C     0.01119   0.17427   0.52000   0.00000  Uiso   1.00
C100   C     0.17484   0.48383   0.47963   0.00000  Uiso   1.00
C101   C     0.32595   0.01176   0.51984   0.00000  Uiso   1.00
C102   C     0.26998   0.42564   0.97971   0.00000  Uiso   1.00
C103   C     0.22537   0.07182   0.01939   0.00000  Uiso   1.00
C104   C     0.07454   0.27022   0.97931   0.00000  Uiso   1.00
H105   H     0.08184   0.34052   0.35629   0.00000  Uiso   1.00
H106   H     0.35533   0.43509   0.14163   0.00000  Uiso   1.00
H107   H     0.40629   0.32783   0.85678   0.00000  Uiso   1.00
H108   H     0.04683   0.36636   0.13726   0.00000  Uiso   1.00
H109   H     0.18791   0.39944   0.85017   0.00000  Uiso   1.00
H110   H     0.26911   0.11014   0.16116   0.00000  Uiso   1.00
H111   H     0.09547   0.17461   0.85556   0.00000  Uiso   1.00
H112   H     0.45290   0.13384   0.13648   0.00000  Uiso   1.00
H113   H     0.04403   0.06969   0.44371   0.00000  Uiso   1.00
H114   H     0.48194   0.43501   0.55633   0.00000  Uiso   1.00
H115   H     0.43001   0.04563   0.44333   0.00000  Uiso   1.00
H116   H     0.11277   0.19619   0.63743   0.00000  Uiso   1.00
H117   H     0.06522   0.48007   0.55547   0.00000  Uiso   1.00
H118   H     0.45562   0.43056   0.44341   0.00000  Uiso   1.00
H119   H     0.01844   0.06520   0.55496   0.00000  Uiso   1.00
H120   H     0.07017   0.45435   0.44379   0.00000  Uiso   1.00
H121   H     0.43482   0.02001   0.55483   0.00000  Uiso   1.00
H122   H     0.31010   0.32522   0.94188   0.00000  Uiso   1.00
H123   H     0.14320   0.04142   0.04841   0.00000  Uiso   1.00
H124   H     0.17690   0.30428   0.94082   0.00000  Uiso   1.00
H125   H     0.31610   0.22113   0.05376   0.00000  Uiso   1.00
H126   H     0.32320   0.08812   0.01322   0.00000  Uiso   1.00
H127   H     0.15905   0.08133   0.35694   0.00000  Uiso   1.00
H128   H     0.26026   0.31219   0.04751   0.00000  Uiso   1.00
H129   H     0.32609   0.19975   0.93488   0.00000  Uiso   1.00
H130   H     0.18244   0.28015   0.05791   0.00000  Uiso   1.00
H131   H     0.30308   0.11324   0.63758   0.00000  Uiso   1.00
H132   H     0.41765   0.15985   0.35717   0.00000  Uiso   1.00
H133   H     0.46479   0.33547   0.65976   0.00000  Uiso   1.00
H134   H     0.34100   0.41873   0.35643   0.00000  Uiso   1.00
H135   H     0.19687   0.38676   0.63773   0.00000  Uiso   1.00
H136   H     0.17252   0.09233   0.84920   0.00000  Uiso   1.00
O137   O     0.25000   0.00000   0.25000   0.00000  Uiso   1.00
O138   O     0.25000   0.46539   0.66251   0.00000  Uiso   1.00
O139   O     0.47083   0.15292   0.12081   0.00000  Uiso   1.00
O140   O     0.06654   0.15059   0.42035   0.00000  Uiso   1.00
O141   O     0.08482   0.12754   0.48564   0.00000  Uiso   1.00
O142   O     0.02238   0.09040   0.45183   0.00000  Uiso   1.00
O143   O     0.02982   0.36585   0.57873   0.00000  Uiso   1.00
O144   O     0.03900   0.39398   0.51336   0.00000  Uiso   1.00
O145   O     0.46821   0.40847   0.54807   0.00000  Uiso   1.00
O146   O     0.34893   0.06752   0.42035   0.00000  Uiso   1.00
O147   O     0.37186   0.08588   0.48566   0.00000  Uiso   1.00
O148   O     0.40955   0.02379   0.45148   0.00000  Uiso   1.00
O149   O     0.46538   0.25000   0.33749   0.00000  Uiso   1.00
O150   O     0.13425   0.02682   0.58008   0.00000  Uiso   1.00
O151   O     0.10689   0.03839   0.51481   0.00000  Uiso   1.00
O152   O     0.09185   0.46648   0.54715   0.00000  Uiso   1.00
O153   O     0.43313   0.34949   0.42081   0.00000  Uiso   1.00
O154   O     0.41540   0.37291   0.48622   0.00000  Uiso   1.00
O155   O     0.47739   0.41001   0.45147   0.00000  Uiso   1.00
O156   O     0.47234   0.13477   0.57999   0.00000  Uiso   1.00
O157   O     0.46047   0.10749   0.51469   0.00000  Uiso   1.00
O158   O     0.03224   0.09175   0.54679   0.00000  Uiso   1.00
O159   O     0.15120   0.43248   0.42066   0.00000  Uiso   1.00
O160   O     0.03461   0.25000   0.66251   0.00000  Uiso   1.00
O161   O     0.12828   0.41407   0.48604   0.00000  Uiso   1.00
O162   O     0.09055   0.47616   0.45210   0.00000  Uiso   1.00
O163   O     0.36583   0.47319   0.57961   0.00000  Uiso   1.00
O164   O     0.39326   0.46165   0.51423   0.00000  Uiso   1.00
O165   O     0.40820   0.03356   0.54658   0.00000  Uiso   1.00
O166   O     0.32955   0.40740   0.92593   0.00000  Uiso   1.00
O167   O     0.34153   0.38332   0.99221   0.00000  Uiso   1.00
O168   O     0.28660   0.34296   0.95139   0.00000  Uiso   1.00
O169   O     0.18367   0.14052   0.04444   0.00000  Uiso   1.00
O170   O     0.15186   0.10047   0.99183   0.00000  Uiso   1.00
O171   O     0.00000   0.21538   0.83749   0.00000  Uiso   1.00
O172   O     0.14813   0.06898   0.06113   0.00000  Uiso   1.00
O173   O     0.09525   0.32318   0.92066   0.00000  Uiso   1.00
O174   O     0.11803   0.34192   0.98591   0.00000  Uiso   1.00
O175   O     0.15810   0.28189   0.95088   0.00000  Uiso   1.00
O176   O     0.38273   0.27046   0.08020   0.00000  Uiso   1.00
O177   O     0.35547   0.28231   0.01494   0.00000  Uiso   1.00
O178   O     0.34350   0.20898   0.04570   0.00000  Uiso   1.00
O179   O     0.30245   0.11112   0.93847   0.00000  Uiso   1.00
O180   O     0.25485   0.15829   0.97427   0.00000  Uiso   1.00
O181   O     0.31039   0.11660   0.01318   0.00000  Uiso   1.00
O182   O     0.00000   0.28461   0.16251   0.00000  Uiso   1.00
O183   O     0.21755   0.38255   0.07522   0.00000  Uiso   1.00
O184   O     0.20724   0.36140   0.00777   0.00000  Uiso   1.00
O185   O     0.27610   0.33820   0.04126   0.00000  Uiso   1.00
O186   O     0.40521   0.17885   0.92003   0.00000  Uiso   1.00
O187   O     0.38326   0.15883   0.98521   0.00000  Uiso   1.00
O188   O     0.34228   0.21915   0.95170   0.00000  Uiso   1.00
O189   O     0.11679   0.22886   0.07940   0.00000  Uiso   1.00
O190   O     0.14556   0.21994   0.01413   0.00000  Uiso   1.00
O191   O     0.15592   0.29208   0.04754   0.00000  Uiso   1.00
O192   O     0.28461   0.00000   0.83749   0.00000  Uiso   1.00
O193   O     0.21538   0.00000   0.16251   0.00000  Uiso   1.00
O194   O     0.00000   0.28461   0.83749   0.00000  Uiso   1.00
O195   O     0.00000   0.21538   0.16251   0.00000  Uiso   1.00
O196   O     0.21538   0.00000   0.83749   0.00000  Uiso   1.00
O197   O     0.25000   0.00000   0.75000   0.00000  Uiso   1.00
O198   O     0.28461   0.00000   0.16251   0.00000  Uiso   1.00
O199   O     0.20126   0.08332   0.27298   0.00000  Uiso   1.00
O200   O     0.29873   0.41668   0.72702   0.00000  Uiso   1.00
O201   O     0.41668   0.20127   0.27298   0.00000  Uiso   1.00
O202   O     0.08332   0.29874   0.72702   0.00000  Uiso   1.00
O203   O     0.29873   0.41668   0.27298   0.00000  Uiso   1.00
O204   O     0.20126   0.08332   0.72702   0.00000  Uiso   1.00
O205   O     0.08332   0.29874   0.27298   0.00000  Uiso   1.00
O206   O     0.41668   0.20127   0.72702   0.00000  Uiso   1.00
O207   O     0.20126   0.41668   0.72702   0.00000  Uiso   1.00
O208   O     0.00000   0.25000   0.25000   0.00000  Uiso   1.00
O209   O     0.29873   0.08332   0.27298   0.00000  Uiso   1.00
O210   O     0.41668   0.29874   0.72702   0.00000  Uiso   1.00
O211   O     0.08332   0.20127   0.27298   0.00000  Uiso   1.00
O212   O     0.29873   0.08332   0.72702   0.00000  Uiso   1.00
O213   O     0.20126   0.41668   0.27298   0.00000  Uiso   1.00
O214   O     0.08332   0.20127   0.72702   0.00000  Uiso   1.00
O215   O     0.41668   0.29874   0.27298   0.00000  Uiso   1.00
O216   O     0.45126   0.33332   0.77298   0.00000  Uiso   1.00
O217   O     0.04873   0.16668   0.22702   0.00000  Uiso   1.00
O218   O     0.16668   0.45127   0.77298   0.00000  Uiso   1.00
O219   O     0.00000   0.25000   0.75000   0.00000  Uiso   1.00
O220   O     0.33332   0.04874   0.22702   0.00000  Uiso   1.00
O221   O     0.04873   0.16668   0.77298   0.00000  Uiso   1.00
O222   O     0.45126   0.33332   0.22702   0.00000  Uiso   1.00
O223   O     0.33332   0.04874   0.77298   0.00000  Uiso   1.00
O224   O     0.16668   0.45127   0.22702   0.00000  Uiso   1.00
O225   O     0.45126   0.16668   0.22702   0.00000  Uiso   1.00
O226   O     0.04873   0.33332   0.77298   0.00000  Uiso   1.00
O227   O     0.16668   0.04874   0.22702   0.00000  Uiso   1.00
O228   O     0.33332   0.45127   0.77298   0.00000  Uiso   1.00
O229   O     0.04873   0.33332   0.22702   0.00000  Uiso   1.00
O230   O     0.25000   0.46539   0.33749   0.00000  Uiso   1.00
O231   O     0.45126   0.16668   0.77298   0.00000  Uiso   1.00
O232   O     0.33332   0.45127   0.22702   0.00000  Uiso   1.00
O233   O     0.16668   0.04874   0.77298   0.00000  Uiso   1.00
O234   O     0.49946   0.35268   0.36745   0.00000  Uiso   1.00
O235   O     0.04372   0.36418   0.42496   0.00000  Uiso   1.00
O236   O     0.07213   0.31567   0.37122   0.00000  Uiso   1.00
O237   O     0.03865   0.15729   0.63360   0.00000  Uiso   1.00
O238   O     0.07927   0.15658   0.57281   0.00000  Uiso   1.00
O239   O     0.09495   0.21532   0.62176   0.00000  Uiso   1.00
O240   O     0.14744   0.49884   0.36784   0.00000  Uiso   1.00
O241   O     0.25000   0.03462   0.66251   0.00000  Uiso   1.00
O242   O     0.13579   0.04294   0.42560   0.00000  Uiso   1.00
O243   O     0.18396   0.07174   0.37178   0.00000  Uiso   1.00
O244   O     0.34269   0.03941   0.63350   0.00000  Uiso   1.00
O245   O     0.34298   0.08005   0.57281   0.00000  Uiso   1.00
O246   O     0.28414   0.09524   0.62189   0.00000  Uiso   1.00
O247   O     0.00002   0.14741   0.36772   0.00000  Uiso   1.00
O248   O     0.45601   0.13630   0.42564   0.00000  Uiso   1.00
O249   O     0.42751   0.18471   0.37200   0.00000  Uiso   1.00
O250   O     0.41062   0.29121   0.62238   0.00000  Uiso   1.00
O251   O     0.42048   0.34322   0.57214   0.00000  Uiso   1.00
O252   O     0.03461   0.25000   0.33749   0.00000  Uiso   1.00
O253   O     0.46535   0.35069   0.63468   0.00000  Uiso   1.00
O254   O     0.35262   0.00121   0.36738   0.00000  Uiso   1.00
O255   O     0.36428   0.45709   0.42503   0.00000  Uiso   1.00
O256   O     0.31609   0.42832   0.37139   0.00000  Uiso   1.00
O257   O     0.15732   0.46062   0.63383   0.00000  Uiso   1.00
O258   O     0.15702   0.41995   0.57312   0.00000  Uiso   1.00
O259   O     0.21583   0.40474   0.62198   0.00000  Uiso   1.00
O260   O     0.20680   0.11828   0.91794   0.00000  Uiso   1.00
O261   O     0.25471   0.09903   0.86494   0.00000  Uiso   1.00
O262   O     0.17925   0.06786   0.86593   0.00000  Uiso   1.00
O263   O     0.46538   0.25000   0.66251   0.00000  Uiso   1.00
O264   O     0.27807   0.40344   0.13525   0.00000  Uiso   1.00
O265   O     0.32140   0.39821   0.07634   0.00000  Uiso   1.00
O266   O     0.34008   0.45569   0.12525   0.00000  Uiso   1.00
O267   O     0.39802   0.24478   0.86749   0.00000  Uiso   1.00
O268   O     0.38453   0.28836   0.92524   0.00000  Uiso   1.00
O269   O     0.43162   0.31906   0.87144   0.00000  Uiso   1.00
O270   O     0.09063   0.29493   0.13315   0.00000  Uiso   1.00
O271   O     0.08828   0.33535   0.07238   0.00000  Uiso   1.00
O272   O     0.02890   0.34730   0.12163   0.00000  Uiso   1.00
O273   O     0.26908   0.39683   0.86966   0.00000  Uiso   1.00
O274   O     0.25000   0.03462   0.33749   0.00000  Uiso   1.00
O275   O     0.21927   0.38238   0.92276   0.00000  Uiso   1.00
O276   O     0.19298   0.42569   0.86502   0.00000  Uiso   1.00
O277   O     0.25521   0.12176   0.08274   0.00000  Uiso   1.00
O278   O     0.19769   0.09526   0.12373   0.00000  Uiso   1.00
O279   O     0.27465   0.08415   0.14605   0.00000  Uiso   1.00
O280   O     0.10325   0.25744   0.86797   0.00000  Uiso   1.00
O281   O     0.11621   0.21261   0.92492   0.00000  Uiso   1.00
O282   O     0.06990   0.18298   0.87020   0.00000  Uiso   1.00
O283   O     0.40967   0.20566   0.13359   0.00000  Uiso   1.00
O284   O     0.41100   0.16583   0.07242   0.00000  Uiso   1.00
S285   S     0.02930   0.33233   0.39559   0.00000  Uiso   1.00
S286   S     0.30098   0.42803   0.10448   0.00000  Uiso   1.00
S287   S     0.41694   0.27551   0.89571   0.00000  Uiso   1.00
S288   S     0.06240   0.31214   0.10196   0.00000  Uiso   1.00
S289   S     0.23406   0.41474   0.89403   0.00000  Uiso   1.00
S290   S     0.24109   0.08618   0.10838   0.00000  Uiso   1.00
S291   S     0.08410   0.22603   0.89545   0.00000  Uiso   1.00
S292   S     0.43741   0.18851   0.10187   0.00000  Uiso   1.00
S293   S     0.04880   0.13575   0.45843   0.00000  Uiso   1.00
S294   S     0.00795   0.37428   0.54088   0.00000  Uiso   1.00
S295   S     0.36399   0.04982   0.45831   0.00000  Uiso   1.00
S296   S     0.05777   0.18414   0.60224   0.00000  Uiso   1.00
S297   S     0.12621   0.00631   0.54148   0.00000  Uiso   1.00
S298   S     0.45118   0.36462   0.45861   0.00000  Uiso   1.00
S299   S     0.49272   0.12651   0.54131   0.00000  Uiso   1.00
S300   S     0.13613   0.45015   0.45872   0.00000  Uiso   1.00
S301   S     0.37388   0.49370   0.54099   0.00000  Uiso   1.00
S302   S     0.30855   0.38989   0.96157   0.00000  Uiso   1.00
S303   S     0.17651   0.09690   0.02890   0.00000  Uiso   1.00
S304   S     0.11151   0.30581   0.95833   0.00000  Uiso   1.00
S305   S     0.37601   0.25052   0.04113   0.00000  Uiso   1.00
S306   S     0.27733   0.11661   0.97515   0.00000  Uiso   1.00
S307   S     0.16763   0.02876   0.39604   0.00000  Uiso   1.00
S308   S     0.23925   0.37598   0.03688   0.00000  Uiso   1.00
S309   S     0.38912   0.19545   0.95815   0.00000  Uiso   1.00
S310   S     0.12406   0.25038   0.04112   0.00000  Uiso   1.00
S311   S     0.31566   0.05830   0.60223   0.00000  Uiso   1.00
S312   S     0.47038   0.16797   0.39606   0.00000  Uiso   1.00
S313   S     0.44320   0.31780   0.60229   0.00000  Uiso   1.00
S314   S     0.33243   0.47128   0.39563   0.00000  Uiso   1.00
S315   S     0.18434   0.44169   0.60246   0.00000  Uiso   1.00
S316   S     0.22123   0.08300   0.89210   0.00000  Uiso   1.00
Zn317  Zn    0.20052   0.00000   0.21730   0.00000  Uiso   1.00
Zn318  Zn    0.04947   0.25000   0.28270   0.00000  Uiso   1.00
Zn319  Zn    0.25000   0.45053   0.71730   0.00000  Uiso   1.00
Zn320  Zn    0.25000   0.04948   0.28270   0.00000  Uiso   1.00
Zn321  Zn    0.04947   0.25000   0.71730   0.00000  Uiso   1.00
Zn322  Zn    0.45052   0.25000   0.28270   0.00000  Uiso   1.00
Zn323  Zn    0.25000   0.04948   0.71730   0.00000  Uiso   1.00
Zn324  Zn    0.25000   0.45053   0.28270   0.00000  Uiso   1.00
Zn325  Zn    0.29947   0.00000   0.78270   0.00000  Uiso   1.00
Zn326  Zn    0.00000   0.20052   0.21730   0.00000  Uiso   1.00
Zn327  Zn    0.00000   0.29947   0.78270   0.00000  Uiso   1.00
Zn328  Zn    0.29947   0.00000   0.21730   0.00000  Uiso   1.00
Zn329  Zn    0.20052   0.00000   0.78270   0.00000  Uiso   1.00
Zn330  Zn    0.00000   0.29947   0.21730   0.00000  Uiso   1.00
Zn331  Zn    0.00000   0.20052   0.78270   0.00000  Uiso   1.00
Zn332  Zn    0.45052   0.25000   0.71730   0.00000  Uiso   1.00
C333   C     0.75002   0.00001   0.35592   0.00000  Uiso   1.00
C334   C     0.83000   0.41996   0.74999   0.00000  Uiso   1.00
C335   C     0.92488   0.23510   0.01982   0.00000  Uiso   1.00
C336   C     0.74034   0.07543   0.98165   0.00000  Uiso   1.00
C337   C     0.76191   0.42376   0.01952   0.00000  Uiso   1.00
C338   C     0.92592   0.23095   0.97931   0.00000  Uiso   1.00
C339   C     0.57536   0.26592   0.01982   0.00000  Uiso   1.00
C340   C     0.91997   0.16997   0.25001   0.00000  Uiso   1.00
C341   C     0.58004   0.33002   0.75000   0.00000  Uiso   1.00
C342   C     0.83003   0.41999   0.24999   0.00000  Uiso   1.00
C343   C     0.66998   0.08004   0.75003   0.00000  Uiso   1.00
C344   C     0.58000   0.33003   0.25000   0.00000  Uiso   1.00
C345   C     0.91999   0.16997   0.75001   0.00000  Uiso   1.00
C346   C     0.66997   0.41997   0.75001   0.00000  Uiso   1.00
C347   C     0.83003   0.08004   0.24999   0.00000  Uiso   1.00
C348   C     0.91999   0.33003   0.75002   0.00000  Uiso   1.00
C349   C     0.75000   0.49999   0.64390   0.00000  Uiso   1.00
C350   C     0.58000   0.16996   0.24999   0.00000  Uiso   1.00
C351   C     0.83002   0.08002   0.74998   0.00000  Uiso   1.00
C352   C     0.66998   0.41998   0.25002   0.00000  Uiso   1.00
C353   C     0.58004   0.16999   0.75001   0.00000  Uiso   1.00
C354   C     0.91997   0.33002   0.25001   0.00000  Uiso   1.00
C355   C     0.63833   0.38833   0.25003   0.00000  Uiso   1.00
C356   C     0.86166   0.11167   0.74997   0.00000  Uiso   1.00
C357   C     0.61164   0.13831   0.25000   0.00000  Uiso   1.00
C358   C     0.88835   0.36167   0.75003   0.00000  Uiso   1.00
C359   C     0.86167   0.11167   0.24998   0.00000  Uiso   1.00
C360   C     0.99996   0.25000   0.35591   0.00000  Uiso   1.00
C361   C     0.63834   0.38833   0.75001   0.00000  Uiso   1.00
C362   C     0.88833   0.36167   0.25002   0.00000  Uiso   1.00
C363   C     0.61170   0.13837   0.75003   0.00000  Uiso   1.00
C364   C     0.63835   0.11168   0.75006   0.00000  Uiso   1.00
C365   C     0.86168   0.38835   0.25000   0.00000  Uiso   1.00
C366   C     0.61168   0.36166   0.75000   0.00000  Uiso   1.00
C367   C     0.88833   0.13834   0.25000   0.00000  Uiso   1.00
C368   C     0.86164   0.38831   0.74999   0.00000  Uiso   1.00
C369   C     0.63835   0.11167   0.25004   0.00000  Uiso   1.00
C370   C     0.88835   0.13832   0.75000   0.00000  Uiso   1.00
C371   C     0.50004   0.25025   0.64391   0.00000  Uiso   1.00
C372   C     0.61164   0.36168   0.25000   0.00000  Uiso   1.00
C373   C     0.50422   0.28846   0.41853   0.00000  Uiso   1.00
C374   C     0.51788   0.21621   0.58057   0.00000  Uiso   1.00
C375   C     0.71172   0.00390   0.41870   0.00000  Uiso   1.00
C376   C     0.78402   0.01810   0.58053   0.00000  Uiso   1.00
C377   C     0.99569   0.21187   0.41867   0.00000  Uiso   1.00
C378   C     0.98256   0.28481   0.58062   0.00000  Uiso   1.00
C379   C     0.78835   0.49614   0.41852   0.00000  Uiso   1.00
C380   C     0.71603   0.48185   0.58065   0.00000  Uiso   1.00
C381   C     0.74165   0.03854   0.91844   0.00000  Uiso   1.00
C382   C     0.50023   0.25003   0.85588   0.00000  Uiso   1.00
C383   C     0.76502   0.46364   0.08125   0.00000  Uiso   1.00
C384   C     0.96192   0.25252   0.91851   0.00000  Uiso   1.00
C385   C     0.53306   0.27011   0.08044   0.00000  Uiso   1.00
C386   C     0.75172   0.46164   0.91814   0.00000  Uiso   1.00
C387   C     0.74049   0.03722   0.08212   0.00000  Uiso   1.00
C388   C     0.53878   0.24841   0.91842   0.00000  Uiso   1.00
C389   C     0.96699   0.23045   0.08041   0.00000  Uiso   1.00
C390   C     0.99990   0.25012   0.39824   0.00000  Uiso   1.00
C391   C     0.50012   0.25045   0.60127   0.00000  Uiso   1.00
C392   C     0.75003   0.00003   0.39826   0.00000  Uiso   1.00
C393   C     0.50002   0.25001   0.14386   0.00000  Uiso   1.00
C394   C     0.75002   0.49997   0.60126   0.00000  Uiso   1.00
C395   C     0.74865   0.00034   0.89825   0.00000  Uiso   1.00
C396   C     0.75128   0.49975   0.10176   0.00000  Uiso   1.00
C397   C     0.50033   0.25020   0.89816   0.00000  Uiso   1.00
C398   C     0.50006   0.25012   0.10115   0.00000  Uiso   1.00
C399   C     0.50465   0.21183   0.45881   0.00000  Uiso   1.00
C400   C     0.99146   0.28798   0.54051   0.00000  Uiso   1.00
C401   C     0.78838   0.00498   0.45872   0.00000  Uiso   1.00
C402   C     0.71262   0.49068   0.54059   0.00000  Uiso   1.00
C403   C     0.99549   0.28865   0.45875   0.00000  Uiso   1.00
C404   C     0.74975   0.00024   0.85589   0.00000  Uiso   1.00
C405   C     0.50907   0.21285   0.54053   0.00000  Uiso   1.00
C406   C     0.71170   0.49503   0.45887   0.00000  Uiso   1.00
C407   C     0.78745   0.00927   0.54045   0.00000  Uiso   1.00
C408   C     0.75791   0.46201   0.95872   0.00000  Uiso   1.00
C409   C     0.73793   0.03643   0.04113   0.00000  Uiso   1.00
C410   C     0.53833   0.25727   0.95863   0.00000  Uiso   1.00
C411   C     0.96317   0.23935   0.04038   0.00000  Uiso   1.00
C412   C     0.74404   0.03835   0.95944   0.00000  Uiso   1.00
C413   C     0.75834   0.46168   0.04081   0.00000  Uiso   1.00
C414   C     0.96223   0.24384   0.95868   0.00000  Uiso   1.00
C415   C     0.75025   0.49895   0.14411   0.00000  Uiso   1.00
C416   C     0.53699   0.26150   0.04037   0.00000  Uiso   1.00
C417   C     0.50013   0.25028   0.47924   0.00000  Uiso   1.00
C418   C     0.50022   0.25037   0.52004   0.00000  Uiso   1.00
C419   C     0.75004  -0.00000   0.47925   0.00000  Uiso   1.00
C420   C     0.75004   0.49998   0.52004   0.00000  Uiso   1.00
C421   C     0.74984   0.49969   0.97945   0.00000  Uiso   1.00
C422   C     0.74930   0.49934   0.02059   0.00000  Uiso   1.00
C423   C     0.50023   0.25053   0.97911   0.00000  Uiso   1.00
C424   C     0.50013   0.25047   0.01990   0.00000  Uiso   1.00
C425   C     0.51553   0.17487   0.47949   0.00000  Uiso   1.00
C426   C     0.66999   0.08002   0.25002   0.00000  Uiso   1.00
C427   C     0.98934   0.32647   0.51987   0.00000  Uiso   1.00
C428   C     0.82525   0.01615   0.47934   0.00000  Uiso   1.00
C429   C     0.67412   0.48820   0.52013   0.00000  Uiso   1.00
C430   C     0.98473   0.32569   0.47942   0.00000  Uiso   1.00
C431   C     0.51119   0.17427   0.52000   0.00000  Uiso   1.00
C432   C     0.67484   0.48383   0.47963   0.00000  Uiso   1.00
C433   C     0.82595   0.01176   0.51984   0.00000  Uiso   1.00
C434   C     0.76998   0.42564   0.97971   0.00000  Uiso   1.00
C435   C     0.72537   0.07182   0.01939   0.00000  Uiso   1.00
C436   C     0.57454   0.27022   0.97931   0.00000  Uiso   1.00
H437   H     0.58184   0.34052   0.35629   0.00000  Uiso   1.00
H438   H     0.85533   0.43509   0.14163   0.00000  Uiso   1.00
H439   H     0.90629   0.32783   0.85678   0.00000  Uiso   1.00
H440   H     0.54683   0.36636   0.13726   0.00000  Uiso   1.00
H441   H     0.68791   0.39944   0.85017   0.00000  Uiso   1.00
H442   H     0.76911   0.11014   0.16116   0.00000  Uiso   1.00
H443   H     0.59547   0.17461   0.85556   0.00000  Uiso   1.00
H444   H     0.95290   0.13384   0.13648   0.00000  Uiso   1.00
H445   H     0.54403   0.06969   0.44371   0.00000  Uiso   1.00
H446   H     0.98194   0.43501   0.55633   0.00000  Uiso   1.00
H447   H     0.93001   0.04563   0.44333   0.00000  Uiso   1.00
H448   H     0.61277   0.19619   0.63743   0.00000  Uiso   1.00
H449   H     0.56522   0.48007   0.55547   0.00000  Uiso   1.00
H450   H     0.95562   0.43056   0.44341   0.00000  Uiso   1.00
H451   H     0.51844   0.06520   0.55496   0.00000  Uiso   1.00
H452   H     0.57017   0.45435   0.44379   0.00000  Uiso   1.00
H453   H     0.93482   0.02001   0.55483   0.00000  Uiso   1.00
H454   H     0.81010   0.32522   0.94188   0.00000  Uiso   1.00
H455   H     0.64320   0.04142   0.04841   0.00000  Uiso   1.00
H456   H     0.67690   0.30428   0.94082   0.00000  Uiso   1.00
H457   H     0.81610   0.22113   0.05376   0.00000  Uiso   1.00
H458   H     0.82320   0.08812   0.01322   0.00000  Uiso   1.00
H459   H     0.65905   0.08133   0.35694   0.00000  Uiso   1.00
H460   H     0.76026   0.31219   0.04751   0.00000  Uiso   1.00
H461   H     0.82609   0.19975   0.93488   0.00000  Uiso   1.00
H462   H     0.68244   0.28015   0.05791   0.00000  Uiso   1.00
H463   H     0.80308   0.11324   0.63758   0.00000  Uiso   1.00
H464   H     0.91765   0.15985   0.35717   0.00000  Uiso   1.00
H465   H     0.96479   0.33547   0.65976   0.00000  Uiso   1.00
H466   H     0.84100   0.41873   0.35643   0.00000  Uiso   1.00
H467   H     0.69687   0.38676   0.63773   0.00000  Uiso   1.00
H468   H     0.67252   0.09233   0.84920   0.00000  Uiso   1.00
O469   O     0.75000   0.00000   0.25000   0.00000  Uiso   1.00
O470   O     0.75000   0.46539   0.66251   0.00000  Uiso   1.00
O471   O     0.97083   0.15292   0.12081   0.00000  Uiso   1.00
O472   O     0.56654   0.15059   0.42035   0.00000  Uiso   1.00
O473   O     0.58482   0.12754   0.48564   0.00000  Uiso   1.00
O474   O     0.52238   0.09040   0.45183   0.00000  Uiso   1.00
O475   O     0.52982   0.36585   0.57873   0.00000  Uiso   1.00
O476   O     0.53900   0.39398   0.51336   0.00000  Uiso   1.00
O477   O     0.96821   0.40847   0.54807   0.00000  Uiso   1.00
O478   O     0.84893   0.06752   0.42035   0.00000  Uiso   1.00
O479   O     0.87186   0.08588   0.48566   0.00000  Uiso   1.00
O480   O     0.90955   0.02379   0.45148   0.00000  Uiso   1.00
O481   O     0.96538   0.25000   0.33749   0.00000  Uiso   1.00
O482   O     0.63425   0.02682   0.58008   0.00000  Uiso   1.00
O483   O     0.60689   0.03839   0.51481   0.00000  Uiso   1.00
O484   O     0.59185   0.46648   0.54715   0.00000  Uiso   1.00
O485   O     0.93313   0.34949   0.42081   0.00000  Uiso   1.00
O486   O     0.91540   0.37291   0.48622   0.00000  Uiso   1.00
O487   O     0.97739   0.41001   0.45147   0.00000  Uiso   1.00
O488   O     0.97234   0.13477   0.57999   0.00000  Uiso   1.00
O489   O     0.96047   0.10749   0.51469   0.00000  Uiso   1.00
O490   O     0.53224   0.09175   0.54679   0.00000  Uiso   1.00
O491   O     0.65120   0.43248   0.42066   0.00000  Uiso   1.00
O492   O     0.53461   0.25000   0.66251   0.00000  Uiso   1.00
O493   O     0.62828   0.41407   0.48604   0.00000  Uiso   1.00
O494   O     0.59055   0.47616   0.45210   0.00000  Uiso   1.00
O495   O     0.86583   0.47319   0.57961   0.00000  Uiso   1.00
O496   O     0.89326   0.46165   0.51423   0.00000  Uiso   1.00
O497   O     0.90820   0.03356   0.54658   0.00000  Uiso   1.00
O498   O     0.82955   0.40740   0.92593   0.00000  Uiso   1.00
O499   O     0.84153   0.38332   0.99221   0.00000  Uiso   1.00
O500   O     0.78660   0.34296   0.95139   0.00000  Uiso   1.00
O501   O     0.68367   0.14052   0.04444   0.00000  Uiso   1.00
O502   O     0.65186   0.10047   0.99183   0.00000  Uiso   1.00
O503   O     0.50000   0.21538   0.83749   0.00000  Uiso   1.00
O504   O     0.64813   0.06898   0.06113   0.00000  Uiso   1.00
O505   O     0.59525   0.32318   0.92066   0.00000  Uiso   1.00
O506   O     0.61803   0.34192   0.98591   0.00000  Uiso   1.00
O507   O     0.65810   0.28189   0.95088   0.00000  Uiso   1.00
O508   O     0.88273   0.27046   0.08020   0.00000  Uiso   1.00
O509   O     0.85547   0.28231   0.01494   0.00000  Uiso   1.00
O510   O     0.84350   0.20898   0.04570   0.00000  Uiso   1.00
O511   O     0.80245   0.11112   0.93847   0.00000  Uiso   1.00
O512   O     0.75485   0.15829   0.97427   0.00000  Uiso   1.00
O513   O     0.81039   0.11660   0.01318   0.00000  Uiso   1.00
O514   O     0.50000   0.28461   0.16251   0.00000  Uiso   1.00
O515   O     0.71755   0.38255   0.07522   0.00000  Uiso   1.00
O516   O     0.70724   0.36140   0.00777   0.00000  Uiso   1.00
O517   O     0.77610   0.33820   0.04126   0.00000  Uiso   1.00
O518   O     0.90521   0.17885   0.92003   0.00000  Uiso   1.00
O519   O     0.88326   0.15883   0.98521   0.00000  Uiso   1.00
O520   O     0.84228   0.21915   0.95170   0.00000  Uiso   1.00
O521   O     0.61679   0.22886   0.07940   0.00000  Uiso   1.00
O522   O     0.64556   0.21994   0.01413   0.00000  Uiso   1.00
O523   O     0.65592   0.29208   0.04754   0.00000  Uiso   1.00
O524   O     0.78461   0.00000   0.83749   0.00000  Uiso   1.00
O525   O     0.71538   0.00000   0.16251   0.00000  Uiso   1.00
O526   O     0.50000   0.28461   0.83749   0.00000  Uiso   1.00
O527   O     0.50000   0.21538   0.16251   0.00000  Uiso   1.00
O528   O     0.71538   0.00000   0.83749   0.00000  Uiso   1.00
O529   O     0.75000   0.00000   0.75000   0.00000  Uiso   1.00
O530   O     0.78461   0.00000   0.16251   0.00000  Uiso   1.00
O531   O     0.70126   0.08332   0.27298   0.00000  Uiso   1.00
O532   O     0.79873   0.41668   0.72702   0.00000  Uiso   1.00
O533   O     0.91668   0.20127   0.27298   0.00000  Uiso   1.00
O534   O     0.58332   0.29874   0.72702   0.00000  Uiso   1.00
O535   O     0.79873   0.41668   0.27298   0.00000  Uiso   1.00
O536   O     0.70126   0.08332   0.72702   0.00000  Uiso   1.00
O537   O     0.58332   0.29874   0.27298   0.00000  Uiso   1.00
O538   O     0.91668   0.20127   0.72702   0.00000  Uiso   1.00
O539   O     0.70126   0.41668   0.72702   0.00000  Uiso   1.00
O540   O     0.50000   0.25000   0.25000   0.00000  Uiso   1.00
O541   O     0.79873   0.08332   0.27298   0.00000  Uiso   1.00
O542   O     0.91668   0.29874   0.72702   0.00000  Uiso   1.00
O543   O     0.58332   0.20127   0.27298   0.00000  Uiso   1.00
O544   O     0.79873   0.08332   0.72702   0.00000  Uiso   1.00
O545   O     0.70126   0.41668   0.27298   0.00000  Uiso   1.00
O546   O     0.58332   0.20127   0.72702   0.00000  Uiso   1.00
O547   O     0.91668   0.29874   0.27298   0.00000  Uiso   1.00
O548   O     0.95126   0.33332   0.77298   0.00000  Uiso   1.00
O549   O     0.54873   0.16668   0.22702   0.00000  Uiso   1.00
O550   O     0.66668   0.45127   0.77298   0.00000  Uiso   1.00
O551   O     0.50000   0.25000   0.75000   0.00000  Uiso   1.00
O552   O     0.83332   0.04874   0.22702   0.00000  Uiso   1.00
O553   O     0.54873   0.16668   0.77298   0.00000  Uiso   1.00
O554   O     0.95126   0.33332   0.22702   0.00000  Uiso   1.00
O555   O     0.83332   0.04874   0.77298   0.00000  Uiso   1.00
O556   O     0.66668   0.45127   0.22702   0.00000  Uiso   1.00
O557   O     0.95126   0.16668   0.22702   0.00000  Uiso   1.00
O558   O     0.54873   0.33332   0.77298   0.00000  Uiso   1.00
O559   O     0.66668   0.04874   0.22702   0.00000  Uiso   1.00
O560   O     0.83332   0.45127   0.77298   0.00000  Uiso   1.00
O561   O     0.54873   0.33332   0.22702   0.00000  Uiso   1.00
O562   O     0.75000   0.46539   0.33749   0.00000  Uiso   1.00
O563   O     0.95126   0.16668   0.77298   0.00000  Uiso   1.00
O564   O     0.83332   0.45127   0.22702   0.00000  Uiso   1.00
O565   O     0.66668   0.04874   0.77298   0.00000  Uiso   1.00
O566   O     0.99946   0.35268   0.36745   0.00000  Uiso   1.00
O567   O     0.54372   0.36418   0.42496   0.00000  Uiso   1.00
O568   O     0.57213   0.31567   0.37122   0.00000  Uiso   1.00
O569   O     0.53865   0.15729   0.63360   0.00000  Uiso   1.00
O570   O     0.57927   0.15658   0.57281   0.00000  Uiso   1.00
O571   O     0.59495   0.21532   0.62176   0.00000  Uiso   1.00
O572   O     0.64744   0.49884   0.36784   0.00000  Uiso   1.00
O573   O     0.75000   0.03462   0.66251   0.00000  Uiso   1.00
O574   O     0.63579   0.04294   0.42560   0.00000  Uiso   1.00
O575   O     0.68396   0.07174   0.37178   0.00000  Uiso   1.00
O576   O     0.84269   0.03941   0.63350   0.00000  Uiso   1.00
O577   O     0.84298   0.08005   0.57281   0.00000  Uiso   1.00
O578   O     0.78414   0.09524   0.62189   0.00000  Uiso   1.00
O579   O     0.50002   0.14741   0.36772   0.00000  Uiso   1.00
O580   O     0.95601   0.13630   0.42564   0.00000  Uiso   1.00
O581   O     0.92751   0.18471   0.37200   0.00000  Uiso   1.00
O582   O     0.91062   0.29121   0.62238   0.00000  Uiso   1.00
O583   O     0.92048   0.34322   0.57214   0.00000  Uiso   1.00
O584   O     0.53461   0.25000   0.33749   0.00000  Uiso   1.00
O585   O     0.96535   0.35069   0.63468   0.00000  Uiso   1.00
O586   O     0.85262   0.00121   0.36738   0.00000  Uiso   1.00
O587   O     0.86428   0.45709   0.42503   0.00000  Uiso   1.00
O588   O     0.81609   0.42832   0.37139   0.00000  Uiso   1.00
O589   O     0.65732   0.46062   0.63383   0.00000  Uiso   1.00
O590   O     0.65702   0.41995   0.57312   0.00000  Uiso   1.00
O591   O     0.71583   0.40474   0.62198   0.00000  Uiso   1.00
O592   O     0.70680   0.11828   0.91794   0.00000  Uiso   1.00
O593   O     0.75471   0.09903   0.86494   0.00000  Uiso   1.00
O594   O     0.67925   0.06786   0.86593   0.00000  Uiso   1.00
O595   O     0.96538   0.25000   0.66251   0.00000  Uiso   1.00
O596   O     0.77807   0.40344   0.13525   0.00000  Uiso   1.00
O597   O     0.82140   0.39821   0.07634   0.00000  Uiso   1.00
O598   O     0.84008   0.45569   0.12525   0.00000  Uiso   1.00
O599   O     0.89802   0.24478   0.86749   0.00000  Uiso   1.00
O600   O     0.88453   0.28836   0.92524   0.00000  Uiso   1.00
O601   O     0.93162   0.31906   0.87144   0.00000  Uiso   1.00
O602   O     0.59063   0.29493   0.13315   0.00000  Uiso   1.00
O603   O     0.58828   0.33535   0.07238   0.00000  Uiso   1.00
O604   O     0.52890   0.34730   0.12163   0.00000  Uiso   1.00
O605   O     0.76908   0.39683   0.86966   0.00000  Uiso   1.00
O606   O     0.75000   0.03462   0.33749   0.00000  Uiso   1.00
O607   O     0.71927   0.38238   0.92276   0.00000  Uiso   1.00
O608   O     0.69298   0.42569   0.86502   0.00000  Uiso   1.00
O609   O     0.75521   0.12176   0.08274   0.00000  Uiso   1.00
O610   O     0.69769   0.09526   0.12373   0.00000  Uiso   1.00
O611   O     0.77465   0.08415   0.14605   0.00000  Uiso   1.00
O612   O     0.60325   0.25744   0.86797   0.00000  Uiso   1.00
O613   O     0.61621   0.21261   0.92492   0.00000  Uiso   1.00
O614   O     0.56990   0.18298   0.87020   0.00000  Uiso   1.00
O615   O     0.90967   0.20566   0.13359   0.00000  Uiso   1.00
O616   O     0.91100   0.16583   0.07242   0.00000  Uiso   1.00
S617   S     0.52930   0.33233   0.39559   0.00000  Uiso   1.00
S618   S     0.80098   0.42803   0.10448   0.00000  Uiso   1.00
S619   S     0.91694   0.27551   0.89571   0.00000  Uiso   1.00
S620   S     0.56240   0.31214   0.10196   0.00000  Uiso   1.00
S621   S     0.73406   0.41474   0.89403   0.00000  Uiso   1.00
S622   S     0.74109   0.08618   0.10838   0.00000  Uiso   1.00
S623   S     0.58410   0.22603   0.89545   0.00000  Uiso   1.00
S624   S     0.93741   0.18851   0.10187   0.00000  Uiso   1.00
S625   S     0.54880   0.13575   0.45843   0.00000  Uiso   1.00
S626   S     0.50795   0.37428   0.54088   0.00000  Uiso   1.00
S627   S     0.86399   0.04982   0.45831   0.00000  Uiso   1.00
S628   S     0.55777   0.18414   0.60224   0.00000  Uiso   1.00
S629   S     0.62621   0.00631   0.54148   0.00000  Uiso   1.00
S630   S     0.95118   0.36462   0.45861   0.00000  Uiso   1.00
S631   S     0.99272   0.12651   0.54131   0.00000  Uiso   1.00
S632   S     0.63613   0.45015   0.45872   0.00000  Uiso   1.00
S633   S     0.87388   0.49370   0.54099   0.00000  Uiso   1.00
S634   S     0.80855   0.38989   0.96157   0.00000  Uiso   1.00
S635   S     0.67651   0.09690   0.02890   0.00000  Uiso   1.00
S636   S     0.61151   0.30581   0.95833   0.00000  Uiso   1.00
S637   S     0.87601   0.25052   0.04113   0.00000  Uiso   1.00
S638   S     0.77733   0.11661   0.97515   0.00000  Uiso   1.00
S639   S     0.66763   0.02876   0.39604   0.00000  Uiso   1.00
S640   S     0.73925   0.37598   0.03688   0.00000  Uiso   1.00
S641   S     0.88912   0.19545   0.95815   0.00000  Uiso   1.00
S642   S     0.62406   0.25038   0.04112   0.00000  Uiso   1.00
S643   S     0.81566   0.05830   0.60223   0.00000  Uiso   1.00
S644   S     0.97038   0.16797   0.39606   0.00000  Uiso   1.00
S645   S     0.94320   0.31780   0.60229   0.00000  Uiso   1.00
S646   S     0.83243   0.47128   0.39563   0.00000  Uiso   1.00
S647   S     0.68434   0.44169   0.60246   0.00000  Uiso   1.00
S648   S     0.72123   0.08300   0.89210   0.00000  Uiso   1.00
Zn649  Zn    0.70052   0.00000   0.21730   0.00000  Uiso   1.00
Zn650  Zn    0.54947   0.25000   0.28270   0.00000  Uiso   1.00
Zn651  Zn    0.75000   0.45053   0.71730   0.00000  Uiso   1.00
Zn652  Zn    0.75000   0.04948   0.28270   0.00000  Uiso   1.00
Zn653  Zn    0.54947   0.25000   0.71730   0.00000  Uiso   1.00
Zn654  Zn    0.95052   0.25000   0.28270   0.00000  Uiso   1.00
Zn655  Zn    0.75000   0.04948   0.71730   0.00000  Uiso   1.00
Zn656  Zn    0.75000   0.45053   0.28270   0.00000  Uiso   1.00
Zn657  Zn    0.79947   0.00000   0.78270   0.00000  Uiso   1.00
Zn658  Zn    0.50000   0.20052   0.21730   0.00000  Uiso   1.00
Zn659  Zn    0.50000   0.29947   0.78270   0.00000  Uiso   1.00
Zn660  Zn    0.79947   0.00000   0.21730   0.00000  Uiso   1.00
Zn661  Zn    0.70052   0.00000   0.78270   0.00000  Uiso   1.00
Zn662  Zn    0.50000   0.29947   0.21730   0.00000  Uiso   1.00
Zn663  Zn    0.50000   0.20052   0.78270   0.00000  Uiso   1.00
Zn664  Zn    0.95052   0.25000   0.71730   0.00000  Uiso   1.00
C665   C     0.25002   0.50001   0.35592   0.00000  Uiso   1.00
C666   C     0.33000   0.91996   0.74999   0.00000  Uiso   1.00
C667   C     0.42488   0.73510   0.01982   0.00000  Uiso   1.00
C668   C     0.24034   0.57543   0.98165   0.00000  Uiso   1.00
C669   C     0.26191   0.92376   0.01952   0.00000  Uiso   1.00
C670   C     0.42592   0.73095   0.97931   0.00000  Uiso   1.00
C671   C     0.07536   0.76592   0.01982   0.00000  Uiso   1.00
C672   C     0.41997   0.66997   0.25001   0.00000  Uiso   1.00
C673   C     0.08004   0.83002   0.75000   0.00000  Uiso   1.00
C674   C     0.33003   0.91999   0.24999   0.00000  Uiso   1.00
C675   C     0.16998   0.58004   0.75003   0.00000  Uiso   1.00
C676   C     0.08000   0.83003   0.25000   0.00000  Uiso   1.00
C677   C     0.41999   0.66997   0.75001   0.00000  Uiso   1.00
C678   C     0.16997   0.91997   0.75001   0.00000  Uiso   1.00
C679   C     0.33003   0.58004   0.24999   0.00000  Uiso   1.00
C680   C     0.41999   0.83003   0.75002   0.00000  Uiso   1.00
C681   C     0.25000   0.99999   0.64390   0.00000  Uiso   1.00
C682   C     0.08000   0.66996   0.24999   0.00000  Uiso   1.00
C683   C     0.33002   0.58002   0.74998   0.00000  Uiso   1.00
C684   C     0.16998   0.91998   0.25002   0.00000  Uiso   1.00
C685   C     0.08004   0.66999   0.75001   0.00000  Uiso   1.00
C686   C     0.41997   0.83002   0.25001   0.00000  Uiso   1.00
C687   C     0.13833   0.88833   0.25003   0.00000  Uiso   1.00
C688   C     0.36166   0.61167   0.74997   0.00000  Uiso   1.00
C689   C     0.11164   0.63831   0.25000   0.00000  Uiso   1.00
C690   C     0.38835   0.86167   0.75003   0.00000  Uiso   1.00
C691   C     0.36167   0.61167   0.24998   0.00000  Uiso   1.00
C692   C     0.49996   0.75000   0.35591   0.00000  Uiso   1.00
C693   C     0.13834   0.88833   0.75001   0.00000  Uiso   1.00
C694   C     0.38833   0.86167   0.25002   0.00000  Uiso   1.00
C695   C     0.11170   0.63837   0.75003   0.00000  Uiso   1.00
C696   C     0.13835   0.61168   0.75006   0.00000  Uiso   1.00
C697   C     0.36168   0.88835   0.25000   0.00000  Uiso   1.00
C698   C     0.11168   0.86166   0.75000   0.00000  Uiso   1.00
C699   C     0.38833   0.63834   0.25000   0.00000  Uiso   1.00
C700   C     0.36164   0.88831   0.74999   0.00000  Uiso   1.00
C701   C     0.13835   0.61167   0.25004   0.00000  Uiso   1.00
C702   C     0.38835   0.63832   0.75000   0.00000  Uiso   1.00
C703   C     0.00004   0.75025   0.64391   0.00000  Uiso   1.00
C704   C     0.11164   0.86168   0.25000   0.00000  Uiso   1.00
C705   C     0.00422   0.78846   0.41853   0.00000  Uiso   1.00
C706   C     0.01788   0.71621   0.58057   0.00000  Uiso   1.00
C707   C     0.21172   0.50390   0.41870   0.00000  Uiso   1.00
C708   C     0.28402   0.51810   0.58053   0.00000  Uiso   1.00
C709   C     0.49569   0.71187   0.41867   0.00000  Uiso   1.00
C710   C     0.48256   0.78481   0.58062   0.00000  Uiso   1.00
C711   C     0.28835   0.99614   0.41852   0.00000  Uiso   1.00
C712   C     0.21603   0.98185   0.58065   0.00000  Uiso   1.00
C713   C     0.24165   0.53854   0.91844   0.00000  Uiso   1.00
C714   C     0.00023   0.75003   0.85588   0.00000  Uiso   1.00
C715   C     0.26502   0.96364   0.08125   0.00000  Uiso   1.00
C716   C     0.46192   0.75252   0.91851   0.00000  Uiso   1.00
C717   C     0.03306   0.77011   0.08044   0.00000  Uiso   1.00
C718   C     0.25172   0.96164   0.91814   0.00000  Uiso   1.00
C719   C     0.24049   0.53722   0.08212   0.00000  Uiso   1.00
C720   C     0.03878   0.74841   0.91842   0.00000  Uiso   1.00
C721   C     0.46699   0.73045   0.08041   0.00000  Uiso   1.00
C722   C     0.49990   0.75012   0.39824   0.00000  Uiso   1.00
C723   C     0.00012   0.75045   0.60127   0.00000  Uiso   1.00
C724   C     0.25003   0.50003   0.39826   0.00000  Uiso   1.00
C725   C     0.00002   0.75001   0.14386   0.00000  Uiso   1.00
C726   C     0.25002   0.99997   0.60126   0.00000  Uiso   1.00
C727   C     0.24865   0.50034   0.89825   0.00000  Uiso   1.00
C728   C     0.25128   0.99975   0.10176   0.00000  Uiso   1.00
C729   C     0.00033   0.75020   0.89816   0.00000  Uiso   1.00
C730   C     0.00006   0.75012   0.10115   0.00000  Uiso   1.00
C731   C     0.00465   0.71183   0.45881   0.00000  Uiso   1.00
C732   C     0.49146   0.78798   0.54051   0.00000  Uiso   1.00
C733   C     0.28838   0.50498   0.45872   0.00000  Uiso   1.00
C734   C     0.21262   0.99068   0.54059   0.00000  Uiso   1.00
C735   C     0.49549   0.78865   0.45875   0.00000  Uiso   1.00
C736   C     0.24975   0.50024   0.85589   0.00000  Uiso   1.00
C737   C     0.00907   0.71285   0.54053   0.00000  Uiso   1.00
C738   C     0.21170   0.99503   0.45887   0.00000  Uiso   1.00
C739   C     0.28745   0.50927   0.54045   0.00000  Uiso   1.00
C740   C     0.25791   0.96201   0.95872   0.00000  Uiso   1.00
C741   C     0.23793   0.53643   0.04113   0.00000  Uiso   1.00
C742   C     0.03833   0.75727   0.95863   0.00000  Uiso   1.00
C743   C     0.46317   0.73935   0.04038   0.00000  Uiso   1.00
C744   C     0.24404   0.53835   0.95944   0.00000  Uiso   1.00
C745   C     0.25834   0.96168   0.04081   0.00000  Uiso   1.00
C746   C     0.46223   0.74384   0.95868   0.00000  Uiso   1.00
C747   C     0.25025   0.99895   0.14411   0.00000  Uiso   1.00
C748   C     0.03699   0.76150   0.04037   0.00000  Uiso   1.00
C749   C     0.00013   0.75028   0.47924   0.00000  Uiso   1.00
C750   C     0.00022   0.75037   0.52004   0.00000  Uiso   1.00
C751   C     0.25004   0.50000   0.47925   0.00000  Uiso   1.00
C752   C     0.25004   0.99998   0.52004   0.00000  Uiso   1.00
C753   C     0.24984   0.99969   0.97945   0.00000  Uiso   1.00
C754   C     0.24930   0.99934   0.02059   0.00000  Uiso   1.00
C755   C     0.00023   0.75053   0.97911   0.00000  Uiso   1.00
C756   C     0.00013   0.75047   0.01990   0.00000  Uiso   1.00
C757   C     0.01553   0.67487   0.47949   0.00000  Uiso   1.00
C758   C     0.16999   0.58002   0.25002   0.00000  Uiso   1.00
C759   C     0.48934   0.82647   0.51987   0.00000  Uiso   1.00
C760   C     0.32525   0.51615   0.47934   0.00000  Uiso   1.00
C761   C     0.17412   0.98820   0.52013   0.00000  Uiso   1.00
C762   C     0.48473   0.82569   0.47942   0.00000  Uiso   1.00
C763   C     0.01119   0.67427   0.52000   0.00000  Uiso   1.00
C764   C     0.17484   0.98383   0.47963   0.00000  Uiso   1.00
C765   C     0.32595   0.51176   0.51984   0.00000  Uiso   1.00
C766   C     0.26998   0.92564   0.97971   0.00000  Uiso   1.00
C767   C     0.22537   0.57182   0.01939   0.00000  Uiso   1.00
C768   C     0.07454   0.77022   0.97931   0.00000  Uiso   1.00
H769   H     0.08184   0.84052   0.35629   0.00000  Uiso   1.00
H770   H     0.35533   0.93509   0.14163   0.00000  Uiso   1.00
H771   H     0.40629   0.82783   0.85678   0.00000  Uiso   1.00
H772   H     0.04683   0.86636   0.13726   0.00000  Uiso   1.00
H773   H     0.18791   0.89944   0.85017   0.00000  Uiso   1.00
H774   H     0.26911   0.61014   0.16116   0.00000  Uiso   1.00
H775   H     0.09547   0.67461   0.85556   0.00000  Uiso   1.00
H776   H     0.45290   0.63384   0.13648   0.00000  Uiso   1.00
H777   H     0.04403   0.56969   0.44371   0.00000  Uiso   1.00
H778   H     0.48194   0.93501   0.55633   0.00000  Uiso   1.00
H779   H     0.43001   0.54563   0.44333   0.00000  Uiso   1.00
H780   H     0.11277   0.69619   0.63743   0.00000  Uiso   1.00
H781   H     0.06522   0.98007   0.55547   0.00000  Uiso   1.00
H782   H     0.45562   0.93056   0.44341   0.00000  Uiso   1.00
H783   H     0.01844   0.56520   0.55496   0.00000  Uiso   1.00
H784   H     0.07017   0.95435   0.44379   0.00000  Uiso   1.00
H785   H     0.43482   0.52001   0.55483   0.00000  Uiso   1.00
H786   H     0.31010   0.82522   0.94188   0.00000  Uiso   1.00
H787   H     0.14320   0.54142   0.04841   0.00000  Uiso   1.00
H788   H     0.17690   0.80428   0.94082   0.00000  Uiso   1.00
H789   H     0.31610   0.72113   0.05376   0.00000  Uiso   1.00
H790   H     0.32320   0.58812   0.01322   0.00000  Uiso   1.00
H791   H     0.15905   0.58133   0.35694   0.00000  Uiso   1.00
H792   H     0.26026   0.81219   0.04751   0.00000  Uiso   1.00
H793   H     0.32609   0.69975   0.93488   0.00000  Uiso   1.00
H794   H     0.18244   0.78015   0.05791   0.00000  Uiso   1.00
H795   H     0.30308   0.61324   0.63758   0.00000  Uiso   1.00
H796   H     0.41765   0.65985   0.35717   0.00000  Uiso   1.00
H797   H     0.46479   0.83547   0.65976   0.00000  Uiso   1.00
H798   H     0.34100   0.91873   0.35643   0.00000  Uiso   1.00
H799   H     0.19687   0.88676   0.63773   0.00000  Uiso   1.00
H800   H     0.17252   0.59233   0.84920   0.00000  Uiso   1.00
O801   O     0.25000   0.50000   0.25000   0.00000  Uiso   1.00
O802   O     0.25000   0.96539   0.66251   0.00000  Uiso   1.00
O803   O     0.47083   0.65292   0.12081   0.00000  Uiso   1.00
O804   O     0.06654   0.65059   0.42035   0.00000  Uiso   1.00
O805   O     0.08482   0.62754   0.48564   0.00000  Uiso   1.00
O806   O     0.02238   0.59040   0.45183   0.00000  Uiso   1.00
O807   O     0.02982   0.86585   0.57873   0.00000  Uiso   1.00
O808   O     0.03900   0.89398   0.51336   0.00000  Uiso   1.00
O809   O     0.46821   0.90847   0.54807   0.00000  Uiso   1.00
O810   O     0.34893   0.56752   0.42035   0.00000  Uiso   1.00
O811   O     0.37186   0.58588   0.48566   0.00000  Uiso   1.00
O812   O     0.40955   0.52379   0.45148   0.00000  Uiso   1.00
O813   O     0.46538   0.75000   0.33749   0.00000  Uiso   1.00
O814   O     0.13425   0.52682   0.58008   0.00000  Uiso   1.00
O815   O     0.10689   0.53839   0.51481   0.00000  Uiso   1.00
O816   O     0.09185   0.96648   0.54715   0.00000  Uiso   1.00
O817   O     0.43313   0.84949   0.42081   0.00000  Uiso   1.00
O818   O     0.41540   0.87291   0.48622   0.00000  Uiso   1.00
O819   O     0.47739   0.91001   0.45147   0.00000  Uiso   1.00
O820   O     0.47234   0.63477   0.57999   0.00000  Uiso   1.00
O821   O     0.46047   0.60749   0.51469   0.00000  Uiso   1.00
O822   O     0.03224   0.59175   0.54679   0.00000  Uiso   1.00
O823   O     0.15120   0.93248   0.42066   0.00000  Uiso   1.00
O824   O     0.03461   0.75000   0.66251   0.00000  Uiso   1.00
O825   O     0.12828   0.91407   0.48604   0.00000  Uiso   1.00
O826   O     0.09055   0.97616   0.45210   0.00000  Uiso   1.00
O827   O     0.36583   0.97319   0.57961   0.00000  Uiso   1.00
O828   O     0.39326   0.96165   0.51423   0.00000  Uiso   1.00
O829   O     0.40820   0.53356   0.54658   0.00000  Uiso   1.00
O830   O     0.32955   0.90740   0.92593   0.00000  Uiso   1.00
O831   O     0.34153   0.88332   0.99221   0.00000  Uiso   1.00
O832   O     0.28660   0.84296   0.95139   0.00000  Uiso   1.00
O833   O     0.18367   0.64052   0.04444   0.00000  Uiso   1.00
O834   O     0.15186   0.60047   0.99183   0.00000  Uiso   1.00
O835   O     0.00000   0.71538   0.83749   0.00000  Uiso   1.00
O836   O     0.14813   0.56898   0.06113   0.00000  Uiso   1.00
O837   O     0.09525   0.82318   0.92066   0.00000  Uiso   1.00
O838   O     0.11803   0.84192   0.98591   0.00000  Uiso   1.00
O839   O     0.15810   0.78189   0.95088   0.00000  Uiso   1.00
O840   O     0.38273   0.77046   0.08020   0.00000  Uiso   1.00
O841   O     0.35547   0.78231   0.01494   0.00000  Uiso   1.00
O842   O     0.34350   0.70898   0.04570   0.00000  Uiso   1.00
O843   O     0.30245   0.61112   0.93847   0.00000  Uiso   1.00
O844   O     0.25485   0.65829   0.97427   0.00000  Uiso   1.00
O845   O     0.31039   0.61660   0.01318   0.00000  Uiso   1.00
O846   O     0.00000   0.78461   0.16251   0.00000  Uiso   1.00
O847   O     0.21755   0.88255   0.07522   0.00000  Uiso   1.00
O848   O     0.20724   0.86140   0.00777   0.00000  Uiso   1.00
O849   O     0.27610   0.83820   0.04126   0.00000  Uiso   1.00
O850   O     0.40521   0.67885   0.92003   0.00000  Uiso   1.00
O851   O     0.38326   0.65883   0.98521   0.00000  Uiso   1.00
O852   O     0.34228   0.71915   0.95170   0.00000  Uiso   1.00
O853   O     0.11679   0.72886   0.07940   0.00000  Uiso   1.00
O854   O     0.14556   0.71994   0.01413   0.00000  Uiso   1.00
O855   O     0.15592   0.79208   0.04754   0.00000  Uiso   1.00
O856   O     0.28461   0.50000   0.83749   0.00000  Uiso   1.00
O857   O     0.21538   0.50000   0.16251   0.00000  Uiso   1.00
O858   O     0.00000   0.78461   0.83749   0.00000  Uiso   1.00
O859   O     0.00000   0.71538   0.16251   0.00000  Uiso   1.00
O860   O     0.21538   0.50000   0.83749   0.00000  Uiso   1.00
O861   O     0.25000   0.50000   0.75000   0.00000  Uiso   1.00
O862   O     0.28461   0.50000   0.16251   0.00000  Uiso   1.00
O863   O     0.20126   0.58332   0.27298   0.00000  Uiso   1.00
O864   O     0.29873   0.91668   0.72702   0.00000  Uiso   1.00
O865   O     0.41668   0.70127   0.27298   0.00000  Uiso   1.00
O866   O     0.08332   0.79874   0.72702   0.00000  Uiso   1.00
O867   O     0.29873   0.91668   0.27298   0.00000  Uiso   1.00
O868   O     0.20126   0.58332   0.72702   0.00000  Uiso   1.00
O869   O     0.08332   0.79874   0.27298   0.00000  Uiso   1.00
O870   O     0.41668   0.70127   0.72702   0.00000  Uiso   1.00
O871   O     0.20126   0.91668   0.72702   0.00000  Uiso   1.00
O872   O     0.00000   0.75000   0.25000   0.00000  Uiso   1.00
O873   O     0.29873   0.58332   0.27298   0.00000  Uiso   1.00
O874   O     0.41668   0.79874   0.72702   0.00000  Uiso   1.00
O875   O     0.08332   0.70127   0.27298   0.00000  Uiso   1.00
O876   O     0.29873   0.58332   0.72702   0.00000  Uiso   1.00
O877   O     0.20126   0.91668   0.27298   0.00000  Uiso   1.00
O878   O     0.08332   0.70127   0.72702   0.00000  Uiso   1.00
O879   O     0.41668   0.79874   0.27298   0.00000  Uiso   1.00
O880   O     0.45126   0.83332   0.77298   0.00000  Uiso   1.00
O881   O     0.04873   0.66668   0.22702   0.00000  Uiso   1.00
O882   O     0.16668   0.95127   0.77298   0.00000  Uiso   1.00
O883   O     0.00000   0.75000   0.75000   0.00000  Uiso   1.00
O884   O     0.33332   0.54874   0.22702   0.00000  Uiso   1.00
O885   O     0.04873   0.66668   0.77298   0.00000  Uiso   1.00
O886   O     0.45126   0.83332   0.22702   0.00000  Uiso   1.00
O887   O     0.33332   0.54874   0.77298   0.00000  Uiso   1.00
O888   O     0.16668   0.95127   0.22702   0.00000  Uiso   1.00
O889   O     0.45126   0.66668   0.22702   0.00000  Uiso   1.00
O890   O     0.04873   0.83332   0.77298   0.00000  Uiso   1.00
O891   O     0.16668   0.54874   0.22702   0.00000  Uiso   1.00
O892   O     0.33332   0.95127   0.77298   0.00000  Uiso   1.00
O893   O     0.04873   0.83332   0.22702   0.00000  Uiso   1.00
O894   O     0.25000   0.96539   0.33749   0.00000  Uiso   1.00
O895   O     0.45126   0.66668   0.77298   0.00000  Uiso   1.00
O896   O     0.33332   0.95127   0.22702   0.00000  Uiso   1.00
O897   O     0.16668   0.54874   0.77298   0.00000  Uiso   1.00
O898   O     0.49946   0.85268   0.36745   0.00000  Uiso   1.00
O899   O     0.04372   0.86418   0.42496   0.00000  Uiso   1.00
O900   O     0.07213   0.81567   0.37122   0.00000  Uiso   1.00
O901   O     0.03865   0.65729   0.63360   0.00000  Uiso   1.00
O902   O     0.07927   0.65658   0.57281   0.00000  Uiso   1.00
O903   O     0.09495   0.71532   0.62176   0.00000  Uiso   1.00
O904   O     0.14744   0.99884   0.36784   0.00000  Uiso   1.00
O905   O     0.25000   0.53462   0.66251   0.00000  Uiso   1.00
O906   O     0.13579   0.54294   0.42560   0.00000  Uiso   1.00
O907   O     0.18396   0.57174   0.37178   0.00000  Uiso   1.00
O908   O     0.34269   0.53941   0.63350   0.00000  Uiso   1.00
O909   O     0.34298   0.58005   0.57281   0.00000  Uiso   1.00
O910   O     0.28414   0.59524   0.62189   0.00000  Uiso   1.00
O911   O     0.00002   0.64741   0.36772   0.00000  Uiso   1.00
O912   O     0.45601   0.63630   0.42564   0.00000  Uiso   1.00
O913   O     0.42751   0.68471   0.37200   0.00000  Uiso   1.00
O914   O     0.41062   0.79121   0.62238   0.00000  Uiso   1.00
O915   O     0.42048   0.84322   0.57214   0.00000  Uiso   1.00
O916   O     0.03461   0.75000   0.33749   0.00000  Uiso   1.00
O917   O     0.46535   0.85069   0.63468   0.00000  Uiso   1.00
O918   O     0.35262   0.50121   0.36738   0.00000  Uiso   1.00
O919   O     0.36428   0.95709   0.42503   0.00000  Uiso   1.00
O920   O     0.31609   0.92832   0.37139   0.00000  Uiso   1.00
O921   O     0.15732   0.96062   0.63383   0.00000  Uiso   1.00
O922   O     0.15702   0.91995   0.57312   0.00000  Uiso   1.00
O923   O     0.21583   0.90474   0.62198   0.00000  Uiso   1.00
O924   O     0.20680   0.61828   0.91794   0.00000  Uiso   1.00
O925   O     0.25471   0.59903   0.86494   0.00000  Uiso   1.00
O926   O     0.17925   0.56786   0.86593   0.00000  Uiso   1.00
O927   O     0.46538   0.75000   0.66251   0.00000  Uiso   1.00
O928   O     0.27807   0.90344   0.13525   0.00000  Uiso   1.00
O929   O     0.32140   0.89821   0.07634   0.00000  Uiso   1.00
O930   O     0.34008   0.95569   0.12525   0.00000  Uiso   1.00
O931   O     0.39802   0.74478   0.86749   0.00000  Uiso   1.00
O932   O     0.38453   0.78836   0.92524   0.00000  Uiso   1.00
O933   O     0.43162   0.81906   0.87144   0.00000  Uiso   1.00
O934   O     0.09063   0.79493   0.13315   0.00000  Uiso   1.00
O935   O     0.08828   0.83535   0.07238   0.00000  Uiso   1.00
O936   O     0.02890   0.84730   0.12163   0.00000  Uiso   1.00
O937   O     0.26908   0.89683   0.86966   0.00000  Uiso   1.00
O938   O     0.25000   0.53462   0.33749   0.00000  Uiso   1.00
O939   O     0.21927   0.88238   0.92276   0.00000  Uiso   1.00
O940   O     0.19298   0.92569   0.86502   0.00000  Uiso   1.00
O941   O     0.25521   0.62176   0.08274   0.00000  Uiso   1.00
O942   O     0.19769   0.59526   0.12373   0.00000  Uiso   1.00
O943   O     0.27465   0.58415   0.14605   0.00000  Uiso   1.00
O944   O     0.10325   0.75744   0.86797   0.00000  Uiso   1.00
O945   O     0.11621   0.71261   0.92492   0.00000  Uiso   1.00
O946   O     0.06990   0.68298   0.87020   0.00000  Uiso   1.00
O947   O     0.40967   0.70566   0.13359   0.00000  Uiso   1.00
O948   O     0.41100   0.66583   0.07242   0.00000  Uiso   1.00
S949   S     0.02930   0.83233   0.39559   0.00000  Uiso   1.00
S950   S     0.30098   0.92803   0.10448   0.00000  Uiso   1.00
S951   S     0.41694   0.77551   0.89571   0.00000  Uiso   1.00
S952   S     0.06240   0.81214   0.10196   0.00000  Uiso   1.00
S953   S     0.23406   0.91474   0.89403   0.00000  Uiso   1.00
S954   S     0.24109   0.58618   0.10838   0.00000  Uiso   1.00
S955   S     0.08410   0.72603   0.89545   0.00000  Uiso   1.00
S956   S     0.43741   0.68851   0.10187   0.00000  Uiso   1.00
S957   S     0.04880   0.63575   0.45843   0.00000  Uiso   1.00
S958   S     0.00795   0.87428   0.54088   0.00000  Uiso   1.00
S959   S     0.36399   0.54982   0.45831   0.00000  Uiso   1.00
S960   S     0.05777   0.68414   0.60224   0.00000  Uiso   1.00
S961   S     0.12621   0.50631   0.54148   0.00000  Uiso   1.00
S962   S     0.45118   0.86462   0.45861   0.00000  Uiso   1.00
S963   S     0.49272   0.62651   0.54131   0.00000  Uiso   1.00
S964   S     0.13613   0.95015   0.45872   0.00000  Uiso   1.00
S965   S     0.37388   0.99370   0.54099   0.00000  Uiso   1.00
S966   S     0.30855   0.88989   0.96157   0.00000  Uiso   1.00
S967   S     0.17651   0.59690   0.02890   0.00000  Uiso   1.00
S968   S     0.11151   0.80581   0.95833   0.00000  Uiso   1.00
S969   S     0.37601   0.75052   0.04113   0.00000  Uiso   1.00
S970   S     0.27733   0.61661   0.97515   0.00000  Uiso   1.00
S971   S     0.16763   0.52876   0.39604   0.00000  Uiso   1.00
S972   S     0.23925   0.87598   0.03688   0.00000  Uiso   1.00
S973   S     0.38912   0.69545   0.95815   0.00000  Uiso   1.00
S974   S     0.12406   0.75038   0.04112   0.00000  Uiso   1.00
S975   S     0.31566   0.55830   0.60223   0.00000  Uiso   1.00
S976   S     0.47038   0.66797   0.39606   0.00000  Uiso   1.00
S977   S     0.44320   0.81780   0.60229   0.00000  Uiso   1.00
S978   S     0.33243   0.97128   0.39563   0.00000  Uiso   1.00
S979   S     0.18434   0.94169   0.60246   0.00000  Uiso   1.00
S980   S     0.22123   0.58300   0.89210   0.00000  Uiso   1.00
Zn981  Zn    0.20052   0.50000   0.21730   0.00000  Uiso   1.00
Zn982  Zn    0.04947   0.75000   0.28270   0.00000  Uiso   1.00
Zn983  Zn    0.25000   0.95053   0.71730   0.00000  Uiso   1.00
Zn984  Zn    0.25000   0.54948   0.28270   0.00000  Uiso   1.00
Zn985  Zn    0.04947   0.75000   0.71730   0.00000  Uiso   1.00
Zn986  Zn    0.45052   0.75000   0.28270   0.00000  Uiso   1.00
Zn987  Zn    0.25000   0.54948   0.71730   0.00000  Uiso   1.00
Zn988  Zn    0.25000   0.95053   0.28270   0.00000  Uiso   1.00
Zn989  Zn    0.29947   0.50000   0.78270   0.00000  Uiso   1.00
Zn990  Zn    0.00000   0.70052   0.21730   0.00000  Uiso   1.00
Zn991  Zn    0.00000   0.79947   0.78270   0.00000  Uiso   1.00
Zn992  Zn    0.29947   0.50000   0.21730   0.00000  Uiso   1.00
Zn993  Zn    0.20052   0.50000   0.78270   0.00000  Uiso   1.00
Zn994  Zn    0.00000   0.79947   0.21730   0.00000  Uiso   1.00
Zn995  Zn    0.00000   0.70052   0.78270   0.00000  Uiso   1.00
Zn996  Zn    0.45052   0.75000   0.71730   0.00000  Uiso   1.00
C997   C     0.75002   0.50001   0.35592   0.00000  Uiso   1.00
C998   C     0.83000   0.91996   0.74999   0.00000  Uiso   1.00
C999   C     0.92488   0.73510   0.01982   0.00000  Uiso   1.00
C1000  C     0.74034   0.57543   0.98165   0.00000  Uiso   1.00
C1001  C     0.76191   0.92376   0.01952   0.00000  Uiso   1.00
C1002  C     0.92592   0.73095   0.97931   0.00000  Uiso   1.00
C1003  C     0.57536   0.76592   0.01982   0.00000  Uiso   1.00
C1004  C     0.91997   0.66997   0.25001   0.00000  Uiso   1.00
C1005  C     0.58004   0.83002   0.75000   0.00000  Uiso   1.00
C1006  C     0.83003   0.91999   0.24999   0.00000  Uiso   1.00
C1007  C     0.66998   0.58004   0.75003   0.00000  Uiso   1.00
C1008  C     0.58000   0.83003   0.25000   0.00000  Uiso   1.00
C1009  C     0.91999   0.66997   0.75001   0.00000  Uiso   1.00
C1010  C     0.66997   0.91997   0.75001   0.00000  Uiso   1.00
C1011  C     0.83003   0.58004   0.24999   0.00000  Uiso   1.00
C1012  C     0.91999   0.83003   0.75002   0.00000  Uiso   1.00
C1013  C     0.75000   0.99999   0.64390   0.00000  Uiso   1.00
C1014  C     0.58000   0.66996   0.24999   0.00000  Uiso   1.00
C1015  C     0.83002   0.58002   0.74998   0.00000  Uiso   1.00
C1016  C     0.66998   0.91998   0.25002   0.00000  Uiso   1.00
C1017  C     0.58004   0.66999   0.75001   0.00000  Uiso   1.00
C1018  C     0.91997   0.83002   0.25001   0.00000  Uiso   1.00
C1019  C     0.63833   0.88833   0.25003   0.00000  Uiso   1.00
C1020  C     0.86166   0.61167   0.74997   0.00000  Uiso   1.00
C1021  C     0.61164   0.63831   0.25000   0.00000  Uiso   1.00
C1022  C     0.88835   0.86167   0.75003   0.00000  Uiso   1.00
C1023  C     0.86167   0.61167   0.24998   0.00000  Uiso   1.00
C1024  C     0.99996   0.75000   0.35591   0.00000  Uiso   1.00
C1025  C     0.63834   0.88833   0.75001   0.00000  Uiso   1.00
C1026  C     0.88833   0.86167   0.25002   0.00000  Uiso   1.00
C1027  C     0.61170   0.63837   0.75003   0.00000  Uiso   1.00
C1028  C     0.63835   0.61168   0.75006   0.00000  Uiso   1.00
C1029  C     0.86168   0.88835   0.25000   0.00000  Uiso   1.00
C1030  C     0.61168   0.86166   0.75000   0.00000  Uiso   1.00
C1031  C     0.88833   0.63834   0.25000   0.00000  Uiso   1.00
C1032  C     0.86164   0.88831   0.74999   0.00000  Uiso   1.00
C1033  C     0.63835   0.61167   0.25004   0.00000  Uiso   1.00
C1034  C     0.88835   0.63832   0.75000   0.00000  Uiso   1.00
C1035  C     0.50004   0.75025   0.64391   0.00000  Uiso   1.00
C1036  C     0.61164   0.86168   0.25000   0.00000  Uiso   1.00
C1037  C     0.50422   0.78846   0.41853   0.00000  Uiso   1.00
C1038  C     0.51788   0.71621   0.58057   0.00000  Uiso   1.00
C1039  C     0.71172   0.50390   0.41870   0.00000  Uiso   1.00
C1040  C     0.78402   0.51810   0.58053   0.00000  Uiso   1.00
C1041  C     0.99569   0.71187   0.41867   0.00000  Uiso   1.00
C1042  C     0.98256   0.78481   0.58062   0.00000  Uiso   1.00
C1043  C     0.78835   0.99614   0.41852   0.00000  Uiso   1.00
C1044  C     0.71603   0.98185   0.58065   0.00000  Uiso   1.00
C1045  C     0.74165   0.53854   0.91844   0.00000  Uiso   1.00
C1046  C     0.50023   0.75003   0.85588   0.00000  Uiso   1.00
C1047  C     0.76502   0.96364   0.08125   0.00000  Uiso   1.00
C1048  C     0.96192   0.75252   0.91851   0.00000  Uiso   1.00
C1049  C     0.53306   0.77011   0.08044   0.00000  Uiso   1.00
C1050  C     0.75172   0.96164   0.91814   0.00000  Uiso   1.00
C1051  C     0.74049   0.53722   0.08212   0.00000  Uiso   1.00
C1052  C     0.53878   0.74841   0.91842   0.00000  Uiso   1.00
C1053  C     0.96699   0.73045   0.08041   0.00000  Uiso   1.00
C1054  C     0.99990   0.75012   0.39824   0.00000  Uiso   1.00
C1055  C     0.50012   0.75045   0.60127   0.00000  Uiso   1.00
C1056  C     0.75003   0.50003   0.39826   0.00000  Uiso   1.00
C1057  C     0.50002   0.75001   0.14386   0.00000  Uiso   1.00
C1058  C     0.75002   0.99997   0.60126   0.00000  Uiso   1.00
C1059  C     0.74865   0.50034   0.89825   0.00000  Uiso   1.00
C1060  C     0.75128   0.99975   0.10176   0.00000  Uiso   1.00
C1061  C     0.50033   0.75020   0.89816   0.00000  Uiso   1.00
C1062  C     0.50006   0.75012   0.10115   0.00000  Uiso   1.00
C1063  C     0.50465   0.71183   0.45881   0.00000  Uiso   1.00
C1064  C     0.99146   0.78798   0.54051   0.00000  Uiso   1.00
C1065  C     0.78838   0.50498   0.45872   0.00000  Uiso   1.00
C1066  C     0.71262   0.99068   0.54059   0.00000  Uiso   1.00
C1067  C     0.99549   0.78865   0.45875   0.00000  Uiso   1.00
C1068  C     0.74975   0.50024   0.85589   0.00000  Uiso   1.00
C1069  C     0.50907   0.71285   0.54053   0.00000  Uiso   1.00
C1070  C     0.71170   0.99503   0.45887   0.00000  Uiso   1.00
C1071  C     0.78745   0.50927   0.54045   0.00000  Uiso   1.00
C1072  C     0.75791   0.96201   0.95872   0.00000  Uiso   1.00
C1073  C     0.73793   0.53643   0.04113   0.00000  Uiso   1.00
C1074  C     0.53833   0.75727   0.95863   0.00000  Uiso   1.00
C1075  C     0.96317   0.73935   0.04038   0.00000  Uiso   1.00
C1076  C     0.74404   0.53835   0.95944   0.00000  Uiso   1.00
C1077  C     0.75834   0.96168   0.04081   0.00000  Uiso   1.00
C1078  C     0.96223   0.74384   0.95868   0.00000  Uiso   1.00
C1079  C     0.75025   0.99895   0.14411   0.00000  Uiso   1.00
C1080  C     0.53699   0.76150   0.04037   0.00000  Uiso   1.00
C1081  C     0.50013   0.75028   0.47924   0.00000  Uiso   1.00
C1082  C     0.50022   0.75037   0.52004   0.00000  Uiso   1.00
C1083  C     0.75004   0.50000   0.47925   0.00000  Uiso   1.00
C1084  C     0.75004   0.99998   0.52004   0.00000  Uiso   1.00
C1085  C     0.74984   0.99969   0.97945   0.00000  Uiso   1.00
C1086  C     0.74930   0.99934   0.02059   0.00000  Uiso   1.00
C1087  C     0.50023   0.75053   0.97911   0.00000  Uiso   1.00
C1088  C     0.50013   0.75047   0.01990   0.00000  Uiso   1.00
C1089  C     0.51553   0.67487   0.47949   0.00000  Uiso   1.00
C1090  C     0.66999   0.58002   0.25002   0.00000  Uiso   1.00
C1091  C     0.98934   0.82647   0.51987   0.00000  Uiso   1.00
C1092  C     0.82525   0.51615   0.47934   0.00000  Uiso   1.00
C1093  C     0.67412   0.98820   0.52013   0.00000  Uiso   1.00
C1094  C     0.98473   0.82569   0.47942   0.00000  Uiso   1.00
C1095  C     0.51119   0.67427   0.52000   0.00000  Uiso   1.00
C1096  C     0.67484   0.98383   0.47963   0.00000  Uiso   1.00
C1097  C     0.82595   0.51176   0.51984   0.00000  Uiso   1.00
C1098  C     0.76998   0.92564   0.97971   0.00000  Uiso   1.00
C1099  C     0.72537   0.57182   0.01939   0.00000  Uiso   1.00
C1100  C     0.57454   0.77022   0.97931   0.00000  Uiso   1.00
H1101  H     0.58184   0.84052   0.35629   0.00000  Uiso   1.00
H1102  H     0.85533   0.93509   0.14163   0.00000  Uiso   1.00
H1103  H     0.90629   0.82783   0.85678   0.00000  Uiso   1.00
H1104  H     0.54683   0.86636   0.13726   0.00000  Uiso   1.00
H1105  H     0.68791   0.89944   0.85017   0.00000  Uiso   1.00
H1106  H     0.76911   0.61014   0.16116   0.00000  Uiso   1.00
H1107  H     0.59547   0.67461   0.85556   0.00000  Uiso   1.00
H1108  H     0.95290   0.63384   0.13648   0.00000  Uiso   1.00
H1109  H     0.54403   0.56969   0.44371   0.00000  Uiso   1.00
H1110  H     0.98194   0.93501   0.55633   0.00000  Uiso   1.00
H1111  H     0.93001   0.54563   0.44333   0.00000  Uiso   1.00
H1112  H     0.61277   0.69619   0.63743   0.00000  Uiso   1.00
H1113  H     0.56522   0.98007   0.55547   0.00000  Uiso   1.00
H1114  H     0.95562   0.93056   0.44341   0.00000  Uiso   1.00
H1115  H     0.51844   0.56520   0.55496   0.00000  Uiso   1.00
H1116  H     0.57017   0.95435   0.44379   0.00000  Uiso   1.00
H1117  H     0.93482   0.52001   0.55483   0.00000  Uiso   1.00
H1118  H     0.81010   0.82522   0.94188   0.00000  Uiso   1.00
H1119  H     0.64320   0.54142   0.04841   0.00000  Uiso   1.00
H1120  H     0.67690   0.80428   0.94082   0.00000  Uiso   1.00
H1121  H     0.81610   0.72113   0.05376   0.00000  Uiso   1.00
H1122  H     0.82320   0.58812   0.01322   0.00000  Uiso   1.00
H1123  H     0.65905   0.58133   0.35694   0.00000  Uiso   1.00
H1124  H     0.76026   0.81219   0.04751   0.00000  Uiso   1.00
H1125  H     0.82609   0.69975   0.93488   0.00000  Uiso   1.00
H1126  H     0.68244   0.78015   0.05791   0.00000  Uiso   1.00
H1127  H     0.80308   0.61324   0.63758   0.00000  Uiso   1.00
H1128  H     0.91765   0.65985   0.35717   0.00000  Uiso   1.00
H1129  H     0.96479   0.83547   0.65976   0.00000  Uiso   1.00
H1130  H     0.84100   0.91873   0.35643   0.00000  Uiso   1.00
H1131  H     0.69687   0.88676   0.63773   0.00000  Uiso   1.00
H1132  H     0.67252   0.59233   0.84920   0.00000  Uiso   1.00
O1133  O     0.75000   0.50000   0.25000   0.00000  Uiso   1.00
O1134  O     0.75000   0.96539   0.66251   0.00000  Uiso   1.00
O1135  O     0.97083   0.65292   0.12081   0.00000  Uiso   1.00
O1136  O     0.56654   0.65059   0.42035   0.00000  Uiso   1.00
O1137  O     0.58482   0.62754   0.48564   0.00000  Uiso   1.00
O1138  O     0.52238   0.59040   0.45183   0.00000  Uiso   1.00
O1139  O     0.52982   0.86585   0.57873   0.00000  Uiso   1.00
O1140  O     0.53900   0.89398   0.51336   0.00000  Uiso   1.00
O1141  O     0.96821   0.90847   0.54807   0.00000  Uiso   1.00
O1142  O     0.84893   0.56752   0.42035   0.00000  Uiso   1.00
O1143  O     0.87186   0.58588   0.48566   0.00000  Uiso   1.00
O1144  O     0.90955   0.52379   0.45148   0.00000  Uiso   1.00
O1145  O     0.96538   0.75000   0.33749   0.00000  Uiso   1.00
O1146  O     0.63425   0.52682   0.58008   0.00000  Uiso   1.00
O1147  O     0.60689   0.53839   0.51481   0.00000  Uiso   1.00
O1148  O     0.59185   0.96648   0.54715   0.00000  Uiso   1.00
O1149  O     0.93313   0.84949   0.42081   0.00000  Uiso   1.00
O1150  O     0.91540   0.87291   0.48622   0.00000  Uiso   1.00
O1151  O     0.97739   0.91001   0.45147   0.00000  Uiso   1.00
O1152  O     0.97234   0.63477   0.57999   0.00000  Uiso   1.00
O1153  O     0.96047   0.60749   0.51469   0.00000  Uiso   1.00
O1154  O     0.53224   0.59175   0.54679   0.00000  Uiso   1.00
O1155  O     0.65120   0.93248   0.42066   0.00000  Uiso   1.00
O1156  O     0.53461   0.75000   0.66251   0.00000  Uiso   1.00
O1157  O     0.62828   0.91407   0.48604   0.00000  Uiso   1.00
O1158  O     0.59055   0.97616   0.45210   0.00000  Uiso   1.00
O1159  O     0.86583   0.97319   0.57961   0.00000  Uiso   1.00
O1160  O     0.89326   0.96165   0.51423   0.00000  Uiso   1.00
O1161  O     0.90820   0.53356   0.54658   0.00000  Uiso   1.00
O1162  O     0.82955   0.90740   0.92593   0.00000  Uiso   1.00
O1163  O     0.84153   0.88332   0.99221   0.00000  Uiso   1.00
O1164  O     0.78660   0.84296   0.95139   0.00000  Uiso   1.00
O1165  O     0.68367   0.64052   0.04444   0.00000  Uiso   1.00
O1166  O     0.65186   0.60047   0.99183   0.00000  Uiso   1.00
O1167  O     0.50000   0.71538   0.83749   0.00000  Uiso   1.00
O1168  O     0.64813   0.56898   0.06113   0.00000  Uiso   1.00
O1169  O     0.59525   0.82318   0.92066   0.00000  Uiso   1.00
O1170  O     0.61803   0.84192   0.98591   0.00000  Uiso   1.00
O1171  O     0.65810   0.78189   0.95088   0.00000  Uiso   1.00
O1172  O     0.88273   0.77046   0.08020   0.00000  Uiso   1.00
O1173  O     0.85547   0.78231   0.01494   0.00000  Uiso   1.00
O1174  O     0.84350   0.70898   0.04570   0.00000  Uiso   1.00
O1175  O     0.80245   0.61112   0.93847   0.00000  Uiso   1.00
O1176  O     0.75485   0.65829   0.97427   0.00000  Uiso   1.00
O1177  O     0.81039   0.61660   0.01318   0.00000  Uiso   1.00
O1178  O     0.50000   0.78461   0.16251   0.00000  Uiso   1.00
O1179  O     0.71755   0.88255   0.07522   0.00000  Uiso   1.00
O1180  O     0.70724   0.86140   0.00777   0.00000  Uiso   1.00
O1181  O     0.77610   0.83820   0.04126   0.00000  Uiso   1.00
O1182  O     0.90521   0.67885   0.92003   0.00000  Uiso   1.00
O1183  O     0.88326   0.65883   0.98521   0.00000  Uiso   1.00
O1184  O     0.84228   0.71915   0.95170   0.00000  Uiso   1.00
O1185  O     0.61679   0.72886   0.07940   0.00000  Uiso   1.00
O1186  O     0.64556   0.71994   0.01413   0.00000  Uiso   1.00
O1187  O     0.65592   0.79208   0.04754   0.00000  Uiso   1.00
O1188  O     0.78461   0.50000   0.83749   0.00000  Uiso   1.00
O1189  O     0.71538   0.50000   0.16251   0.00000  Uiso   1.00
O1190  O     0.50000   0.78461   0.83749   0.00000  Uiso   1.00
O1191  O     0.50000   0.71538   0.16251   0.00000  Uiso   1.00
O1192  O     0.71538   0.50000   0.83749   0.00000  Uiso   1.00
O1193  O     0.75000   0.50000   0.75000   0.00000  Uiso   1.00
O1194  O     0.78461   0.50000   0.16251   0.00000  Uiso   1.00
O1195  O     0.70126   0.58332   0.27298   0.00000  Uiso   1.00
O1196  O     0.79873   0.91668   0.72702   0.00000  Uiso   1.00
O1197  O     0.91668   0.70127   0.27298   0.00000  Uiso   1.00
O1198  O     0.58332   0.79874   0.72702   0.00000  Uiso   1.00
O1199  O     0.79873   0.91668   0.27298   0.00000  Uiso   1.00
O1200  O     0.70126   0.58332   0.72702   0.00000  Uiso   1.00
O1201  O     0.58332   0.79874   0.27298   0.00000  Uiso   1.00
O1202  O     0.91668   0.70127   0.72702   0.00000  Uiso   1.00
O1203  O     0.70126   0.91668   0.72702   0.00000  Uiso   1.00
O1204  O     0.50000   0.75000   0.25000   0.00000  Uiso   1.00
O1205  O     0.79873   0.58332   0.27298   0.00000  Uiso   1.00
O1206  O     0.91668   0.79874   0.72702   0.00000  Uiso   1.00
O1207  O     0.58332   0.70127   0.27298   0.00000  Uiso   1.00
O1208  O     0.79873   0.58332   0.72702   0.00000  Uiso   1.00
O1209  O     0.70126   0.91668   0.27298   0.00000  Uiso   1.00
O1210  O     0.58332   0.70127   0.72702   0.00000  Uiso   1.00
O1211  O     0.91668   0.79874   0.27298   0.00000  Uiso   1.00
O1212  O     0.95126   0.83332   0.77298   0.00000  Uiso   1.00
O1213  O     0.54873   0.66668   0.22702   0.00000  Uiso   1.00
O1214  O     0.66668   0.95127   0.77298   0.00000  Uiso   1.00
O1215  O     0.50000   0.75000   0.75000   0.00000  Uiso   1.00
O1216  O     0.83332   0.54874   0.22702   0.00000  Uiso   1.00
O1217  O     0.54873   0.66668   0.77298   0.00000  Uiso   1.00
O1218  O     0.95126   0.83332   0.22702   0.00000  Uiso   1.00
O1219  O     0.83332   0.54874   0.77298   0.00000  Uiso   1.00
O1220  O     0.66668   0.95127   0.22702   0.00000  Uiso   1.00
O1221  O     0.95126   0.66668   0.22702   0.00000  Uiso   1.00
O1222  O     0.54873   0.83332   0.77298   0.00000  Uiso   1.00
O1223  O     0.66668   0.54874   0.22702   0.00000  Uiso   1.00
O1224  O     0.83332   0.95127   0.77298   0.00000  Uiso   1.00
O1225  O     0.54873   0.83332   0.22702   0.00000  Uiso   1.00
O1226  O     0.75000   0.96539   0.33749   0.00000  Uiso   1.00
O1227  O     0.95126   0.66668   0.77298   0.00000  Uiso   1.00
O1228  O     0.83332   0.95127   0.22702   0.00000  Uiso   1.00
O1229  O     0.66668   0.54874   0.77298   0.00000  Uiso   1.00
O1230  O     0.99946   0.85268   0.36745   0.00000  Uiso   1.00
O1231  O     0.54372   0.86418   0.42496   0.00000  Uiso   1.00
O1232  O     0.57213   0.81567   0.37122   0.00000  Uiso   1.00
O1233  O     0.53865   0.65729   0.63360   0.00000  Uiso   1.00
O1234  O     0.57927   0.65658   0.57281   0.00000  Uiso   1.00
O1235  O     0.59495   0.71532   0.62176   0.00000  Uiso   1.00
O1236  O     0.64744   0.99884   0.36784   0.00000  Uiso   1.00
O1237  O     0.75000   0.53462   0.66251   0.00000  Uiso   1.00
O1238  O     0.63579   0.54294   0.42560   0.00000  Uiso   1.00
O1239  O     0.68396   0.57174   0.37178   0.00000  Uiso   1.00
O1240  O     0.84269   0.53941   0.63350   0.00000  Uiso   1.00
O1241  O     0.84298   0.58005   0.57281   0.00000  Uiso   1.00
O1242  O     0.78414   0.59524   0.62189   0.00000  Uiso   1.00
O1243  O     0.50002   0.64741   0.36772   0.00000  Uiso   1.00
O1244  O     0.95601   0.63630   0.42564   0.00000  Uiso   1.00
O1245  O     0.92751   0.68471   0.37200   0.00000  Uiso   1.00
O1246  O     0.91062   0.79121   0.62238   0.00000  Uiso   1.00
O1247  O     0.92048   0.84322   0.57214   0.00000  Uiso   1.00
O1248  O     0.53461   0.75000   0.33749   0.00000  Uiso   1.00
O1249  O     0.96535   0.85069   0.63468   0.00000  Uiso   1.00
O1250  O     0.85262   0.50121   0.36738   0.00000  Uiso   1.00
O1251  O     0.86428   0.95709   0.42503   0.00000  Uiso   1.00
O1252  O     0.81609   0.92832   0.37139   0.00000  Uiso   1.00
O1253  O     0.65732   0.96062   0.63383   0.00000  Uiso   1.00
O1254  O     0.65702   0.91995   0.57312   0.00000  Uiso   1.00
O1255  O     0.71583   0.90474   0.62198   0.00000  Uiso   1.00
O1256  O     0.70680   0.61828   0.91794   0.00000  Uiso   1.00
O1257  O     0.75471   0.59903   0.86494   0.00000  Uiso   1.00
O1258  O     0.67925   0.56786   0.86593   0.00000  Uiso   1.00
O1259  O     0.96538   0.75000   0.66251   0.00000  Uiso   1.00
O1260  O     0.77807   0.90344   0.13525   0.00000  Uiso   1.00
O1261  O     0.82140   0.89821   0.07634   0.00000  Uiso   1.00
O1262  O     0.84008   0.95569   0.12525   0.00000  Uiso   1.00
O1263  O     0.89802   0.74478   0.86749   0.00000  Uiso   1.00
O1264  O     0.88453   0.78836   0.92524   0.00000  Uiso   1.00
O1265  O     0.93162   0.81906   0.87144   0.00000  Uiso   1.00
O1266  O     0.59063   0.79493   0.13315   0.00000  Uiso   1.00
O1267  O     0.58828   0.83535   0.07238   0.00000  Uiso   1.00
O1268  O     0.52890   0.84730   0.12163   0.00000  Uiso   1.00
O1269  O     0.76908   0.89683   0.86966   0.00000  Uiso   1.00
O1270  O     0.75000   0.53462   0.33749   0.00000  Uiso   1.00
O1271  O     0.71927   0.88238   0.92276   0.00000  Uiso   1.00
O1272  O     0.69298   0.92569   0.86502   0.00000  Uiso   1.00
O1273  O     0.75521   0.62176   0.08274   0.00000  Uiso   1.00
O1274  O     0.69769   0.59526   0.12373   0.00000  Uiso   1.00
O1275  O     0.77465   0.58415   0.14605   0.00000  Uiso   1.00
O1276  O     0.60325   0.75744   0.86797   0.00000  Uiso   1.00
O1277  O     0.61621   0.71261   0.92492   0.00000  Uiso   1.00
O1278  O     0.56990   0.68298   0.87020   0.00000  Uiso   1.00
O1279  O     0.90967   0.70566   0.13359   0.00000  Uiso   1.00
O1280  O     0.91100   0.66583   0.07242   0.00000  Uiso   1.00
S1281  S     0.52930   0.83233   0.39559   0.00000  Uiso   1.00
S1282  S     0.80098   0.92803   0.10448   0.00000  Uiso   1.00
S1283  S     0.91694   0.77551   0.89571   0.00000  Uiso   1.00
S1284  S     0.56240   0.81214   0.10196   0.00000  Uiso   1.00
S1285  S     0.73406   0.91474   0.89403   0.00000  Uiso   1.00
S1286  S     0.74109   0.58618   0.10838   0.00000  Uiso   1.00
S1287  S     0.58410   0.72603   0.89545   0.00000  Uiso   1.00
S1288  S     0.93741   0.68851   0.10187   0.00000  Uiso   1.00
S1289  S     0.54880   0.63575   0.45843   0.00000  Uiso   1.00
S1290  S     0.50795   0.87428   0.54088   0.00000  Uiso   1.00
S1291  S     0.86399   0.54982   0.45831   0.00000  Uiso   1.00
S1292  S     0.55777   0.68414   0.60224   0.00000  Uiso   1.00
S1293  S     0.62621   0.50631   0.54148   0.00000  Uiso   1.00
S1294  S     0.95118   0.86462   0.45861   0.00000  Uiso   1.00
S1295  S     0.99272   0.62651   0.54131   0.00000  Uiso   1.00
S1296  S     0.63613   0.95015   0.45872   0.00000  Uiso   1.00
S1297  S     0.87388   0.99370   0.54099   0.00000  Uiso   1.00
S1298  S     0.80855   0.88989   0.96157   0.00000  Uiso   1.00
S1299  S     0.67651   0.59690   0.02890   0.00000  Uiso   1.00
S1300  S     0.61151   0.80581   0.95833   0.00000  Uiso   1.00
S1301  S     0.87601   0.75052   0.04113   0.00000  Uiso   1.00
S1302  S     0.77733   0.61661   0.97515   0.00000  Uiso   1.00
S1303  S     0.66763   0.52876   0.39604   0.00000  Uiso   1.00
S1304  S     0.73925   0.87598   0.03688   0.00000  Uiso   1.00
S1305  S     0.88912   0.69545   0.95815   0.00000  Uiso   1.00
S1306  S     0.62406   0.75038   0.04112   0.00000  Uiso   1.00
S1307  S     0.81566   0.55830   0.60223   0.00000  Uiso   1.00
S1308  S     0.97038   0.66797   0.39606   0.00000  Uiso   1.00
S1309  S     0.94320   0.81780   0.60229   0.00000  Uiso   1.00
S1310  S     0.83243   0.97128   0.39563   0.00000  Uiso   1.00
S1311  S     0.68434   0.94169   0.60246   0.00000  Uiso   1.00
S1312  S     0.72123   0.58300   0.89210   0.00000  Uiso   1.00
Zn1313 Zn    0.70052   0.50000   0.21730   0.00000  Uiso   1.00
Zn1314 Zn    0.54947   0.75000   0.28270   0.00000  Uiso   1.00
Zn1315 Zn    0.75000   0.95053   0.71730   0.00000  Uiso   1.00
Zn1316 Zn    0.75000   0.54948   0.28270   0.00000  Uiso   1.00
Zn1317 Zn    0.54947   0.75000   0.71730   0.00000  Uiso   1.00
Zn1318 Zn    0.95052   0.75000   0.28270   0.00000  Uiso   1.00
Zn1319 Zn    0.75000   0.54948   0.71730   0.00000  Uiso   1.00
Zn1320 Zn    0.75000   0.95053   0.28270   0.00000  Uiso   1.00
Zn1321 Zn    0.79947   0.50000   0.78270   0.00000  Uiso   1.00
Zn1322 Zn    0.50000   0.70052   0.21730   0.00000  Uiso   1.00
Zn1323 Zn    0.50000   0.79947   0.78270   0.00000  Uiso   1.00
Zn1324 Zn    0.79947   0.50000   0.21730   0.00000  Uiso   1.00
Zn1325 Zn    0.70052   0.50000   0.78270   0.00000  Uiso   1.00
Zn1326 Zn    0.50000   0.79947   0.21730   0.00000  Uiso   1.00
Zn1327 Zn    0.50000   0.70052   0.78270   0.00000  Uiso   1.00
Zn1328 Zn    0.95052   0.75000   0.71730   0.00000  Uiso   1.00
loop_
_geom_bond_atom_site_label_1
_geom_bond_atom_site_label_2
_geom_bond_distance
_geom_bond_site_symmetry_2
_ccdc_geom_bond_type
C1     C60     1.459   .     S
C1     O274    1.269   .     A
C1     O894    1.269   1_545 S
C2     O228    1.275   .     A
C2     O200    1.275   .     A
C2     C36     1.420   .     S
C3     C79     1.415   .     A
C3     S305    1.783   .     S
C3     C6      1.402   1_554 S
C4     S306    1.771   .     S
C4     C80     1.408   .     A
C4     C103    1.388   1_556 S
C5     S308    1.782   .     S
C5     C81     1.413   .     A
C5     C102    1.396   1_554 S
C6     S309    1.780   .     S
C6     C82     1.414   .     A
C6     C3      1.402   1_556 S
C7     S310    1.782   .     S
C7     C84     1.415   .     A
C7     C104    1.403   1_554 S
C8     C35     1.420   .     S
C8     O201    1.274   .     A
C8     O225    1.273   .     A
C9     O226    1.274   .     A
C9     C34     1.421   .     S
C9     O202    1.274   .     A
C10    O232    1.274   .     A
C10    C33     1.420   .     S
C10    O203    1.274   .     A
C11    O204    1.274   .     A
C11    O233    1.274   .     A
C11    C32     1.420   .     S
C12    C40     1.421   .     S
C12    O205    1.275   .     A
C12    O229    1.275   .     A
C13    O206    1.275   .     A
C13    C38     1.421   .     S
C13    O231    1.276   .     A
C14    O218    1.274   .     A
C14    C29     1.420   .     S
C14    O207    1.273   .     A
C15    C27     1.421   .     S
C15    O209    1.274   .     A
C15    O220    1.274   .     A
C16    O216    1.275   .     A
C16    C26     1.420   .     S
C16    O210    1.275   .     A
C17    C62     1.469   .     S
C17    O138    1.272   .     A
C17    O905    1.272   .     S
C18    C25     1.420   .     S
C18    O211    1.275   .     A
C18    O217    1.275   .     A
C19    O212    1.275   .     A
C19    O223    1.275   .     A
C19    C24     1.421   .     S
C20    O224    1.275   .     A
C20    C23     1.421   .     S
C20    O213    1.275   .     A
C21    O221    1.274   .     A
C21    C31     1.420   .     S
C21    O214    1.274   .     A
C22    O215    1.274   .     A
C22    C30     1.420   .     S
C22    O222    1.274   .     A
C23    C40     1.198   .     T
C24    C38     1.198   .     T
C25    C37     1.197   .     T
C26    C36     1.197   .     T
C27    C35     1.197   .     T
C28    C58     1.459   .     S
C28    O149    1.269   .     A
C28    O584    1.269   .     S
C29    C34     1.197   .     T
C30    C33     1.197   .     T
C31    C32     1.197   .     T
C37    C94     1.420   .     S
C39    O160    1.273   .     A
C39    C59     1.469   .     S
C39    O595    1.272   1_455 S
C41    S285    1.788   .     S
C41    C390    1.410   1_455 S
C41    C403    1.412   1_455 S
C42    S296    1.789   .     S
C42    C73     1.412   .     A
C42    C59     1.416   .     A
C43    S307    1.788   .     S
C43    C60     1.409   .     A
C43    C738    1.413   1_545 S
C44    S311    1.789   .     S
C44    C75     1.413   .     A
C44    C726    1.415   1_545 S
C45    C58     1.410   .     A
C45    S312    1.788   .     S
C45    C399    1.413   .     S
C46    C68     1.413   .     A
C46    S313    1.791   .     S
C46    C391    1.417   .     S
C47    S314    1.788   .     S
C47    C724    1.410   .     S
C47    C733    1.413   .     S
C48    S315    1.789   .     S
C48    C70     1.413   .     A
C48    C62     1.415   .     A
C49    C80     1.415   .     A
C49    C63     1.414   .     A
C49    S316    1.799   .     S
C50    O171    1.269   .     A
C50    C65     1.457   .     S
C50    O194    1.267   .     A
C51    C64     1.414   .     A
C51    S286    1.796   .     S
C51    C81     1.411   .     A
C52    S287    1.787   .     S
C52    C82     1.411   .     A
C52    C397    1.407   .     S
C53    S288    1.789   .     S
C53    C84     1.412   .     A
C53    C66     1.417   .     A
C54    S289    1.795   .     S
C54    C76     1.413   .     A
C54    C727    1.410   .     S
C55    S290    1.798   .     S
C55    C77     1.415   .     A
C55    C728    1.411   1_545 S
C56    S291    1.787   .     S
C56    C78     1.413   .     A
C56    C65     1.409   .     A
C57    S292    1.789   .     S
C57    C79     1.413   .     A
C57    C398    1.416   .     S
C58    C373    1.410   .     S
C59    C378    1.417   1_455 S
C60    C711    1.410   1_545 S
C61    O182    1.272   .     A
C61    O195    1.273   .     A
C61    C66     1.471   .     S
C62    C708    1.415   .     S
C63    C72     1.460   .     S
C63    C718    1.410   1_545 S
C64    C83     1.459   .     S
C64    C719    1.411   .     S
C65    C384    1.407   1_455 S
C66    C389    1.416   1_455 S
C67    C85     1.415   .     A
C67    C93     1.416   .     A
C67    C377    1.413   1_455 S
C68    C95     1.415   .     A
C68    C418    1.413   .     S
C69    C96     1.416   .     A
C69    C711    1.413   1_545 S
C69    C87     1.416   .     S
C70    C97     1.415   .     A
C70    C88     1.413   .     A
C71    C98     1.415   .     A
C71    C373    1.412   .     S
C71    C417    1.415   .     S
C72    O196    1.263   .     A
C72    O192    1.275   .     A
C73    C86     1.413   .     A
C73    C99     1.415   .     A
C74    C100    1.416   .     A
C74    C751    1.416   .     A
C74    C707    1.413   .     S
C75    C101    1.415   .     A
C75    C752    1.413   1_545 S
C76    C89     1.415   .     A
C76    C102    1.415   .     A
C77    C103    1.408   .     A
C77    C754    1.419   1_545 S
C78    C104    1.415   .     A
C78    C91     1.415   .     A
C79    C424    1.413   .     S
C80    C753    1.419   1_545 S
C81    C90     1.413   .     A
C82    C423    1.414   .     S
C83    O857    1.275   .     S
C83    O862    1.264   .     S
C84    C92     1.412   .     A
C85    C86     1.406   .     A
C85    C403    1.415   1_455 S
C86    C400    1.413   1_455 S
C87    C738    1.416   1_545 A
C87    C752    1.405   1_545 A
C88    C751    1.405   .     A
C88    C739    1.413   .     S
C89    C744    1.419   .     S
C89    C90     1.418   1_556 S
C90    C741    1.419   .     S
C90    C89     1.418   1_554 S
C91    C414    1.414   1_455 S
C91    C92     1.405   1_556 S
C92    C411    1.413   1_455 S
C92    C91     1.405   1_554 S
C93    S293    1.783   .     S
C93    C99     1.402   .     A
C94    O199    1.275   .     A
C94    O227    1.275   .     A
C95    C98     1.402   .     A
C95    S626    1.782   .     S
C96    C101    1.402   .     A
C96    S295    1.783   .     S
C97    C100    1.402   .     A
C97    S961    1.783   .     S
C98    S298    1.783   .     S
C99    S631    1.783   1_455 S
C100   S300    1.783   .     S
C101   S965    1.783   1_545 S
C102   S302    1.781   .     S
C102   C5      1.396   1_556 S
C103   S303    1.773   .     S
C103   C4      1.388   1_554 S
C104   S304    1.782   .     S
C104   C7      1.403   1_556 S
H105   O236    0.991   .     S
H106   O266    0.991   .     S
H107   O269    0.991   .     S
H108   O272    0.991   .     S
H109   O276    0.991   .     S
H110   O279    0.991   .     S
H111   O282    0.991   .     S
H112   O139    0.991   .     S
H113   O142    0.991   .     S
H114   O145    0.991   .     S
H115   O148    0.991   .     S
H116   O239    0.991   .     S
H117   O152    0.991   .     S
H118   O155    0.991   .     S
H119   O158    0.991   .     S
H120   O162    0.991   .     S
H121   O165    0.991   .     S
H122   O168    0.990   .     S
H123   O172    0.991   .     S
H124   O175    0.990   .     S
H125   O178    0.990   .     S
H126   O181    0.991   .     S
H127   O243    0.991   .     S
H128   O185    0.990   .     S
H129   O188    0.990   .     S
H130   O191    0.990   .     S
H131   O246    0.991   .     S
H132   O249    0.991   .     S
H133   O253    0.990   .     S
H134   O256    0.991   .     S
H135   O259    0.991   .     S
H136   O262    0.991   .     S
O137   Zn320   1.932   .     S
O137   Zn328   1.931   .     S
O137   Zn317   1.935   .     S
O137   Zn988   1.933   1_545 S
O138   Zn319   1.946   .     S
O139   S292    1.682   .     S
O140   S293    1.503   .     D
O141   S293    1.503   .     D
O142   S293    1.682   .     S
O143   S294    1.503   .     D
O144   S294    1.503   .     D
O145   S626    1.681   .     S
O146   S295    1.503   .     D
O147   S295    1.503   .     D
O148   S295    1.682   .     S
O149   Zn322   1.947   .     S
O150   S297    1.503   .     D
O151   S297    1.503   .     D
O152   S961    1.681   .     S
O153   S298    1.503   .     D
O154   S298    1.503   .     D
O155   S298    1.682   .     S
O156   S299    1.503   .     D
O157   S299    1.503   .     D
O158   S631    1.681   1_455 S
O159   S300    1.503   .     D
O160   Zn321   1.947   .     S
O161   S300    1.503   .     D
O162   S300    1.682   .     S
O163   S301    1.503   .     D
O164   S301    1.503   .     D
O165   S965    1.681   1_545 S
O166   S302    1.503   .     D
O167   S302    1.503   .     D
O168   S302    1.681   .     S
O169   S303    1.502   .     D
O170   S303    1.504   1_556 S
O171   Zn331   1.945   .     S
O172   S303    1.682   .     S
O173   S304    1.503   .     D
O174   S304    1.503   .     D
O175   S304    1.681   .     S
O176   S305    1.503   .     D
O177   S305    1.503   .     D
O178   S305    1.682   .     S
O179   S306    1.503   .     D
O180   S306    1.503   .     D
O181   S306    1.681   1_554 S
O182   Zn330   1.945   .     S
O183   S308    1.503   .     D
O184   S308    1.503   .     D
O185   S308    1.682   .     S
O186   S309    1.503   .     D
O187   S309    1.502   .     D
O188   S309    1.682   .     S
O189   S310    1.503   .     D
O190   S310    1.503   .     D
O191   S310    1.681   .     S
O192   Zn325   1.945   .     S
O193   Zn317   1.945   .     S
O193   C747    1.275   1_545 S
O194   Zn327   1.946   .     S
O195   Zn326   1.946   .     S
O196   Zn329   1.947   .     S
O197   Zn329   1.931   .     S
O197   Zn325   1.935   .     S
O197   Zn323   1.933   .     S
O197   Zn983   1.932   1_545 S
O198   Zn328   1.947   .     S
O198   C747    1.264   1_545 S
O199   Zn320   1.913   .     S
O200   Zn319   1.913   .     S
O201   Zn322   1.913   .     S
O202   Zn321   1.913   .     S
O203   Zn324   1.912   .     S
O204   Zn323   1.912   .     S
O205   Zn318   1.913   .     S
O206   Zn332   1.913   .     S
O207   Zn319   1.913   .     S
O208   Zn330   1.933   .     S
O208   Zn326   1.932   .     S
O208   Zn318   1.935   .     S
O208   Zn654   1.931   1_455 S
O209   Zn320   1.913   .     S
O210   Zn332   1.912   .     S
O211   Zn318   1.912   .     S
O212   Zn323   1.914   .     S
O213   Zn324   1.914   .     S
O214   Zn321   1.913   .     S
O215   Zn322   1.913   .     S
O216   Zn659   1.913   .     S
O217   Zn326   1.913   .     S
O218   Zn993   1.913   .     S
O219   Zn321   1.931   .     S
O219   Zn331   1.933   .     S
O219   Zn327   1.932   .     S
O219   Zn664   1.935   1_455 S
O220   Zn328   1.913   .     S
O221   Zn331   1.912   .     S
O222   Zn662   1.912   .     S
O223   Zn325   1.913   .     S
O224   Zn981   1.913   .     S
O225   Zn658   1.913   .     S
O226   Zn327   1.913   .     S
O227   Zn317   1.912   .     S
O228   Zn989   1.912   .     S
O229   Zn330   1.914   .     S
O230   Zn324   1.945   .     S
O230   C665    1.269   .     S
O231   Zn663   1.914   .     S
O232   Zn992   1.913   .     S
O233   Zn329   1.913   .     S
O234   S617    1.503   .     S
O235   S285    1.502   .     D
O236   S285    1.681   .     S
O237   S296    1.503   .     D
O238   S296    1.501   .     D
O239   S296    1.682   .     S
O240   S971    1.503   .     S
O241   Zn323   1.945   .     S
O241   C681    1.272   1_545 S
O242   S307    1.502   .     D
O243   S307    1.681   .     S
O244   S311    1.503   .     D
O245   S311    1.501   .     D
O246   S311    1.682   .     S
O247   S644    1.503   1_455 S
O248   S312    1.502   .     D
O249   S312    1.681   .     S
O250   S313    1.503   .     D
O251   S313    1.501   .     D
O252   Zn318   1.945   .     S
O252   C360    1.269   1_455 S
O253   S313    1.683   .     S
O254   S978    1.503   1_545 S
O255   S314    1.502   .     D
O256   S314    1.681   .     S
O257   S315    1.503   .     D
O258   S315    1.501   .     D
O259   S315    1.682   .     S
O260   S316    1.501   .     D
O261   S316    1.503   .     D
O262   S316    1.681   .     S
O263   Zn332   1.945   .     S
O263   C371    1.272   .     S
O264   S286    1.503   .     D
O265   S286    1.500   .     D
O266   S286    1.682   .     S
O267   S287    1.503   .     D
O268   S287    1.501   .     D
O269   S287    1.681   .     S
O270   S288    1.503   .     D
O271   S288    1.501   .     D
O272   S288    1.682   .     S
O273   S289    1.503   .     D
O274   Zn320   1.946   .     S
O275   S289    1.501   .     D
O276   S289    1.681   .     S
O277   S290    1.502   .     D
O278   S290    1.503   .     D
O279   S290    1.682   .     S
O280   S291    1.503   .     D
O281   S291    1.502   .     D
O282   S291    1.681   .     S
O283   S292    1.503   .     D
O284   S292    1.501   .     D
S285   O566    1.503   1_455 S
S294   O477    1.681   1_455 S
S294   C427    1.782   1_455 S
S297   C761    1.783   1_545 S
S297   O816    1.681   1_545 S
S299   C431    1.783   .     S
S299   O490    1.681   .     S
S301   C765    1.783   .     S
S301   O829    1.681   .     S
S303   O170    1.504   1_554 S
S306   O181    1.681   1_556 S
S307   O904    1.503   1_545 S
S312   O579    1.503   .     S
S314   O918    1.503   .     S
Zn317  O888    1.913   1_545 S
Zn319  O861    1.932   .     S
Zn322  O540    1.931   .     S
Zn324  O801    1.933   .     S
Zn325  O892    1.912   1_545 S
Zn326  O557    1.913   1_455 S
Zn327  O548    1.913   1_455 S
Zn328  O896    1.913   1_545 S
Zn329  O882    1.913   1_545 S
Zn330  O554    1.912   1_455 S
Zn331  O563    1.914   1_455 S
Zn332  O551    1.935   .     S
C333   C392    1.459   .     S
C333   O606    1.269   .     A
C333   O1226   1.269   1_545 S
C334   O560    1.275   .     A
C334   O532    1.275   .     A
C334   C368    1.420   .     S
C335   C411    1.415   .     A
C335   S637    1.783   .     S
C335   C338    1.402   1_554 S
C336   S638    1.771   .     S
C336   C412    1.408   .     A
C336   C435    1.388   1_556 S
C337   S640    1.782   .     S
C337   C413    1.413   .     A
C337   C434    1.396   1_554 S
C338   S641    1.780   .     S
C338   C414    1.414   .     A
C338   C335    1.402   1_556 S
C339   S642    1.782   .     S
C339   C416    1.415   .     A
C339   C436    1.403   1_554 S
C340   C367    1.420   .     S
C340   O533    1.274   .     A
C340   O557    1.273   .     A
C341   O558    1.274   .     A
C341   C366    1.421   .     S
C341   O534    1.274   .     A
C342   O564    1.274   .     A
C342   C365    1.420   .     S
C342   O535    1.274   .     A
C343   O536    1.274   .     A
C343   O565    1.274   .     A
C343   C364    1.420   .     S
C344   C372    1.421   .     S
C344   O537    1.275   .     A
C344   O561    1.275   .     A
C345   O538    1.275   .     A
C345   C370    1.421   .     S
C345   O563    1.276   .     A
C346   O550    1.274   .     A
C346   C361    1.420   .     S
C346   O539    1.273   .     A
C347   C359    1.421   .     S
C347   O541    1.274   .     A
C347   O552    1.274   .     A
C348   O548    1.275   .     A
C348   C358    1.420   .     S
C348   O542    1.275   .     A
C349   C394    1.469   .     S
C349   O470    1.272   .     A
C349   O1237   1.272   .     S
C350   C357    1.420   .     S
C350   O543    1.275   .     A
C350   O549    1.275   .     A
C351   O544    1.275   .     A
C351   O555    1.275   .     A
C351   C356    1.421   .     S
C352   O556    1.275   .     A
C352   C355    1.421   .     S
C352   O545    1.275   .     A
C353   O553    1.274   .     A
C353   C363    1.420   .     S
C353   O546    1.274   .     A
C354   O547    1.274   .     A
C354   C362    1.420   .     S
C354   O554    1.274   .     A
C355   C372    1.198   .     T
C356   C370    1.198   .     T
C357   C369    1.197   .     T
C358   C368    1.197   .     T
C359   C367    1.197   .     T
C360   C390    1.459   .     S
C360   O481    1.269   .     A
C360   O252    1.269   1_655 S
C361   C366    1.197   .     T
C362   C365    1.197   .     T
C363   C364    1.197   .     T
C369   C426    1.420   .     S
C371   O492    1.273   .     A
C371   C391    1.469   .     S
C373   S617    1.788   .     S
C374   S628    1.789   .     S
C374   C405    1.412   .     A
C374   C391    1.416   .     A
C375   S639    1.788   .     S
C375   C392    1.409   .     A
C375   C1070   1.413   1_545 S
C376   S643    1.789   .     S
C376   C407    1.413   .     A
C376   C1058   1.415   1_545 S
C377   C390    1.410   .     A
C377   S644    1.788   .     S
C377   C67     1.413   1_655 S
C378   C400    1.413   .     A
C378   S645    1.791   .     S
C378   C59     1.417   1_655 S
C379   S646    1.788   .     S
C379   C1056   1.410   .     S
C379   C1065   1.413   .     S
C380   S647    1.789   .     S
C380   C402    1.413   .     A
C380   C394    1.415   .     A
C381   C412    1.415   .     A
C381   C395    1.414   .     A
C381   S648    1.799   .     S
C382   O503    1.269   .     A
C382   C397    1.457   .     S
C382   O526    1.267   .     A
C383   C396    1.414   .     A
C383   S618    1.796   .     S
C383   C413    1.411   .     A
C384   S619    1.787   .     S
C384   C414    1.411   .     A
C384   C65     1.407   1_655 S
C385   S620    1.789   .     S
C385   C416    1.412   .     A
C385   C398    1.417   .     A
C386   S621    1.795   .     S
C386   C408    1.413   .     A
C386   C1059   1.410   .     S
C387   S622    1.798   .     S
C387   C409    1.415   .     A
C387   C1060   1.411   1_545 S
C388   S623    1.787   .     S
C388   C410    1.413   .     A
C388   C397    1.409   .     A
C389   S624    1.789   .     S
C389   C411    1.413   .     A
C389   C66     1.416   1_655 S
C390   C41     1.410   1_655 S
C392   C1043   1.410   1_545 S
C393   O514    1.272   .     A
C393   O527    1.273   .     A
C393   C398    1.471   .     S
C394   C1040   1.415   .     S
C395   C404    1.460   .     S
C395   C1050   1.410   1_545 S
C396   C415    1.459   .     S
C396   C1051   1.411   .     S
C399   C417    1.415   .     A
C399   C425    1.416   .     A
C400   C427    1.415   .     A
C400   C86     1.413   1_655 S
C401   C428    1.416   .     A
C401   C1043   1.413   1_545 S
C401   C419    1.416   .     S
C402   C429    1.415   .     A
C402   C420    1.413   .     A
C403   C430    1.415   .     A
C403   C41     1.412   1_655 S
C403   C85     1.415   1_655 S
C404   O528    1.263   .     A
C404   O524    1.275   .     A
C405   C418    1.413   .     A
C405   C431    1.415   .     A
C406   C432    1.416   .     A
C406   C1083   1.416   .     A
C406   C1039   1.413   .     S
C407   C433    1.415   .     A
C407   C1084   1.413   1_545 S
C408   C421    1.415   .     A
C408   C434    1.415   .     A
C409   C435    1.408   .     A
C409   C1086   1.419   1_545 S
C410   C436    1.415   .     A
C410   C423    1.415   .     A
C411   C92     1.413   1_655 S
C412   C1085   1.419   1_545 S
C413   C422    1.413   .     A
C414   C91     1.414   1_655 S
C415   O1189   1.275   .     S
C415   O1194   1.264   .     S
C416   C424    1.412   .     A
C417   C418    1.406   .     A
C419   C1070   1.416   1_545 A
C419   C1084   1.405   1_545 A
C420   C1083   1.405   .     A
C420   C1071   1.413   .     S
C421   C1076   1.419   .     S
C421   C422    1.418   1_556 S
C422   C1073   1.419   .     S
C422   C421    1.418   1_554 S
C423   C424    1.405   1_556 S
C424   C423    1.405   1_554 S
C425   S625    1.783   .     S
C425   C431    1.402   .     A
C426   O531    1.275   .     A
C426   O559    1.275   .     A
C427   C430    1.402   .     A
C427   S294    1.782   1_655 S
C428   C433    1.402   .     A
C428   S627    1.783   .     S
C429   C432    1.402   .     A
C429   S1293   1.783   .     S
C430   S630    1.783   .     S
C432   S632    1.783   .     S
C433   S1297   1.783   1_545 S
C434   S634    1.781   .     S
C434   C337    1.396   1_556 S
C435   S635    1.773   .     S
C435   C336    1.388   1_554 S
C436   S636    1.782   .     S
C436   C339    1.403   1_556 S
H437   O568    0.991   .     S
H438   O598    0.991   .     S
H439   O601    0.991   .     S
H440   O604    0.991   .     S
H441   O608    0.991   .     S
H442   O611    0.991   .     S
H443   O614    0.991   .     S
H444   O471    0.991   .     S
H445   O474    0.991   .     S
H446   O477    0.991   .     S
H447   O480    0.991   .     S
H448   O571    0.991   .     S
H449   O484    0.991   .     S
H450   O487    0.991   .     S
H451   O490    0.991   .     S
H452   O494    0.991   .     S
H453   O497    0.991   .     S
H454   O500    0.990   .     S
H455   O504    0.991   .     S
H456   O507    0.990   .     S
H457   O510    0.990   .     S
H458   O513    0.991   .     S
H459   O575    0.991   .     S
H460   O517    0.990   .     S
H461   O520    0.990   .     S
H462   O523    0.990   .     S
H463   O578    0.991   .     S
H464   O581    0.991   .     S
H465   O585    0.990   .     S
H466   O588    0.991   .     S
H467   O591    0.991   .     S
H468   O594    0.991   .     S
O469   Zn652   1.932   .     S
O469   Zn660   1.931   .     S
O469   Zn649   1.935   .     S
O469   Zn1320  1.933   1_545 S
O470   Zn651   1.946   .     S
O471   S624    1.682   .     S
O472   S625    1.503   .     D
O473   S625    1.503   .     D
O474   S625    1.682   .     S
O475   S626    1.503   .     D
O476   S626    1.503   .     D
O477   S294    1.681   1_655 S
O478   S627    1.503   .     D
O479   S627    1.503   .     D
O480   S627    1.682   .     S
O481   Zn654   1.947   .     S
O482   S629    1.503   .     D
O483   S629    1.503   .     D
O484   S1293   1.681   .     S
O485   S630    1.503   .     D
O486   S630    1.503   .     D
O487   S630    1.682   .     S
O488   S631    1.503   .     D
O489   S631    1.503   .     D
O491   S632    1.503   .     D
O492   Zn653   1.947   .     S
O493   S632    1.503   .     D
O494   S632    1.682   .     S
O495   S633    1.503   .     D
O496   S633    1.503   .     D
O497   S1297   1.681   1_545 S
O498   S634    1.503   .     D
O499   S634    1.503   .     D
O500   S634    1.681   .     S
O501   S635    1.502   .     D
O502   S635    1.504   1_556 S
O503   Zn663   1.945   .     S
O504   S635    1.682   .     S
O505   S636    1.503   .     D
O506   S636    1.503   .     D
O507   S636    1.681   .     S
O508   S637    1.503   .     D
O509   S637    1.503   .     D
O510   S637    1.682   .     S
O511   S638    1.503   .     D
O512   S638    1.503   .     D
O513   S638    1.681   1_554 S
O514   Zn662   1.945   .     S
O515   S640    1.503   .     D
O516   S640    1.503   .     D
O517   S640    1.682   .     S
O518   S641    1.503   .     D
O519   S641    1.502   .     D
O520   S641    1.682   .     S
O521   S642    1.503   .     D
O522   S642    1.503   .     D
O523   S642    1.681   .     S
O524   Zn657   1.945   .     S
O525   Zn649   1.945   .     S
O525   C1079   1.275   1_545 S
O526   Zn659   1.946   .     S
O527   Zn658   1.946   .     S
O528   Zn661   1.947   .     S
O529   Zn661   1.931   .     S
O529   Zn657   1.935   .     S
O529   Zn655   1.933   .     S
O529   Zn1315  1.932   1_545 S
O530   Zn660   1.947   .     S
O530   C1079   1.264   1_545 S
O531   Zn652   1.913   .     S
O532   Zn651   1.913   .     S
O533   Zn654   1.913   .     S
O534   Zn653   1.913   .     S
O535   Zn656   1.912   .     S
O536   Zn655   1.912   .     S
O537   Zn650   1.913   .     S
O538   Zn664   1.913   .     S
O539   Zn651   1.913   .     S
O540   Zn662   1.933   .     S
O540   Zn658   1.932   .     S
O540   Zn650   1.935   .     S
O541   Zn652   1.913   .     S
O542   Zn664   1.912   .     S
O543   Zn650   1.912   .     S
O544   Zn655   1.914   .     S
O545   Zn656   1.914   .     S
O546   Zn653   1.913   .     S
O547   Zn654   1.913   .     S
O548   Zn327   1.913   1_655 S
O549   Zn658   1.913   .     S
O550   Zn1325  1.913   .     S
O551   Zn653   1.931   .     S
O551   Zn663   1.933   .     S
O551   Zn659   1.932   .     S
O552   Zn660   1.913   .     S
O553   Zn663   1.912   .     S
O554   Zn330   1.912   1_655 S
O555   Zn657   1.913   .     S
O556   Zn1313  1.913   .     S
O557   Zn326   1.913   1_655 S
O558   Zn659   1.913   .     S
O559   Zn649   1.912   .     S
O560   Zn1321  1.912   .     S
O561   Zn662   1.914   .     S
O562   Zn656   1.945   .     S
O562   C997    1.269   .     S
O563   Zn331   1.914   1_655 S
O564   Zn1324  1.913   .     S
O565   Zn661   1.913   .     S
O566   S285    1.503   1_655 S
O567   S617    1.502   .     D
O568   S617    1.681   .     S
O569   S628    1.503   .     D
O570   S628    1.501   .     D
O571   S628    1.682   .     S
O572   S1303   1.503   .     S
O573   Zn655   1.945   .     S
O573   C1013   1.272   1_545 S
O574   S639    1.502   .     D
O575   S639    1.681   .     S
O576   S643    1.503   .     D
O577   S643    1.501   .     D
O578   S643    1.682   .     S
O580   S644    1.502   .     D
O581   S644    1.681   .     S
O582   S645    1.503   .     D
O583   S645    1.501   .     D
O584   Zn650   1.945   .     S
O585   S645    1.683   .     S
O586   S1310   1.503   1_545 S
O587   S646    1.502   .     D
O588   S646    1.681   .     S
O589   S647    1.503   .     D
O590   S647    1.501   .     D
O591   S647    1.682   .     S
O592   S648    1.501   .     D
O593   S648    1.503   .     D
O594   S648    1.681   .     S
O595   Zn664   1.945   .     S
O595   C39     1.272   1_655 S
O596   S618    1.503   .     D
O597   S618    1.500   .     D
O598   S618    1.682   .     S
O599   S619    1.503   .     D
O600   S619    1.501   .     D
O601   S619    1.681   .     S
O602   S620    1.503   .     D
O603   S620    1.501   .     D
O604   S620    1.682   .     S
O605   S621    1.503   .     D
O606   Zn652   1.946   .     S
O607   S621    1.501   .     D
O608   S621    1.681   .     S
O609   S622    1.502   .     D
O610   S622    1.503   .     D
O611   S622    1.682   .     S
O612   S623    1.503   .     D
O613   S623    1.502   .     D
O614   S623    1.681   .     S
O615   S624    1.503   .     D
O616   S624    1.501   .     D
S629   C1093   1.783   1_545 S
S629   O1148   1.681   1_545 S
S631   C99     1.783   1_655 S
S631   O158    1.681   1_655 S
S633   C1097   1.783   .     S
S633   O1161   1.681   .     S
S635   O502    1.504   1_554 S
S638   O513    1.681   1_556 S
S639   O1236   1.503   1_545 S
S644   O247    1.503   1_655 S
S646   O1250   1.503   .     S
Zn649  O1220   1.913   1_545 S
Zn651  O1193   1.932   .     S
Zn654  O208    1.931   1_655 S
Zn656  O1133   1.933   .     S
Zn657  O1224   1.912   1_545 S
Zn660  O1228   1.913   1_545 S
Zn661  O1214   1.913   1_545 S
Zn664  O219    1.935   1_655 S
C665   C724    1.459   .     S
C665   O938    1.269   .     A
C666   O892    1.275   .     A
C666   O864    1.275   .     A
C666   C700    1.420   .     S
C667   C743    1.415   .     A
C667   S969    1.783   .     S
C667   C670    1.402   1_554 S
C668   S970    1.771   .     S
C668   C744    1.408   .     A
C668   C767    1.388   1_556 S
C669   S972    1.782   .     S
C669   C745    1.413   .     A
C669   C766    1.396   1_554 S
C670   S973    1.780   .     S
C670   C746    1.414   .     A
C670   C667    1.402   1_556 S
C671   S974    1.782   .     S
C671   C748    1.415   .     A
C671   C768    1.403   1_554 S
C672   C699    1.420   .     S
C672   O865    1.274   .     A
C672   O889    1.273   .     A
C673   O890    1.274   .     A
C673   C698    1.421   .     S
C673   O866    1.274   .     A
C674   O896    1.274   .     A
C674   C697    1.420   .     S
C674   O867    1.274   .     A
C675   O868    1.274   .     A
C675   O897    1.274   .     A
C675   C696    1.420   .     S
C676   C704    1.421   .     S
C676   O869    1.275   .     A
C676   O893    1.275   .     A
C677   O870    1.275   .     A
C677   C702    1.421   .     S
C677   O895    1.276   .     A
C678   O882    1.274   .     A
C678   C693    1.420   .     S
C678   O871    1.273   .     A
C679   C691    1.421   .     S
C679   O873    1.274   .     A
C679   O884    1.274   .     A
C680   O880    1.275   .     A
C680   C690    1.420   .     S
C680   O874    1.275   .     A
C681   C726    1.469   .     S
C681   O802    1.272   .     A
C681   O241    1.272   1_565 S
C682   C689    1.420   .     S
C682   O875    1.275   .     A
C682   O881    1.275   .     A
C683   O876    1.275   .     A
C683   O887    1.275   .     A
C683   C688    1.421   .     S
C684   O888    1.275   .     A
C684   C687    1.421   .     S
C684   O877    1.275   .     A
C685   O885    1.274   .     A
C685   C695    1.420   .     S
C685   O878    1.274   .     A
C686   O879    1.274   .     A
C686   C694    1.420   .     S
C686   O886    1.274   .     A
C687   C704    1.198   .     T
C688   C702    1.198   .     T
C689   C701    1.197   .     T
C690   C700    1.197   .     T
C691   C699    1.197   .     T
C692   C722    1.459   .     S
C692   O813    1.269   .     A
C692   O1248   1.269   .     S
C693   C698    1.197   .     T
C694   C697    1.197   .     T
C695   C696    1.197   .     T
C701   C758    1.420   .     S
C703   O824    1.273   .     A
C703   C723    1.469   .     S
C703   O1259   1.272   1_455 S
C705   S949    1.788   .     S
C705   C1054   1.410   1_455 S
C705   C1067   1.412   1_455 S
C706   S960    1.789   .     S
C706   C737    1.412   .     A
C706   C723    1.416   .     A
C707   S971    1.788   .     S
C707   C724    1.409   .     A
C708   S975    1.789   .     S
C708   C739    1.413   .     A
C709   C722    1.410   .     A
C709   S976    1.788   .     S
C709   C1063   1.413   .     S
C710   C732    1.413   .     A
C710   S977    1.791   .     S
C710   C1055   1.417   .     S
C711   S978    1.788   .     S
C711   C60     1.410   1_565 S
C711   C69     1.413   1_565 S
C712   S979    1.789   .     S
C712   C734    1.413   .     A
C712   C726    1.415   .     A
C713   C744    1.415   .     A
C713   C727    1.414   .     A
C713   S980    1.799   .     S
C714   O835    1.269   .     A
C714   C729    1.457   .     S
C714   O858    1.267   .     A
C715   C728    1.414   .     A
C715   S950    1.796   .     S
C715   C745    1.411   .     A
C716   S951    1.787   .     S
C716   C746    1.411   .     A
C716   C1061   1.407   .     S
C717   S952    1.789   .     S
C717   C748    1.412   .     A
C717   C730    1.417   .     A
C718   S953    1.795   .     S
C718   C740    1.413   .     A
C718   C63     1.410   1_565 S
C719   S954    1.798   .     S
C719   C741    1.415   .     A
C720   S955    1.787   .     S
C720   C742    1.413   .     A
C720   C729    1.409   .     A
C721   S956    1.789   .     S
C721   C743    1.413   .     A
C721   C1062   1.416   .     S
C722   C1037   1.410   .     S
C723   C1042   1.417   1_455 S
C725   O846    1.272   .     A
C725   O859    1.273   .     A
C725   C730    1.471   .     S
C726   C44     1.415   1_565 S
C727   C736    1.460   .     S
C728   C747    1.459   .     S
C728   C55     1.411   1_565 S
C729   C1048   1.407   1_455 S
C730   C1053   1.416   1_455 S
C731   C749    1.415   .     A
C731   C757    1.416   .     A
C731   C1041   1.413   1_455 S
C732   C759    1.415   .     A
C732   C1082   1.413   .     S
C733   C760    1.416   .     A
C733   C751    1.416   .     S
C734   C761    1.415   .     A
C734   C752    1.413   .     A
C735   C762    1.415   .     A
C735   C1037   1.412   .     S
C735   C1081   1.415   .     S
C736   O860    1.263   .     A
C736   O856    1.275   .     A
C737   C750    1.413   .     A
C737   C763    1.415   .     A
C738   C764    1.416   .     A
C738   C87     1.416   1_565 A
C738   C43     1.413   1_565 S
C739   C765    1.415   .     A
C740   C753    1.415   .     A
C740   C766    1.415   .     A
C741   C767    1.408   .     A
C742   C768    1.415   .     A
C742   C755    1.415   .     A
C743   C1088   1.413   .     S
C745   C754    1.413   .     A
C746   C1087   1.414   .     S
C747   O193    1.275   1_565 S
C747   O198    1.264   1_565 S
C748   C756    1.412   .     A
C749   C750    1.406   .     A
C749   C1067   1.415   1_455 S
C750   C1064   1.413   1_455 S
C752   C87     1.405   1_565 A
C752   C75     1.413   1_565 S
C753   C80     1.419   1_565 S
C753   C754    1.418   1_556 S
C754   C77     1.419   1_565 S
C754   C753    1.418   1_554 S
C755   C1078   1.414   1_455 S
C755   C756    1.405   1_556 S
C756   C1075   1.413   1_455 S
C756   C755    1.405   1_554 S
C757   S957    1.783   .     S
C757   C763    1.402   .     A
C758   O863    1.275   .     A
C758   O891    1.275   .     A
C759   C762    1.402   .     A
C759   S1290   1.782   .     S
C760   C765    1.402   .     A
C760   S959    1.783   .     S
C761   C764    1.402   .     A
C761   S297    1.783   1_565 S
C762   S962    1.783   .     S
C763   S1295   1.783   1_455 S
C764   S964    1.783   .     S
C766   S966    1.781   .     S
C766   C669    1.396   1_556 S
C767   S967    1.773   .     S
C767   C668    1.388   1_554 S
C768   S968    1.782   .     S
C768   C671    1.403   1_556 S
H769   O900    0.991   .     S
H770   O930    0.991   .     S
H771   O933    0.991   .     S
H772   O936    0.991   .     S
H773   O940    0.991   .     S
H774   O943    0.991   .     S
H775   O946    0.991   .     S
H776   O803    0.991   .     S
H777   O806    0.991   .     S
H778   O809    0.991   .     S
H779   O812    0.991   .     S
H780   O903    0.991   .     S
H781   O816    0.991   .     S
H782   O819    0.991   .     S
H783   O822    0.991   .     S
H784   O826    0.991   .     S
H785   O829    0.991   .     S
H786   O832    0.990   .     S
H787   O836    0.991   .     S
H788   O839    0.990   .     S
H789   O842    0.990   .     S
H790   O845    0.991   .     S
H791   O907    0.991   .     S
H792   O849    0.990   .     S
H793   O852    0.990   .     S
H794   O855    0.990   .     S
H795   O910    0.991   .     S
H796   O913    0.991   .     S
H797   O917    0.990   .     S
H798   O920    0.991   .     S
H799   O923    0.991   .     S
H800   O926    0.991   .     S
O801   Zn984   1.932   .     S
O801   Zn992   1.931   .     S
O801   Zn981   1.935   .     S
O802   Zn983   1.946   .     S
O803   S956    1.682   .     S
O804   S957    1.503   .     D
O805   S957    1.503   .     D
O806   S957    1.682   .     S
O807   S958    1.503   .     D
O808   S958    1.503   .     D
O809   S1290   1.681   .     S
O810   S959    1.503   .     D
O811   S959    1.503   .     D
O812   S959    1.682   .     S
O813   Zn986   1.947   .     S
O814   S961    1.503   .     D
O815   S961    1.503   .     D
O816   S297    1.681   1_565 S
O817   S962    1.503   .     D
O818   S962    1.503   .     D
O819   S962    1.682   .     S
O820   S963    1.503   .     D
O821   S963    1.503   .     D
O822   S1295   1.681   1_455 S
O823   S964    1.503   .     D
O824   Zn985   1.947   .     S
O825   S964    1.503   .     D
O826   S964    1.682   .     S
O827   S965    1.503   .     D
O828   S965    1.503   .     D
O830   S966    1.503   .     D
O831   S966    1.503   .     D
O832   S966    1.681   .     S
O833   S967    1.502   .     D
O834   S967    1.504   1_556 S
O835   Zn995   1.945   .     S
O836   S967    1.682   .     S
O837   S968    1.503   .     D
O838   S968    1.503   .     D
O839   S968    1.681   .     S
O840   S969    1.503   .     D
O841   S969    1.503   .     D
O842   S969    1.682   .     S
O843   S970    1.503   .     D
O844   S970    1.503   .     D
O845   S970    1.681   1_554 S
O846   Zn994   1.945   .     S
O847   S972    1.503   .     D
O848   S972    1.503   .     D
O849   S972    1.682   .     S
O850   S973    1.503   .     D
O851   S973    1.502   .     D
O852   S973    1.682   .     S
O853   S974    1.503   .     D
O854   S974    1.503   .     D
O855   S974    1.681   .     S
O856   Zn989   1.945   .     S
O857   Zn981   1.945   .     S
O858   Zn991   1.946   .     S
O859   Zn990   1.946   .     S
O860   Zn993   1.947   .     S
O861   Zn993   1.931   .     S
O861   Zn989   1.935   .     S
O861   Zn987   1.933   .     S
O862   Zn992   1.947   .     S
O863   Zn984   1.913   .     S
O864   Zn983   1.913   .     S
O865   Zn986   1.913   .     S
O866   Zn985   1.913   .     S
O867   Zn988   1.912   .     S
O868   Zn987   1.912   .     S
O869   Zn982   1.913   .     S
O870   Zn996   1.913   .     S
O871   Zn983   1.913   .     S
O872   Zn994   1.933   .     S
O872   Zn990   1.932   .     S
O872   Zn982   1.935   .     S
O872   Zn1318  1.931   1_455 S
O873   Zn984   1.913   .     S
O874   Zn996   1.912   .     S
O875   Zn982   1.912   .     S
O876   Zn987   1.914   .     S
O877   Zn988   1.914   .     S
O878   Zn985   1.913   .     S
O879   Zn986   1.913   .     S
O880   Zn1323  1.913   .     S
O881   Zn990   1.913   .     S
O882   Zn329   1.913   1_565 S
O883   Zn985   1.931   .     S
O883   Zn995   1.933   .     S
O883   Zn991   1.932   .     S
O883   Zn1328  1.935   1_455 S
O884   Zn992   1.913   .     S
O885   Zn995   1.912   .     S
O886   Zn1326  1.912   .     S
O887   Zn989   1.913   .     S
O888   Zn317   1.913   1_565 S
O889   Zn1322  1.913   .     S
O890   Zn991   1.913   .     S
O891   Zn981   1.912   .     S
O892   Zn325   1.912   1_565 S
O893   Zn994   1.914   .     S
O894   Zn988   1.945   .     S
O894   C1      1.269   1_565 S
O895   Zn1327  1.914   .     S
O896   Zn328   1.913   1_565 S
O897   Zn993   1.913   .     S
O898   S1281   1.503   .     S
O899   S949    1.502   .     D
O900   S949    1.681   .     S
O901   S960    1.503   .     D
O902   S960    1.501   .     D
O903   S960    1.682   .     S
O904   S307    1.503   1_565 S
O905   Zn987   1.945   .     S
O906   S971    1.502   .     D
O907   S971    1.681   .     S
O908   S975    1.503   .     D
O909   S975    1.501   .     D
O910   S975    1.682   .     S
O911   S1308   1.503   1_455 S
O912   S976    1.502   .     D
O913   S976    1.681   .     S
O914   S977    1.503   .     D
O915   S977    1.501   .     D
O916   Zn982   1.945   .     S
O916   C1024   1.269   1_455 S
O917   S977    1.683   .     S
O919   S978    1.502   .     D
O920   S978    1.681   .     S
O921   S979    1.503   .     D
O922   S979    1.501   .     D
O923   S979    1.682   .     S
O924   S980    1.501   .     D
O925   S980    1.503   .     D
O926   S980    1.681   .     S
O927   Zn996   1.945   .     S
O927   C1035   1.272   .     S
O928   S950    1.503   .     D
O929   S950    1.500   .     D
O930   S950    1.682   .     S
O931   S951    1.503   .     D
O932   S951    1.501   .     D
O933   S951    1.681   .     S
O934   S952    1.503   .     D
O935   S952    1.501   .     D
O936   S952    1.682   .     S
O937   S953    1.503   .     D
O938   Zn984   1.946   .     S
O939   S953    1.501   .     D
O940   S953    1.681   .     S
O941   S954    1.502   .     D
O942   S954    1.503   .     D
O943   S954    1.682   .     S
O944   S955    1.503   .     D
O945   S955    1.502   .     D
O946   S955    1.681   .     S
O947   S956    1.503   .     D
O948   S956    1.501   .     D
S949   O1230   1.503   1_455 S
S958   O1141   1.681   1_455 S
S958   C1091   1.782   1_455 S
S963   C1095   1.783   .     S
S963   O1154   1.681   .     S
S965   C101    1.783   1_565 S
S965   O165    1.681   1_565 S
S967   O834    1.504   1_554 S
S970   O845    1.681   1_556 S
S976   O1243   1.503   .     S
S978   O254    1.503   1_565 S
Zn983  O197    1.932   1_565 S
Zn986  O1204   1.931   .     S
Zn988  O137    1.933   1_565 S
Zn990  O1221   1.913   1_455 S
Zn991  O1212   1.913   1_455 S
Zn994  O1218   1.912   1_455 S
Zn995  O1227   1.914   1_455 S
Zn996  O1215   1.935   .     S
C997   C1056   1.459   .     S
C997   O1270   1.269   .     A
C998   O1224   1.275   .     A
C998   O1196   1.275   .     A
C998   C1032   1.420   .     S
C999   C1075   1.415   .     A
C999   S1301   1.783   .     S
C999   C1002   1.402   1_554 S
C1000  S1302   1.771   .     S
C1000  C1076   1.408   .     A
C1000  C1099   1.388   1_556 S
C1001  S1304   1.782   .     S
C1001  C1077   1.413   .     A
C1001  C1098   1.396   1_554 S
C1002  S1305   1.780   .     S
C1002  C1078   1.414   .     A
C1002  C999    1.402   1_556 S
C1003  S1306   1.782   .     S
C1003  C1080   1.415   .     A
C1003  C1100   1.403   1_554 S
C1004  C1031   1.420   .     S
C1004  O1197   1.274   .     A
C1004  O1221   1.273   .     A
C1005  O1222   1.274   .     A
C1005  C1030   1.421   .     S
C1005  O1198   1.274   .     A
C1006  O1228   1.274   .     A
C1006  C1029   1.420   .     S
C1006  O1199   1.274   .     A
C1007  O1200   1.274   .     A
C1007  O1229   1.274   .     A
C1007  C1028   1.420   .     S
C1008  C1036   1.421   .     S
C1008  O1201   1.275   .     A
C1008  O1225   1.275   .     A
C1009  O1202   1.275   .     A
C1009  C1034   1.421   .     S
C1009  O1227   1.276   .     A
C1010  O1214   1.274   .     A
C1010  C1025   1.420   .     S
C1010  O1203   1.273   .     A
C1011  C1023   1.421   .     S
C1011  O1205   1.274   .     A
C1011  O1216   1.274   .     A
C1012  O1212   1.275   .     A
C1012  C1022   1.420   .     S
C1012  O1206   1.275   .     A
C1013  C1058   1.469   .     S
C1013  O1134   1.272   .     A
C1013  O573    1.272   1_565 S
C1014  C1021   1.420   .     S
C1014  O1207   1.275   .     A
C1014  O1213   1.275   .     A
C1015  O1208   1.275   .     A
C1015  O1219   1.275   .     A
C1015  C1020   1.421   .     S
C1016  O1220   1.275   .     A
C1016  C1019   1.421   .     S
C1016  O1209   1.275   .     A
C1017  O1217   1.274   .     A
C1017  C1027   1.420   .     S
C1017  O1210   1.274   .     A
C1018  O1211   1.274   .     A
C1018  C1026   1.420   .     S
C1018  O1218   1.274   .     A
C1019  C1036   1.198   .     T
C1020  C1034   1.198   .     T
C1021  C1033   1.197   .     T
C1022  C1032   1.197   .     T
C1023  C1031   1.197   .     T
C1024  C1054   1.459   .     S
C1024  O1145   1.269   .     A
C1024  O916    1.269   1_655 S
C1025  C1030   1.197   .     T
C1026  C1029   1.197   .     T
C1027  C1028   1.197   .     T
C1033  C1090   1.420   .     S
C1035  O1156   1.273   .     A
C1035  C1055   1.469   .     S
C1037  S1281   1.788   .     S
C1038  S1292   1.789   .     S
C1038  C1069   1.412   .     A
C1038  C1055   1.416   .     A
C1039  S1303   1.788   .     S
C1039  C1056   1.409   .     A
C1040  S1307   1.789   .     S
C1040  C1071   1.413   .     A
C1041  C1054   1.410   .     A
C1041  S1308   1.788   .     S
C1041  C731    1.413   1_655 S
C1042  C1064   1.413   .     A
C1042  S1309   1.791   .     S
C1042  C723    1.417   1_655 S
C1043  S1310   1.788   .     S
C1043  C392    1.410   1_565 S
C1043  C401    1.413   1_565 S
C1044  S1311   1.789   .     S
C1044  C1066   1.413   .     A
C1044  C1058   1.415   .     A
C1045  C1076   1.415   .     A
C1045  C1059   1.414   .     A
C1045  S1312   1.799   .     S
C1046  O1167   1.269   .     A
C1046  C1061   1.457   .     S
C1046  O1190   1.267   .     A
C1047  C1060   1.414   .     A
C1047  S1282   1.796   .     S
C1047  C1077   1.411   .     A
C1048  S1283   1.787   .     S
C1048  C1078   1.411   .     A
C1048  C729    1.407   1_655 S
C1049  S1284   1.789   .     S
C1049  C1080   1.412   .     A
C1049  C1062   1.417   .     A
C1050  S1285   1.795   .     S
C1050  C1072   1.413   .     A
C1050  C395    1.410   1_565 S
C1051  S1286   1.798   .     S
C1051  C1073   1.415   .     A
C1052  S1287   1.787   .     S
C1052  C1074   1.413   .     A
C1052  C1061   1.409   .     A
C1053  S1288   1.789   .     S
C1053  C1075   1.413   .     A
C1053  C730    1.416   1_655 S
C1054  C705    1.410   1_655 S
C1057  O1178   1.272   .     A
C1057  O1191   1.273   .     A
C1057  C1062   1.471   .     S
C1058  C376    1.415   1_565 S
C1059  C1068   1.460   .     S
C1060  C1079   1.459   .     S
C1060  C387    1.411   1_565 S
C1063  C1081   1.415   .     A
C1063  C1089   1.416   .     A
C1064  C1091   1.415   .     A
C1064  C750    1.413   1_655 S
C1065  C1092   1.416   .     A
C1065  C1083   1.416   .     S
C1066  C1093   1.415   .     A
C1066  C1084   1.413   .     A
C1067  C1094   1.415   .     A
C1067  C705    1.412   1_655 S
C1067  C749    1.415   1_655 S
C1068  O1192   1.263   .     A
C1068  O1188   1.275   .     A
C1069  C1082   1.413   .     A
C1069  C1095   1.415   .     A
C1070  C1096   1.416   .     A
C1070  C419    1.416   1_565 A
C1070  C375    1.413   1_565 S
C1071  C1097   1.415   .     A
C1072  C1085   1.415   .     A
C1072  C1098   1.415   .     A
C1073  C1099   1.408   .     A
C1074  C1100   1.415   .     A
C1074  C1087   1.415   .     A
C1075  C756    1.413   1_655 S
C1077  C1086   1.413   .     A
C1078  C755    1.414   1_655 S
C1079  O525    1.275   1_565 S
C1079  O530    1.264   1_565 S
C1080  C1088   1.412   .     A
C1081  C1082   1.406   .     A
C1084  C419    1.405   1_565 A
C1084  C407    1.413   1_565 S
C1085  C412    1.419   1_565 S
C1085  C1086   1.418   1_556 S
C1086  C409    1.419   1_565 S
C1086  C1085   1.418   1_554 S
C1087  C1088   1.405   1_556 S
C1088  C1087   1.405   1_554 S
C1089  S1289   1.783   .     S
C1089  C1095   1.402   .     A
C1090  O1195   1.275   .     A
C1090  O1223   1.275   .     A
C1091  C1094   1.402   .     A
C1091  S958    1.782   1_655 S
C1092  C1097   1.402   .     A
C1092  S1291   1.783   .     S
C1093  C1096   1.402   .     A
C1093  S629    1.783   1_565 S
C1094  S1294   1.783   .     S
C1096  S1296   1.783   .     S
C1098  S1298   1.781   .     S
C1098  C1001   1.396   1_556 S
C1099  S1299   1.773   .     S
C1099  C1000   1.388   1_554 S
C1100  S1300   1.782   .     S
C1100  C1003   1.403   1_556 S
H1101  O1232   0.991   .     S
H1102  O1262   0.991   .     S
H1103  O1265   0.991   .     S
H1104  O1268   0.991   .     S
H1105  O1272   0.991   .     S
H1106  O1275   0.991   .     S
H1107  O1278   0.991   .     S
H1108  O1135   0.991   .     S
H1109  O1138   0.991   .     S
H1110  O1141   0.991   .     S
H1111  O1144   0.991   .     S
H1112  O1235   0.991   .     S
H1113  O1148   0.991   .     S
H1114  O1151   0.991   .     S
H1115  O1154   0.991   .     S
H1116  O1158   0.991   .     S
H1117  O1161   0.991   .     S
H1118  O1164   0.990   .     S
H1119  O1168   0.991   .     S
H1120  O1171   0.990   .     S
H1121  O1174   0.990   .     S
H1122  O1177   0.991   .     S
H1123  O1239   0.991   .     S
H1124  O1181   0.990   .     S
H1125  O1184   0.990   .     S
H1126  O1187   0.990   .     S
H1127  O1242   0.991   .     S
H1128  O1245   0.991   .     S
H1129  O1249   0.990   .     S
H1130  O1252   0.991   .     S
H1131  O1255   0.991   .     S
H1132  O1258   0.991   .     S
O1133  Zn1316  1.932   .     S
O1133  Zn1324  1.931   .     S
O1133  Zn1313  1.935   .     S
O1134  Zn1315  1.946   .     S
O1135  S1288   1.682   .     S
O1136  S1289   1.503   .     D
O1137  S1289   1.503   .     D
O1138  S1289   1.682   .     S
O1139  S1290   1.503   .     D
O1140  S1290   1.503   .     D
O1141  S958    1.681   1_655 S
O1142  S1291   1.503   .     D
O1143  S1291   1.503   .     D
O1144  S1291   1.682   .     S
O1145  Zn1318  1.947   .     S
O1146  S1293   1.503   .     D
O1147  S1293   1.503   .     D
O1148  S629    1.681   1_565 S
O1149  S1294   1.503   .     D
O1150  S1294   1.503   .     D
O1151  S1294   1.682   .     S
O1152  S1295   1.503   .     D
O1153  S1295   1.503   .     D
O1155  S1296   1.503   .     D
O1156  Zn1317  1.947   .     S
O1157  S1296   1.503   .     D
O1158  S1296   1.682   .     S
O1159  S1297   1.503   .     D
O1160  S1297   1.503   .     D
O1162  S1298   1.503   .     D
O1163  S1298   1.503   .     D
O1164  S1298   1.681   .     S
O1165  S1299   1.502   .     D
O1166  S1299   1.504   1_556 S
O1167  Zn1327  1.945   .     S
O1168  S1299   1.682   .     S
O1169  S1300   1.503   .     D
O1170  S1300   1.503   .     D
O1171  S1300   1.681   .     S
O1172  S1301   1.503   .     D
O1173  S1301   1.503   .     D
O1174  S1301   1.682   .     S
O1175  S1302   1.503   .     D
O1176  S1302   1.503   .     D
O1177  S1302   1.681   1_554 S
O1178  Zn1326  1.945   .     S
O1179  S1304   1.503   .     D
O1180  S1304   1.503   .     D
O1181  S1304   1.682   .     S
O1182  S1305   1.503   .     D
O1183  S1305   1.502   .     D
O1184  S1305   1.682   .     S
O1185  S1306   1.503   .     D
O1186  S1306   1.503   .     D
O1187  S1306   1.681   .     S
O1188  Zn1321  1.945   .     S
O1189  Zn1313  1.945   .     S
O1190  Zn1323  1.946   .     S
O1191  Zn1322  1.946   .     S
O1192  Zn1325  1.947   .     S
O1193  Zn1325  1.931   .     S
O1193  Zn1321  1.935   .     S
O1193  Zn1319  1.933   .     S
O1194  Zn1324  1.947   .     S
O1195  Zn1316  1.913   .     S
O1196  Zn1315  1.913   .     S
O1197  Zn1318  1.913   .     S
O1198  Zn1317  1.913   .     S
O1199  Zn1320  1.912   .     S
O1200  Zn1319  1.912   .     S
O1201  Zn1314  1.913   .     S
O1202  Zn1328  1.913   .     S
O1203  Zn1315  1.913   .     S
O1204  Zn1326  1.933   .     S
O1204  Zn1322  1.932   .     S
O1204  Zn1314  1.935   .     S
O1205  Zn1316  1.913   .     S
O1206  Zn1328  1.912   .     S
O1207  Zn1314  1.912   .     S
O1208  Zn1319  1.914   .     S
O1209  Zn1320  1.914   .     S
O1210  Zn1317  1.913   .     S
O1211  Zn1318  1.913   .     S
O1212  Zn991   1.913   1_655 S
O1213  Zn1322  1.913   .     S
O1214  Zn661   1.913   1_565 S
O1215  Zn1317  1.931   .     S
O1215  Zn1327  1.933   .     S
O1215  Zn1323  1.932   .     S
O1216  Zn1324  1.913   .     S
O1217  Zn1327  1.912   .     S
O1218  Zn994   1.912   1_655 S
O1219  Zn1321  1.913   .     S
O1220  Zn649   1.913   1_565 S
O1221  Zn990   1.913   1_655 S
O1222  Zn1323  1.913   .     S
O1223  Zn1313  1.912   .     S
O1224  Zn657   1.912   1_565 S
O1225  Zn1326  1.914   .     S
O1226  Zn1320  1.945   .     S
O1226  C333    1.269   1_565 S
O1227  Zn995   1.914   1_655 S
O1228  Zn660   1.913   1_565 S
O1229  Zn1325  1.913   .     S
O1230  S949    1.503   1_655 S
O1231  S1281   1.502   .     D
O1232  S1281   1.681   .     S
O1233  S1292   1.503   .     D
O1234  S1292   1.501   .     D
O1235  S1292   1.682   .     S
O1236  S639    1.503   1_565 S
O1237  Zn1319  1.945   .     S
O1238  S1303   1.502   .     D
O1239  S1303   1.681   .     S
O1240  S1307   1.503   .     D
O1241  S1307   1.501   .     D
O1242  S1307   1.682   .     S
O1244  S1308   1.502   .     D
O1245  S1308   1.681   .     S
O1246  S1309   1.503   .     D
O1247  S1309   1.501   .     D
O1248  Zn1314  1.945   .     S
O1249  S1309   1.683   .     S
O1251  S1310   1.502   .     D
O1252  S1310   1.681   .     S
O1253  S1311   1.503   .     D
O1254  S1311   1.501   .     D
O1255  S1311   1.682   .     S
O1256  S1312   1.501   .     D
O1257  S1312   1.503   .     D
O1258  S1312   1.681   .     S
O1259  Zn1328  1.945   .     S
O1259  C703    1.272   1_655 S
O1260  S1282   1.503   .     D
O1261  S1282   1.500   .     D
O1262  S1282   1.682   .     S
O1263  S1283   1.503   .     D
O1264  S1283   1.501   .     D
O1265  S1283   1.681   .     S
O1266  S1284   1.503   .     D
O1267  S1284   1.501   .     D
O1268  S1284   1.682   .     S
O1269  S1285   1.503   .     D
O1270  Zn1316  1.946   .     S
O1271  S1285   1.501   .     D
O1272  S1285   1.681   .     S
O1273  S1286   1.502   .     D
O1274  S1286   1.503   .     D
O1275  S1286   1.682   .     S
O1276  S1287   1.503   .     D
O1277  S1287   1.502   .     D
O1278  S1287   1.681   .     S
O1279  S1288   1.503   .     D
O1280  S1288   1.501   .     D
S1295  C763    1.783   1_655 S
S1295  O822    1.681   1_655 S
S1297  C433    1.783   1_565 S
S1297  O497    1.681   1_565 S
S1299  O1166   1.504   1_554 S
S1302  O1177   1.681   1_556 S
S1308  O911    1.503   1_655 S
S1310  O586    1.503   1_565 S
Zn1315 O529    1.932   1_565 S
Zn1318 O872    1.931   1_655 S
Zn1320 O469    1.933   1_565 S
Zn1328 O883    1.935   1_655 S
