data_str_m1_o1_o2_pcu_sym.113
_audit_creation_date              2020-01-03
_audit_creation_method            'Materials Studio'
_symmetry_space_group_name_H-M    'P1'
_symmetry_Int_Tables_number       1
_symmetry_cell_setting            triclinic
loop_
_symmetry_equiv_pos_as_xyz
  x,y,z
_cell_length_a                    36.7050
_cell_length_b                    36.7051
_cell_length_c                    34.4406
_cell_angle_alpha                 90.0000
_cell_angle_beta                  90.0000
_cell_angle_gamma                 90.0000
loop_
_atom_site_label
_atom_site_type_symbol
_atom_site_fract_x
_atom_site_fract_y
_atom_site_fract_z
_atom_site_U_iso_or_equiv
_atom_site_adp_type
_atom_site_occupancy
C1     C     0.23543   0.02958   0.04149   0.00000  Uiso   1.00
C2     C     0.01457   0.22042   0.45851   0.00000  Uiso   1.00
C3     C     0.34814   0.40186   0.75000   0.00000  Uiso   1.00
C4     C     0.40186   0.15186   0.25000   0.00000  Uiso   1.00
C5     C     0.09814   0.34814   0.75000   0.00000  Uiso   1.00
C6     C     0.34814   0.40186   0.25000   0.00000  Uiso   1.00
C7     C     0.15186   0.09814   0.75000   0.00000  Uiso   1.00
C8     C     0.09814   0.15186   0.75000   0.00000  Uiso   1.00
C9     C     0.40186   0.34814   0.25000   0.00000  Uiso   1.00
C10    C     0.15186   0.40186   0.75000   0.00000  Uiso   1.00
C11    C     0.34814   0.09814   0.25000   0.00000  Uiso   1.00
C12    C     0.40186   0.34814   0.75000   0.00000  Uiso   1.00
C13    C     0.22042   0.48543   0.54149   0.00000  Uiso   1.00
C14    C     0.09814   0.15186   0.25000   0.00000  Uiso   1.00
C15    C     0.34814   0.09814   0.75000   0.00000  Uiso   1.00
C16    C     0.15186   0.40186   0.25000   0.00000  Uiso   1.00
C17    C     0.25000   0.00000   0.10257   0.00000  Uiso   1.00
C18    C     0.25000  -0.00000   0.89743   0.00000  Uiso   1.00
C19    C     0.00000   0.25000   0.10257   0.00000  Uiso   1.00
C20    C     0.00000   0.25000   0.89743   0.00000  Uiso   1.00
C21    C     0.00000   0.25000   0.60257   0.00000  Uiso   1.00
C22    C     0.00000   0.25000   0.39743   0.00000  Uiso   1.00
C23    C     0.25000  -0.00000   0.60257   0.00000  Uiso   1.00
C24    C     0.22042   0.01457   0.45851   0.00000  Uiso   1.00
C25    C     0.25000   0.00000   0.39743   0.00000  Uiso   1.00
C26    C     0.22068   0.06340   0.10162   0.00000  Uiso   1.00
C27    C     0.27933   0.06340   0.89838   0.00000  Uiso   1.00
C28    C     0.06340   0.22068   0.10162   0.00000  Uiso   1.00
C29    C     0.06340   0.27933   0.89838   0.00000  Uiso   1.00
C30    C     0.27932   0.43660   0.10162   0.00000  Uiso   1.00
C31    C     0.22067   0.43660   0.89838   0.00000  Uiso   1.00
C32    C     0.43660   0.27932   0.10162   0.00000  Uiso   1.00
C33    C     0.43660   0.22067   0.89838   0.00000  Uiso   1.00
C34    C     0.47067   0.18660   0.60162   0.00000  Uiso   1.00
C35    C     0.01457   0.27958   0.54149   0.00000  Uiso   1.00
C36    C     0.02932   0.18660   0.39838   0.00000  Uiso   1.00
C37    C     0.18660   0.47068   0.60162   0.00000  Uiso   1.00
C38    C     0.18660   0.02932   0.39838   0.00000  Uiso   1.00
C39    C     0.02933   0.31340   0.60162   0.00000  Uiso   1.00
C40    C     0.47068   0.31340   0.39838   0.00000  Uiso   1.00
C41    C     0.31340   0.02932   0.60162   0.00000  Uiso   1.00
C42    C     0.31340   0.47068   0.39838   0.00000  Uiso   1.00
C43    C     0.48543   0.27958   0.45851   0.00000  Uiso   1.00
C44    C     0.27958   0.01457   0.54149   0.00000  Uiso   1.00
C45    C     0.27958   0.48543   0.45851   0.00000  Uiso   1.00
C46    C     0.23541   0.03026   0.08206   0.00000  Uiso   1.00
C47    C     0.26460   0.03026   0.91794   0.00000  Uiso   1.00
C48    C     0.03026   0.23541   0.08206   0.00000  Uiso   1.00
C49    C     0.26457   0.02958   0.95851   0.00000  Uiso   1.00
C50    C     0.03026   0.26460   0.91794   0.00000  Uiso   1.00
C51    C     0.26460   0.46974   0.08206   0.00000  Uiso   1.00
C52    C     0.23540   0.46974   0.91794   0.00000  Uiso   1.00
C53    C     0.46974   0.26459   0.08206   0.00000  Uiso   1.00
C54    C     0.46974   0.23540   0.91794   0.00000  Uiso   1.00
C55    C     0.48540   0.21974   0.58206   0.00000  Uiso   1.00
C56    C     0.01460   0.21974   0.41794   0.00000  Uiso   1.00
C57    C     0.21974   0.48540   0.58206   0.00000  Uiso   1.00
C58    C     0.21974   0.01460   0.41794   0.00000  Uiso   1.00
C59    C     0.01460   0.28026   0.58206   0.00000  Uiso   1.00
C60    C     0.02958   0.23543   0.04149   0.00000  Uiso   1.00
C61    C     0.48541   0.28026   0.41794   0.00000  Uiso   1.00
C62    C     0.28026   0.01460   0.58206   0.00000  Uiso   1.00
C63    C     0.28026   0.48540   0.41794   0.00000  Uiso   1.00
C64    C     0.25000   0.00000   0.02128   0.00000  Uiso   1.00
C65    C     0.25000  -0.00000   0.97872   0.00000  Uiso   1.00
C66    C     0.00000   0.25000   0.02128   0.00000  Uiso   1.00
C67    C     0.00000   0.25000   0.97872   0.00000  Uiso   1.00
C68    C     0.00000   0.25000   0.52128   0.00000  Uiso   1.00
C69    C     0.00000   0.25000   0.47872   0.00000  Uiso   1.00
C70    C     0.25000   0.00000   0.52128   0.00000  Uiso   1.00
C71    C     0.02958   0.26457   0.95851   0.00000  Uiso   1.00
C72    C     0.25000  -0.00000   0.47872   0.00000  Uiso   1.00
C73    C     0.25000   0.00000   0.35506   0.00000  Uiso   1.00
C74    C     0.25000  -0.00000   0.64494   0.00000  Uiso   1.00
C75    C     0.00000   0.25000   0.35506   0.00000  Uiso   1.00
C76    C     0.00000   0.25000   0.64494   0.00000  Uiso   1.00
C77    C     0.00000   0.25000   0.85506   0.00000  Uiso   1.00
C78    C     0.00000   0.25000   0.14494   0.00000  Uiso   1.00
C79    C     0.25000   0.00000   0.85506   0.00000  Uiso   1.00
C80    C     0.25000   0.00000   0.14494   0.00000  Uiso   1.00
C81    C     0.17992   0.07008   0.25000   0.00000  Uiso   1.00
C82    C     0.26457   0.47042   0.04149   0.00000  Uiso   1.00
C83    C     0.32008   0.42992   0.75000   0.00000  Uiso   1.00
C84    C     0.42992   0.17992   0.25000   0.00000  Uiso   1.00
C85    C     0.07008   0.32008   0.75000   0.00000  Uiso   1.00
C86    C     0.32008   0.42992   0.25000   0.00000  Uiso   1.00
C87    C     0.17992   0.07008   0.75000   0.00000  Uiso   1.00
C88    C     0.07008   0.32008   0.25000   0.00000  Uiso   1.00
C89    C     0.42992   0.17992   0.75000   0.00000  Uiso   1.00
C90    C     0.17992   0.42992   0.75000   0.00000  Uiso   1.00
C91    C     0.32008   0.07008   0.25000   0.00000  Uiso   1.00
C92    C     0.42992   0.32008   0.75000   0.00000  Uiso   1.00
C93    C     0.23543   0.47042   0.95851   0.00000  Uiso   1.00
C94    C     0.07008   0.17992   0.25000   0.00000  Uiso   1.00
C95    C     0.32008   0.07008   0.75000   0.00000  Uiso   1.00
C96    C     0.17992   0.42992   0.25000   0.00000  Uiso   1.00
C97    C     0.07008   0.17992   0.75000   0.00000  Uiso   1.00
C98    C     0.42992   0.32008   0.25000   0.00000  Uiso   1.00
C99    C     0.12183   0.40488   0.22506   0.00000  Uiso   1.00
C100   C     0.37748   0.09580   0.77594   0.00000  Uiso   1.00
C101   C     0.09580   0.12252   0.22406   0.00000  Uiso   1.00
C102   C     0.40489   0.37817   0.77494   0.00000  Uiso   1.00
C103   C     0.37817   0.09512   0.22505   0.00000  Uiso   1.00
C104   C     0.47042   0.26457   0.04149   0.00000  Uiso   1.00
C105   C     0.12252   0.40420   0.77594   0.00000  Uiso   1.00
C106   C     0.40420   0.37748   0.22406   0.00000  Uiso   1.00
C107   C     0.09512   0.12183   0.77494   0.00000  Uiso   1.00
C108   C     0.12183   0.09512   0.77494   0.00000  Uiso   1.00
C109   C     0.37748   0.40420   0.22406   0.00000  Uiso   1.00
C110   C     0.09580   0.37748   0.77594   0.00000  Uiso   1.00
C111   C     0.40489   0.12183   0.22505   0.00000  Uiso   1.00
C112   C     0.37817   0.40489   0.77494   0.00000  Uiso   1.00
C113   C     0.12252   0.09580   0.22406   0.00000  Uiso   1.00
C114   C     0.40420   0.12252   0.77594   0.00000  Uiso   1.00
C115   C     0.47042   0.23543   0.95851   0.00000  Uiso   1.00
C116   C     0.09512   0.37817   0.22506   0.00000  Uiso   1.00
C117   C     0.37252   0.15420   0.72406   0.00000  Uiso   1.00
C118   C     0.12817   0.34511   0.27495   0.00000  Uiso   1.00
C119   C     0.34512   0.37183   0.72505   0.00000  Uiso   1.00
C120   C     0.15420   0.12748   0.27594   0.00000  Uiso   1.00
C121   C     0.12748   0.34580   0.72406   0.00000  Uiso   1.00
C122   C     0.37183   0.15489   0.27494   0.00000  Uiso   1.00
C123   C     0.15489   0.12817   0.72505   0.00000  Uiso   1.00
C124   C     0.34580   0.37252   0.27594   0.00000  Uiso   1.00
C125   C     0.37252   0.34580   0.27594   0.00000  Uiso   1.00
C126   C     0.48543   0.22042   0.54149   0.00000  Uiso   1.00
C127   C     0.12817   0.15488   0.72505   0.00000  Uiso   1.00
C128   C     0.34512   0.12817   0.27494   0.00000  Uiso   1.00
C129   C     0.15420   0.37252   0.72406   0.00000  Uiso   1.00
C130   C     0.12748   0.15420   0.27594   0.00000  Uiso   1.00
C131   C     0.37183   0.34512   0.72505   0.00000  Uiso   1.00
C132   C     0.15489   0.37183   0.27495   0.00000  Uiso   1.00
C133   C     0.34580   0.12748   0.72406   0.00000  Uiso   1.00
C134   C     0.09814   0.34814   0.25000   0.00000  Uiso   1.00
C135   C     0.40186   0.15186   0.75000   0.00000  Uiso   1.00
C136   C     0.15186   0.09814   0.25000   0.00000  Uiso   1.00
H137   H     0.22433   0.05235   0.02531   0.00000  Uiso   1.00
H138   H     0.02567   0.19765   0.47469   0.00000  Uiso   1.00
H139   H     0.19765   0.47433   0.52531   0.00000  Uiso   1.00
H140   H     0.19765   0.02567   0.47469   0.00000  Uiso   1.00
H141   H     0.02567   0.30235   0.52531   0.00000  Uiso   1.00
H142   H     0.47433   0.30235   0.47469   0.00000  Uiso   1.00
H143   H     0.30235   0.02567   0.52531   0.00000  Uiso   1.00
H144   H     0.30235   0.47433   0.47469   0.00000  Uiso   1.00
H145   H     0.11894   0.42785   0.20554   0.00000  Uiso   1.00
H146   H     0.37980   0.07341   0.79627   0.00000  Uiso   1.00
H147   H     0.07341   0.12020   0.20373   0.00000  Uiso   1.00
H148   H     0.27567   0.05235   0.97469   0.00000  Uiso   1.00
H149   H     0.42785   0.38106   0.79445   0.00000  Uiso   1.00
H150   H     0.38106   0.07215   0.20554   0.00000  Uiso   1.00
H151   H     0.12020   0.42659   0.79627   0.00000  Uiso   1.00
H152   H     0.42659   0.37980   0.20373   0.00000  Uiso   1.00
H153   H     0.07215   0.11894   0.79445   0.00000  Uiso   1.00
H154   H     0.11894   0.07215   0.79445   0.00000  Uiso   1.00
H155   H     0.37980   0.42659   0.20373   0.00000  Uiso   1.00
H156   H     0.07341   0.37980   0.79627   0.00000  Uiso   1.00
H157   H     0.42785   0.11894   0.20554   0.00000  Uiso   1.00
H158   H     0.38106   0.42785   0.79445   0.00000  Uiso   1.00
H159   H     0.05235   0.22433   0.02531   0.00000  Uiso   1.00
H160   H     0.12020   0.07341   0.20373   0.00000  Uiso   1.00
H161   H     0.42659   0.12020   0.79627   0.00000  Uiso   1.00
H162   H     0.07215   0.38106   0.20554   0.00000  Uiso   1.00
H163   H     0.37020   0.17659   0.70373   0.00000  Uiso   1.00
H164   H     0.13106   0.32215   0.29446   0.00000  Uiso   1.00
H165   H     0.32215   0.36894   0.70554   0.00000  Uiso   1.00
H166   H     0.17659   0.12980   0.29627   0.00000  Uiso   1.00
H167   H     0.12980   0.32341   0.70373   0.00000  Uiso   1.00
H168   H     0.36894   0.17785   0.29445   0.00000  Uiso   1.00
H169   H     0.17785   0.13106   0.70554   0.00000  Uiso   1.00
H170   H     0.05235   0.27567   0.97469   0.00000  Uiso   1.00
H171   H     0.32341   0.37020   0.29627   0.00000  Uiso   1.00
H172   H     0.37020   0.32341   0.29627   0.00000  Uiso   1.00
H173   H     0.13106   0.17785   0.70554   0.00000  Uiso   1.00
H174   H     0.32215   0.13106   0.29445   0.00000  Uiso   1.00
H175   H     0.17659   0.37020   0.70373   0.00000  Uiso   1.00
H176   H     0.12980   0.17659   0.29627   0.00000  Uiso   1.00
H177   H     0.36894   0.32215   0.70554   0.00000  Uiso   1.00
H178   H     0.17785   0.36894   0.29446   0.00000  Uiso   1.00
H179   H     0.32341   0.12980   0.70373   0.00000  Uiso   1.00
H180   H     0.18737   0.10707   0.09830   0.00000  Uiso   1.00
H181   H     0.27567   0.44765   0.02531   0.00000  Uiso   1.00
H182   H     0.31264   0.10707   0.90170   0.00000  Uiso   1.00
H183   H     0.10707   0.18737   0.09830   0.00000  Uiso   1.00
H184   H     0.10707   0.31264   0.90170   0.00000  Uiso   1.00
H185   H     0.31263   0.39293   0.09830   0.00000  Uiso   1.00
H186   H     0.18736   0.39293   0.90170   0.00000  Uiso   1.00
H187   H     0.39293   0.31263   0.09830   0.00000  Uiso   1.00
H188   H     0.39293   0.18736   0.90170   0.00000  Uiso   1.00
H189   H     0.43736   0.14293   0.59830   0.00000  Uiso   1.00
H190   H     0.06263   0.14293   0.40170   0.00000  Uiso   1.00
H191   H     0.14293   0.43736   0.59830   0.00000  Uiso   1.00
H192   H     0.22433   0.44765   0.97469   0.00000  Uiso   1.00
H193   H     0.14293   0.06264   0.40170   0.00000  Uiso   1.00
H194   H     0.06264   0.35707   0.59830   0.00000  Uiso   1.00
H195   H     0.43737   0.35707   0.40170   0.00000  Uiso   1.00
H196   H     0.35707   0.06264   0.59830   0.00000  Uiso   1.00
H197   H     0.35707   0.43736   0.40170   0.00000  Uiso   1.00
H198   H     0.44765   0.27567   0.02531   0.00000  Uiso   1.00
H199   H     0.44765   0.22433   0.97469   0.00000  Uiso   1.00
H200   H     0.47433   0.19765   0.52531   0.00000  Uiso   1.00
O201   O     0.25000   0.00000   0.25000   0.00000  Uiso   1.00
O202   O     0.25000   0.46964   0.66317   0.00000  Uiso   1.00
O203   O     0.46964   0.25000   0.33683   0.00000  Uiso   1.00
O204   O     0.03036   0.25000   0.66317   0.00000  Uiso   1.00
O205   O     0.00000   0.21964   0.83683   0.00000  Uiso   1.00
O206   O     0.00000   0.28036   0.16317   0.00000  Uiso   1.00
O207   O     0.28036   0.00000   0.83683   0.00000  Uiso   1.00
O208   O     0.21964   0.00000   0.16317   0.00000  Uiso   1.00
O209   O     0.00000   0.28036   0.83683   0.00000  Uiso   1.00
O210   O     0.00000   0.21964   0.16317   0.00000  Uiso   1.00
O211   O     0.21964   0.00000   0.83683   0.00000  Uiso   1.00
O212   O     0.25000   0.00000   0.75000   0.00000  Uiso   1.00
O213   O     0.28036   0.00000   0.16317   0.00000  Uiso   1.00
O214   O     0.20726   0.07307   0.27282   0.00000  Uiso   1.00
O215   O     0.29275   0.42693   0.72718   0.00000  Uiso   1.00
O216   O     0.42693   0.20726   0.27282   0.00000  Uiso   1.00
O217   O     0.07307   0.29274   0.72718   0.00000  Uiso   1.00
O218   O     0.29275   0.42693   0.27282   0.00000  Uiso   1.00
O219   O     0.20726   0.07307   0.72718   0.00000  Uiso   1.00
O220   O     0.07307   0.29274   0.27282   0.00000  Uiso   1.00
O221   O     0.42693   0.20726   0.72718   0.00000  Uiso   1.00
O222   O     0.20726   0.42693   0.72718   0.00000  Uiso   1.00
O223   O     0.00000   0.25000   0.25000   0.00000  Uiso   1.00
O224   O     0.29275   0.07307   0.27282   0.00000  Uiso   1.00
O225   O     0.42693   0.29275   0.72718   0.00000  Uiso   1.00
O226   O     0.07307   0.20725   0.27282   0.00000  Uiso   1.00
O227   O     0.29275   0.07307   0.72718   0.00000  Uiso   1.00
O228   O     0.20726   0.42693   0.27282   0.00000  Uiso   1.00
O229   O     0.07307   0.20725   0.72718   0.00000  Uiso   1.00
O230   O     0.42693   0.29275   0.27282   0.00000  Uiso   1.00
O231   O     0.45726   0.32307   0.77282   0.00000  Uiso   1.00
O232   O     0.04275   0.17693   0.22718   0.00000  Uiso   1.00
O233   O     0.17693   0.45725   0.77282   0.00000  Uiso   1.00
O234   O     0.00000   0.25000   0.75000   0.00000  Uiso   1.00
O235   O     0.32307   0.04275   0.22718   0.00000  Uiso   1.00
O236   O     0.04275   0.17693   0.77282   0.00000  Uiso   1.00
O237   O     0.45726   0.32307   0.22718   0.00000  Uiso   1.00
O238   O     0.32307   0.04275   0.77282   0.00000  Uiso   1.00
O239   O     0.17693   0.45725   0.22718   0.00000  Uiso   1.00
O240   O     0.45726   0.17693   0.22718   0.00000  Uiso   1.00
O241   O     0.04275   0.32307   0.77282   0.00000  Uiso   1.00
O242   O     0.17693   0.04275   0.22718   0.00000  Uiso   1.00
O243   O     0.32307   0.45725   0.77282   0.00000  Uiso   1.00
O244   O     0.04275   0.32307   0.22718   0.00000  Uiso   1.00
O245   O     0.25000   0.46964   0.33683   0.00000  Uiso   1.00
O246   O     0.45726   0.17693   0.77282   0.00000  Uiso   1.00
O247   O     0.32307   0.45725   0.22718   0.00000  Uiso   1.00
O248   O     0.17693   0.04275   0.77282   0.00000  Uiso   1.00
O249   O     0.23122   0.07224   0.13395   0.00000  Uiso   1.00
O250   O     0.19520   0.08522   0.08233   0.00000  Uiso   1.00
O251   O     0.26878   0.07224   0.86604   0.00000  Uiso   1.00
O252   O     0.30480   0.08522   0.91767   0.00000  Uiso   1.00
O253   O     0.07224   0.23122   0.13396   0.00000  Uiso   1.00
O254   O     0.08523   0.19520   0.08233   0.00000  Uiso   1.00
O255   O     0.07224   0.26878   0.86605   0.00000  Uiso   1.00
O256   O     0.25000   0.03036   0.66317   0.00000  Uiso   1.00
O257   O     0.08522   0.30480   0.91767   0.00000  Uiso   1.00
O258   O     0.26878   0.42776   0.13396   0.00000  Uiso   1.00
O259   O     0.30480   0.41478   0.08233   0.00000  Uiso   1.00
O260   O     0.23122   0.42776   0.86605   0.00000  Uiso   1.00
O261   O     0.19520   0.41478   0.91767   0.00000  Uiso   1.00
O262   O     0.42776   0.26878   0.13395   0.00000  Uiso   1.00
O263   O     0.41478   0.30480   0.08233   0.00000  Uiso   1.00
O264   O     0.42776   0.23122   0.86604   0.00000  Uiso   1.00
O265   O     0.41478   0.19520   0.91767   0.00000  Uiso   1.00
O266   O     0.48122   0.17776   0.63395   0.00000  Uiso   1.00
O267   O     0.03036   0.25000   0.33683   0.00000  Uiso   1.00
O268   O     0.44520   0.16478   0.58233   0.00000  Uiso   1.00
O269   O     0.01878   0.17776   0.36605   0.00000  Uiso   1.00
O270   O     0.05480   0.16478   0.41767   0.00000  Uiso   1.00
O271   O     0.17776   0.48122   0.63396   0.00000  Uiso   1.00
O272   O     0.16478   0.44520   0.58233   0.00000  Uiso   1.00
O273   O     0.17776   0.01878   0.36604   0.00000  Uiso   1.00
O274   O     0.16478   0.05480   0.41767   0.00000  Uiso   1.00
O275   O     0.01878   0.32224   0.63396   0.00000  Uiso   1.00
O276   O     0.05480   0.33522   0.58233   0.00000  Uiso   1.00
O277   O     0.48122   0.32224   0.36604   0.00000  Uiso   1.00
O278   O     0.46964   0.25000   0.66317   0.00000  Uiso   1.00
O279   O     0.44520   0.33522   0.41767   0.00000  Uiso   1.00
O280   O     0.32224   0.01878   0.63395   0.00000  Uiso   1.00
O281   O     0.33522   0.05480   0.58233   0.00000  Uiso   1.00
O282   O     0.32224   0.48122   0.36605   0.00000  Uiso   1.00
O283   O     0.33522   0.44520   0.41767   0.00000  Uiso   1.00
O284   O     0.25000   0.03036   0.33683   0.00000  Uiso   1.00
Zn285  Zn    0.20660  -0.00000   0.21760   0.00000  Uiso   1.00
Zn286  Zn    0.04340   0.25000   0.28240   0.00000  Uiso   1.00
Zn287  Zn    0.25000   0.45660   0.71760   0.00000  Uiso   1.00
Zn288  Zn    0.25000   0.04340   0.28240   0.00000  Uiso   1.00
Zn289  Zn    0.04340   0.25000   0.71760   0.00000  Uiso   1.00
Zn290  Zn    0.45660   0.25000   0.28240   0.00000  Uiso   1.00
Zn291  Zn    0.25000   0.04340   0.71760   0.00000  Uiso   1.00
Zn292  Zn    0.25000   0.45660   0.28240   0.00000  Uiso   1.00
Zn293  Zn    0.29340   0.00000   0.78240   0.00000  Uiso   1.00
Zn294  Zn    0.00000   0.20660   0.21760   0.00000  Uiso   1.00
Zn295  Zn    0.00000   0.29340   0.78240   0.00000  Uiso   1.00
Zn296  Zn    0.29340  -0.00000   0.21760   0.00000  Uiso   1.00
Zn297  Zn    0.20660   0.00000   0.78240   0.00000  Uiso   1.00
Zn298  Zn    0.00000   0.29340   0.21760   0.00000  Uiso   1.00
Zn299  Zn    0.00000   0.20660   0.78240   0.00000  Uiso   1.00
Zn300  Zn    0.45660   0.25000   0.71760   0.00000  Uiso   1.00
C301   C     0.73543   0.02958   0.04149   0.00000  Uiso   1.00
C302   C     0.51457   0.22042   0.45851   0.00000  Uiso   1.00
C303   C     0.84814   0.40186   0.75000   0.00000  Uiso   1.00
C304   C     0.90186   0.15186   0.25000   0.00000  Uiso   1.00
C305   C     0.59814   0.34814   0.75000   0.00000  Uiso   1.00
C306   C     0.84814   0.40186   0.25000   0.00000  Uiso   1.00
C307   C     0.65186   0.09814   0.75000   0.00000  Uiso   1.00
C308   C     0.59814   0.15186   0.75000   0.00000  Uiso   1.00
C309   C     0.90186   0.34814   0.25000   0.00000  Uiso   1.00
C310   C     0.65186   0.40186   0.75000   0.00000  Uiso   1.00
C311   C     0.84814   0.09814   0.25000   0.00000  Uiso   1.00
C312   C     0.90186   0.34814   0.75000   0.00000  Uiso   1.00
C313   C     0.72042   0.48543   0.54149   0.00000  Uiso   1.00
C314   C     0.59814   0.15186   0.25000   0.00000  Uiso   1.00
C315   C     0.84814   0.09814   0.75000   0.00000  Uiso   1.00
C316   C     0.65186   0.40186   0.25000   0.00000  Uiso   1.00
C317   C     0.75000   0.00000   0.10257   0.00000  Uiso   1.00
C318   C     0.75000  -0.00000   0.89743   0.00000  Uiso   1.00
C319   C     0.50000   0.25000   0.10257   0.00000  Uiso   1.00
C320   C     0.50000   0.25000   0.89743   0.00000  Uiso   1.00
C321   C     0.50000   0.25000   0.60257   0.00000  Uiso   1.00
C322   C     0.50000   0.25000   0.39743   0.00000  Uiso   1.00
C323   C     0.75000  -0.00000   0.60257   0.00000  Uiso   1.00
C324   C     0.72042   0.01457   0.45851   0.00000  Uiso   1.00
C325   C     0.75000   0.00000   0.39743   0.00000  Uiso   1.00
C326   C     0.72068   0.06340   0.10162   0.00000  Uiso   1.00
C327   C     0.77933   0.06340   0.89838   0.00000  Uiso   1.00
C328   C     0.56340   0.22068   0.10162   0.00000  Uiso   1.00
C329   C     0.56340   0.27933   0.89838   0.00000  Uiso   1.00
C330   C     0.77932   0.43660   0.10162   0.00000  Uiso   1.00
C331   C     0.72067   0.43660   0.89838   0.00000  Uiso   1.00
C332   C     0.93660   0.27932   0.10162   0.00000  Uiso   1.00
C333   C     0.93660   0.22067   0.89838   0.00000  Uiso   1.00
C334   C     0.97067   0.18660   0.60162   0.00000  Uiso   1.00
C335   C     0.51457   0.27958   0.54149   0.00000  Uiso   1.00
C336   C     0.52932   0.18660   0.39838   0.00000  Uiso   1.00
C337   C     0.68660   0.47068   0.60162   0.00000  Uiso   1.00
C338   C     0.68660   0.02932   0.39838   0.00000  Uiso   1.00
C339   C     0.52933   0.31340   0.60162   0.00000  Uiso   1.00
C340   C     0.97068   0.31340   0.39838   0.00000  Uiso   1.00
C341   C     0.81340   0.02932   0.60162   0.00000  Uiso   1.00
C342   C     0.81340   0.47068   0.39838   0.00000  Uiso   1.00
C343   C     0.98543   0.27958   0.45851   0.00000  Uiso   1.00
C344   C     0.77958   0.01457   0.54149   0.00000  Uiso   1.00
C345   C     0.77958   0.48543   0.45851   0.00000  Uiso   1.00
C346   C     0.73541   0.03026   0.08206   0.00000  Uiso   1.00
C347   C     0.76460   0.03026   0.91794   0.00000  Uiso   1.00
C348   C     0.53026   0.23541   0.08206   0.00000  Uiso   1.00
C349   C     0.76457   0.02958   0.95851   0.00000  Uiso   1.00
C350   C     0.53026   0.26460   0.91794   0.00000  Uiso   1.00
C351   C     0.76460   0.46974   0.08206   0.00000  Uiso   1.00
C352   C     0.73540   0.46974   0.91794   0.00000  Uiso   1.00
C353   C     0.96974   0.26459   0.08206   0.00000  Uiso   1.00
C354   C     0.96974   0.23540   0.91794   0.00000  Uiso   1.00
C355   C     0.98540   0.21974   0.58206   0.00000  Uiso   1.00
C356   C     0.51460   0.21974   0.41794   0.00000  Uiso   1.00
C357   C     0.71974   0.48540   0.58206   0.00000  Uiso   1.00
C358   C     0.71974   0.01460   0.41794   0.00000  Uiso   1.00
C359   C     0.51460   0.28026   0.58206   0.00000  Uiso   1.00
C360   C     0.52958   0.23543   0.04149   0.00000  Uiso   1.00
C361   C     0.98541   0.28026   0.41794   0.00000  Uiso   1.00
C362   C     0.78026   0.01460   0.58206   0.00000  Uiso   1.00
C363   C     0.78026   0.48540   0.41794   0.00000  Uiso   1.00
C364   C     0.75000   0.00000   0.02128   0.00000  Uiso   1.00
C365   C     0.75000  -0.00000   0.97872   0.00000  Uiso   1.00
C366   C     0.50000   0.25000   0.02128   0.00000  Uiso   1.00
C367   C     0.50000   0.25000   0.97872   0.00000  Uiso   1.00
C368   C     0.50000   0.25000   0.52128   0.00000  Uiso   1.00
C369   C     0.50000   0.25000   0.47872   0.00000  Uiso   1.00
C370   C     0.75000   0.00000   0.52128   0.00000  Uiso   1.00
C371   C     0.52958   0.26457   0.95851   0.00000  Uiso   1.00
C372   C     0.75000  -0.00000   0.47872   0.00000  Uiso   1.00
C373   C     0.75000   0.00000   0.35506   0.00000  Uiso   1.00
C374   C     0.75000  -0.00000   0.64494   0.00000  Uiso   1.00
C375   C     0.50000   0.25000   0.35506   0.00000  Uiso   1.00
C376   C     0.50000   0.25000   0.64494   0.00000  Uiso   1.00
C377   C     0.50000   0.25000   0.85506   0.00000  Uiso   1.00
C378   C     0.50000   0.25000   0.14494   0.00000  Uiso   1.00
C379   C     0.75000   0.00000   0.85506   0.00000  Uiso   1.00
C380   C     0.75000   0.00000   0.14494   0.00000  Uiso   1.00
C381   C     0.67992   0.07008   0.25000   0.00000  Uiso   1.00
C382   C     0.76457   0.47042   0.04149   0.00000  Uiso   1.00
C383   C     0.82008   0.42992   0.75000   0.00000  Uiso   1.00
C384   C     0.92992   0.17992   0.25000   0.00000  Uiso   1.00
C385   C     0.57008   0.32008   0.75000   0.00000  Uiso   1.00
C386   C     0.82008   0.42992   0.25000   0.00000  Uiso   1.00
C387   C     0.67992   0.07008   0.75000   0.00000  Uiso   1.00
C388   C     0.57008   0.32008   0.25000   0.00000  Uiso   1.00
C389   C     0.92992   0.17992   0.75000   0.00000  Uiso   1.00
C390   C     0.67992   0.42992   0.75000   0.00000  Uiso   1.00
C391   C     0.82008   0.07008   0.25000   0.00000  Uiso   1.00
C392   C     0.92992   0.32008   0.75000   0.00000  Uiso   1.00
C393   C     0.73543   0.47042   0.95851   0.00000  Uiso   1.00
C394   C     0.57008   0.17992   0.25000   0.00000  Uiso   1.00
C395   C     0.82008   0.07008   0.75000   0.00000  Uiso   1.00
C396   C     0.67992   0.42992   0.25000   0.00000  Uiso   1.00
C397   C     0.57008   0.17992   0.75000   0.00000  Uiso   1.00
C398   C     0.92992   0.32008   0.25000   0.00000  Uiso   1.00
C399   C     0.62183   0.40488   0.22506   0.00000  Uiso   1.00
C400   C     0.87748   0.09580   0.77594   0.00000  Uiso   1.00
C401   C     0.59580   0.12252   0.22406   0.00000  Uiso   1.00
C402   C     0.90489   0.37817   0.77494   0.00000  Uiso   1.00
C403   C     0.87817   0.09512   0.22505   0.00000  Uiso   1.00
C404   C     0.97042   0.26457   0.04149   0.00000  Uiso   1.00
C405   C     0.62252   0.40420   0.77594   0.00000  Uiso   1.00
C406   C     0.90420   0.37748   0.22406   0.00000  Uiso   1.00
C407   C     0.59512   0.12183   0.77494   0.00000  Uiso   1.00
C408   C     0.62183   0.09512   0.77494   0.00000  Uiso   1.00
C409   C     0.87748   0.40420   0.22406   0.00000  Uiso   1.00
C410   C     0.59580   0.37748   0.77594   0.00000  Uiso   1.00
C411   C     0.90489   0.12183   0.22505   0.00000  Uiso   1.00
C412   C     0.87817   0.40489   0.77494   0.00000  Uiso   1.00
C413   C     0.62252   0.09580   0.22406   0.00000  Uiso   1.00
C414   C     0.90420   0.12252   0.77594   0.00000  Uiso   1.00
C415   C     0.97042   0.23543   0.95851   0.00000  Uiso   1.00
C416   C     0.59512   0.37817   0.22506   0.00000  Uiso   1.00
C417   C     0.87252   0.15420   0.72406   0.00000  Uiso   1.00
C418   C     0.62817   0.34511   0.27495   0.00000  Uiso   1.00
C419   C     0.84512   0.37183   0.72505   0.00000  Uiso   1.00
C420   C     0.65420   0.12748   0.27594   0.00000  Uiso   1.00
C421   C     0.62748   0.34580   0.72406   0.00000  Uiso   1.00
C422   C     0.87183   0.15489   0.27494   0.00000  Uiso   1.00
C423   C     0.65489   0.12817   0.72505   0.00000  Uiso   1.00
C424   C     0.84580   0.37252   0.27594   0.00000  Uiso   1.00
C425   C     0.87252   0.34580   0.27594   0.00000  Uiso   1.00
C426   C     0.98543   0.22042   0.54149   0.00000  Uiso   1.00
C427   C     0.62817   0.15488   0.72505   0.00000  Uiso   1.00
C428   C     0.84512   0.12817   0.27494   0.00000  Uiso   1.00
C429   C     0.65420   0.37252   0.72406   0.00000  Uiso   1.00
C430   C     0.62748   0.15420   0.27594   0.00000  Uiso   1.00
C431   C     0.87183   0.34512   0.72505   0.00000  Uiso   1.00
C432   C     0.65489   0.37183   0.27495   0.00000  Uiso   1.00
C433   C     0.84580   0.12748   0.72406   0.00000  Uiso   1.00
C434   C     0.59814   0.34814   0.25000   0.00000  Uiso   1.00
C435   C     0.90186   0.15186   0.75000   0.00000  Uiso   1.00
C436   C     0.65186   0.09814   0.25000   0.00000  Uiso   1.00
H437   H     0.72433   0.05235   0.02531   0.00000  Uiso   1.00
H438   H     0.52567   0.19765   0.47469   0.00000  Uiso   1.00
H439   H     0.69765   0.47433   0.52531   0.00000  Uiso   1.00
H440   H     0.69765   0.02567   0.47469   0.00000  Uiso   1.00
H441   H     0.52567   0.30235   0.52531   0.00000  Uiso   1.00
H442   H     0.97433   0.30235   0.47469   0.00000  Uiso   1.00
H443   H     0.80235   0.02567   0.52531   0.00000  Uiso   1.00
H444   H     0.80235   0.47433   0.47469   0.00000  Uiso   1.00
H445   H     0.61894   0.42785   0.20554   0.00000  Uiso   1.00
H446   H     0.87980   0.07341   0.79627   0.00000  Uiso   1.00
H447   H     0.57341   0.12020   0.20373   0.00000  Uiso   1.00
H448   H     0.77567   0.05235   0.97469   0.00000  Uiso   1.00
H449   H     0.92785   0.38106   0.79445   0.00000  Uiso   1.00
H450   H     0.88106   0.07215   0.20554   0.00000  Uiso   1.00
H451   H     0.62020   0.42659   0.79627   0.00000  Uiso   1.00
H452   H     0.92659   0.37980   0.20373   0.00000  Uiso   1.00
H453   H     0.57215   0.11894   0.79445   0.00000  Uiso   1.00
H454   H     0.61894   0.07215   0.79445   0.00000  Uiso   1.00
H455   H     0.87980   0.42659   0.20373   0.00000  Uiso   1.00
H456   H     0.57341   0.37980   0.79627   0.00000  Uiso   1.00
H457   H     0.92785   0.11894   0.20554   0.00000  Uiso   1.00
H458   H     0.88106   0.42785   0.79445   0.00000  Uiso   1.00
H459   H     0.55235   0.22433   0.02531   0.00000  Uiso   1.00
H460   H     0.62020   0.07341   0.20373   0.00000  Uiso   1.00
H461   H     0.92659   0.12020   0.79627   0.00000  Uiso   1.00
H462   H     0.57215   0.38106   0.20554   0.00000  Uiso   1.00
H463   H     0.87020   0.17659   0.70373   0.00000  Uiso   1.00
H464   H     0.63106   0.32215   0.29446   0.00000  Uiso   1.00
H465   H     0.82215   0.36894   0.70554   0.00000  Uiso   1.00
H466   H     0.67659   0.12980   0.29627   0.00000  Uiso   1.00
H467   H     0.62980   0.32341   0.70373   0.00000  Uiso   1.00
H468   H     0.86894   0.17785   0.29445   0.00000  Uiso   1.00
H469   H     0.67785   0.13106   0.70554   0.00000  Uiso   1.00
H470   H     0.55235   0.27567   0.97469   0.00000  Uiso   1.00
H471   H     0.82341   0.37020   0.29627   0.00000  Uiso   1.00
H472   H     0.87020   0.32341   0.29627   0.00000  Uiso   1.00
H473   H     0.63106   0.17785   0.70554   0.00000  Uiso   1.00
H474   H     0.82215   0.13106   0.29445   0.00000  Uiso   1.00
H475   H     0.67659   0.37020   0.70373   0.00000  Uiso   1.00
H476   H     0.62980   0.17659   0.29627   0.00000  Uiso   1.00
H477   H     0.86894   0.32215   0.70554   0.00000  Uiso   1.00
H478   H     0.67785   0.36894   0.29446   0.00000  Uiso   1.00
H479   H     0.82341   0.12980   0.70373   0.00000  Uiso   1.00
H480   H     0.68737   0.10707   0.09830   0.00000  Uiso   1.00
H481   H     0.77567   0.44765   0.02531   0.00000  Uiso   1.00
H482   H     0.81264   0.10707   0.90170   0.00000  Uiso   1.00
H483   H     0.60707   0.18737   0.09830   0.00000  Uiso   1.00
H484   H     0.60707   0.31264   0.90170   0.00000  Uiso   1.00
H485   H     0.81263   0.39293   0.09830   0.00000  Uiso   1.00
H486   H     0.68736   0.39293   0.90170   0.00000  Uiso   1.00
H487   H     0.89293   0.31263   0.09830   0.00000  Uiso   1.00
H488   H     0.89293   0.18736   0.90170   0.00000  Uiso   1.00
H489   H     0.93736   0.14293   0.59830   0.00000  Uiso   1.00
H490   H     0.56263   0.14293   0.40170   0.00000  Uiso   1.00
H491   H     0.64293   0.43736   0.59830   0.00000  Uiso   1.00
H492   H     0.72433   0.44765   0.97469   0.00000  Uiso   1.00
H493   H     0.64293   0.06264   0.40170   0.00000  Uiso   1.00
H494   H     0.56264   0.35707   0.59830   0.00000  Uiso   1.00
H495   H     0.93737   0.35707   0.40170   0.00000  Uiso   1.00
H496   H     0.85707   0.06264   0.59830   0.00000  Uiso   1.00
H497   H     0.85707   0.43736   0.40170   0.00000  Uiso   1.00
H498   H     0.94765   0.27567   0.02531   0.00000  Uiso   1.00
H499   H     0.94765   0.22433   0.97469   0.00000  Uiso   1.00
H500   H     0.97433   0.19765   0.52531   0.00000  Uiso   1.00
O501   O     0.75000   0.00000   0.25000   0.00000  Uiso   1.00
O502   O     0.75000   0.46964   0.66317   0.00000  Uiso   1.00
O503   O     0.96964   0.25000   0.33683   0.00000  Uiso   1.00
O504   O     0.53036   0.25000   0.66317   0.00000  Uiso   1.00
O505   O     0.50000   0.21964   0.83683   0.00000  Uiso   1.00
O506   O     0.50000   0.28036   0.16317   0.00000  Uiso   1.00
O507   O     0.78036   0.00000   0.83683   0.00000  Uiso   1.00
O508   O     0.71964   0.00000   0.16317   0.00000  Uiso   1.00
O509   O     0.50000   0.28036   0.83683   0.00000  Uiso   1.00
O510   O     0.50000   0.21964   0.16317   0.00000  Uiso   1.00
O511   O     0.71964   0.00000   0.83683   0.00000  Uiso   1.00
O512   O     0.75000   0.00000   0.75000   0.00000  Uiso   1.00
O513   O     0.78036   0.00000   0.16317   0.00000  Uiso   1.00
O514   O     0.70726   0.07307   0.27282   0.00000  Uiso   1.00
O515   O     0.79275   0.42693   0.72718   0.00000  Uiso   1.00
O516   O     0.92693   0.20726   0.27282   0.00000  Uiso   1.00
O517   O     0.57307   0.29274   0.72718   0.00000  Uiso   1.00
O518   O     0.79275   0.42693   0.27282   0.00000  Uiso   1.00
O519   O     0.70726   0.07307   0.72718   0.00000  Uiso   1.00
O520   O     0.57307   0.29274   0.27282   0.00000  Uiso   1.00
O521   O     0.92693   0.20726   0.72718   0.00000  Uiso   1.00
O522   O     0.70726   0.42693   0.72718   0.00000  Uiso   1.00
O523   O     0.50000   0.25000   0.25000   0.00000  Uiso   1.00
O524   O     0.79275   0.07307   0.27282   0.00000  Uiso   1.00
O525   O     0.92693   0.29275   0.72718   0.00000  Uiso   1.00
O526   O     0.57307   0.20725   0.27282   0.00000  Uiso   1.00
O527   O     0.79275   0.07307   0.72718   0.00000  Uiso   1.00
O528   O     0.70726   0.42693   0.27282   0.00000  Uiso   1.00
O529   O     0.57307   0.20725   0.72718   0.00000  Uiso   1.00
O530   O     0.92693   0.29275   0.27282   0.00000  Uiso   1.00
O531   O     0.95726   0.32307   0.77282   0.00000  Uiso   1.00
O532   O     0.54275   0.17693   0.22718   0.00000  Uiso   1.00
O533   O     0.67693   0.45725   0.77282   0.00000  Uiso   1.00
O534   O     0.50000   0.25000   0.75000   0.00000  Uiso   1.00
O535   O     0.82307   0.04275   0.22718   0.00000  Uiso   1.00
O536   O     0.54275   0.17693   0.77282   0.00000  Uiso   1.00
O537   O     0.95726   0.32307   0.22718   0.00000  Uiso   1.00
O538   O     0.82307   0.04275   0.77282   0.00000  Uiso   1.00
O539   O     0.67693   0.45725   0.22718   0.00000  Uiso   1.00
O540   O     0.95726   0.17693   0.22718   0.00000  Uiso   1.00
O541   O     0.54275   0.32307   0.77282   0.00000  Uiso   1.00
O542   O     0.67693   0.04275   0.22718   0.00000  Uiso   1.00
O543   O     0.82307   0.45725   0.77282   0.00000  Uiso   1.00
O544   O     0.54275   0.32307   0.22718   0.00000  Uiso   1.00
O545   O     0.75000   0.46964   0.33683   0.00000  Uiso   1.00
O546   O     0.95726   0.17693   0.77282   0.00000  Uiso   1.00
O547   O     0.82307   0.45725   0.22718   0.00000  Uiso   1.00
O548   O     0.67693   0.04275   0.77282   0.00000  Uiso   1.00
O549   O     0.73122   0.07224   0.13395   0.00000  Uiso   1.00
O550   O     0.69520   0.08522   0.08233   0.00000  Uiso   1.00
O551   O     0.76878   0.07224   0.86604   0.00000  Uiso   1.00
O552   O     0.80480   0.08522   0.91767   0.00000  Uiso   1.00
O553   O     0.57224   0.23122   0.13396   0.00000  Uiso   1.00
O554   O     0.58523   0.19520   0.08233   0.00000  Uiso   1.00
O555   O     0.57224   0.26878   0.86605   0.00000  Uiso   1.00
O556   O     0.75000   0.03036   0.66317   0.00000  Uiso   1.00
O557   O     0.58522   0.30480   0.91767   0.00000  Uiso   1.00
O558   O     0.76878   0.42776   0.13396   0.00000  Uiso   1.00
O559   O     0.80480   0.41478   0.08233   0.00000  Uiso   1.00
O560   O     0.73122   0.42776   0.86605   0.00000  Uiso   1.00
O561   O     0.69520   0.41478   0.91767   0.00000  Uiso   1.00
O562   O     0.92776   0.26878   0.13395   0.00000  Uiso   1.00
O563   O     0.91478   0.30480   0.08233   0.00000  Uiso   1.00
O564   O     0.92776   0.23122   0.86604   0.00000  Uiso   1.00
O565   O     0.91478   0.19520   0.91767   0.00000  Uiso   1.00
O566   O     0.98122   0.17776   0.63395   0.00000  Uiso   1.00
O567   O     0.53036   0.25000   0.33683   0.00000  Uiso   1.00
O568   O     0.94520   0.16478   0.58233   0.00000  Uiso   1.00
O569   O     0.51878   0.17776   0.36605   0.00000  Uiso   1.00
O570   O     0.55480   0.16478   0.41767   0.00000  Uiso   1.00
O571   O     0.67776   0.48122   0.63396   0.00000  Uiso   1.00
O572   O     0.66478   0.44520   0.58233   0.00000  Uiso   1.00
O573   O     0.67776   0.01878   0.36604   0.00000  Uiso   1.00
O574   O     0.66478   0.05480   0.41767   0.00000  Uiso   1.00
O575   O     0.51878   0.32224   0.63396   0.00000  Uiso   1.00
O576   O     0.55480   0.33522   0.58233   0.00000  Uiso   1.00
O577   O     0.98122   0.32224   0.36604   0.00000  Uiso   1.00
O578   O     0.96964   0.25000   0.66317   0.00000  Uiso   1.00
O579   O     0.94520   0.33522   0.41767   0.00000  Uiso   1.00
O580   O     0.82224   0.01878   0.63395   0.00000  Uiso   1.00
O581   O     0.83522   0.05480   0.58233   0.00000  Uiso   1.00
O582   O     0.82224   0.48122   0.36605   0.00000  Uiso   1.00
O583   O     0.83522   0.44520   0.41767   0.00000  Uiso   1.00
O584   O     0.75000   0.03036   0.33683   0.00000  Uiso   1.00
Zn585  Zn    0.70660  -0.00000   0.21760   0.00000  Uiso   1.00
Zn586  Zn    0.54340   0.25000   0.28240   0.00000  Uiso   1.00
Zn587  Zn    0.75000   0.45660   0.71760   0.00000  Uiso   1.00
Zn588  Zn    0.75000   0.04340   0.28240   0.00000  Uiso   1.00
Zn589  Zn    0.54340   0.25000   0.71760   0.00000  Uiso   1.00
Zn590  Zn    0.95660   0.25000   0.28240   0.00000  Uiso   1.00
Zn591  Zn    0.75000   0.04340   0.71760   0.00000  Uiso   1.00
Zn592  Zn    0.75000   0.45660   0.28240   0.00000  Uiso   1.00
Zn593  Zn    0.79340   0.00000   0.78240   0.00000  Uiso   1.00
Zn594  Zn    0.50000   0.20660   0.21760   0.00000  Uiso   1.00
Zn595  Zn    0.50000   0.29340   0.78240   0.00000  Uiso   1.00
Zn596  Zn    0.79340  -0.00000   0.21760   0.00000  Uiso   1.00
Zn597  Zn    0.70660   0.00000   0.78240   0.00000  Uiso   1.00
Zn598  Zn    0.50000   0.29340   0.21760   0.00000  Uiso   1.00
Zn599  Zn    0.50000   0.20660   0.78240   0.00000  Uiso   1.00
Zn600  Zn    0.95660   0.25000   0.71760   0.00000  Uiso   1.00
C601   C     0.23543   0.52958   0.04149   0.00000  Uiso   1.00
C602   C     0.01457   0.72042   0.45851   0.00000  Uiso   1.00
C603   C     0.34814   0.90186   0.75000   0.00000  Uiso   1.00
C604   C     0.40186   0.65186   0.25000   0.00000  Uiso   1.00
C605   C     0.09814   0.84814   0.75000   0.00000  Uiso   1.00
C606   C     0.34814   0.90186   0.25000   0.00000  Uiso   1.00
C607   C     0.15186   0.59814   0.75000   0.00000  Uiso   1.00
C608   C     0.09814   0.65186   0.75000   0.00000  Uiso   1.00
C609   C     0.40186   0.84814   0.25000   0.00000  Uiso   1.00
C610   C     0.15186   0.90186   0.75000   0.00000  Uiso   1.00
C611   C     0.34814   0.59814   0.25000   0.00000  Uiso   1.00
C612   C     0.40186   0.84814   0.75000   0.00000  Uiso   1.00
C613   C     0.22042   0.98543   0.54149   0.00000  Uiso   1.00
C614   C     0.09814   0.65186   0.25000   0.00000  Uiso   1.00
C615   C     0.34814   0.59814   0.75000   0.00000  Uiso   1.00
C616   C     0.15186   0.90186   0.25000   0.00000  Uiso   1.00
C617   C     0.25000   0.50000   0.10257   0.00000  Uiso   1.00
C618   C     0.25000   0.50000   0.89743   0.00000  Uiso   1.00
C619   C     0.00000   0.75000   0.10257   0.00000  Uiso   1.00
C620   C     0.00000   0.75000   0.89743   0.00000  Uiso   1.00
C621   C     0.00000   0.75000   0.60257   0.00000  Uiso   1.00
C622   C     0.00000   0.75000   0.39743   0.00000  Uiso   1.00
C623   C     0.25000   0.50000   0.60257   0.00000  Uiso   1.00
C624   C     0.22042   0.51457   0.45851   0.00000  Uiso   1.00
C625   C     0.25000   0.50000   0.39743   0.00000  Uiso   1.00
C626   C     0.22068   0.56340   0.10162   0.00000  Uiso   1.00
C627   C     0.27933   0.56340   0.89838   0.00000  Uiso   1.00
C628   C     0.06340   0.72068   0.10162   0.00000  Uiso   1.00
C629   C     0.06340   0.77933   0.89838   0.00000  Uiso   1.00
C630   C     0.27932   0.93660   0.10162   0.00000  Uiso   1.00
C631   C     0.22067   0.93660   0.89838   0.00000  Uiso   1.00
C632   C     0.43660   0.77932   0.10162   0.00000  Uiso   1.00
C633   C     0.43660   0.72067   0.89838   0.00000  Uiso   1.00
C634   C     0.47067   0.68660   0.60162   0.00000  Uiso   1.00
C635   C     0.01457   0.77958   0.54149   0.00000  Uiso   1.00
C636   C     0.02932   0.68660   0.39838   0.00000  Uiso   1.00
C637   C     0.18660   0.97068   0.60162   0.00000  Uiso   1.00
C638   C     0.18660   0.52932   0.39838   0.00000  Uiso   1.00
C639   C     0.02933   0.81340   0.60162   0.00000  Uiso   1.00
C640   C     0.47068   0.81340   0.39838   0.00000  Uiso   1.00
C641   C     0.31340   0.52932   0.60162   0.00000  Uiso   1.00
C642   C     0.31340   0.97068   0.39838   0.00000  Uiso   1.00
C643   C     0.48543   0.77958   0.45851   0.00000  Uiso   1.00
C644   C     0.27958   0.51457   0.54149   0.00000  Uiso   1.00
C645   C     0.27958   0.98543   0.45851   0.00000  Uiso   1.00
C646   C     0.23541   0.53026   0.08206   0.00000  Uiso   1.00
C647   C     0.26460   0.53026   0.91794   0.00000  Uiso   1.00
C648   C     0.03026   0.73541   0.08206   0.00000  Uiso   1.00
C649   C     0.26457   0.52958   0.95851   0.00000  Uiso   1.00
C650   C     0.03026   0.76460   0.91794   0.00000  Uiso   1.00
C651   C     0.26460   0.96974   0.08206   0.00000  Uiso   1.00
C652   C     0.23540   0.96974   0.91794   0.00000  Uiso   1.00
C653   C     0.46974   0.76459   0.08206   0.00000  Uiso   1.00
C654   C     0.46974   0.73540   0.91794   0.00000  Uiso   1.00
C655   C     0.48540   0.71974   0.58206   0.00000  Uiso   1.00
C656   C     0.01460   0.71974   0.41794   0.00000  Uiso   1.00
C657   C     0.21974   0.98540   0.58206   0.00000  Uiso   1.00
C658   C     0.21974   0.51460   0.41794   0.00000  Uiso   1.00
C659   C     0.01460   0.78026   0.58206   0.00000  Uiso   1.00
C660   C     0.02958   0.73543   0.04149   0.00000  Uiso   1.00
C661   C     0.48541   0.78026   0.41794   0.00000  Uiso   1.00
C662   C     0.28026   0.51460   0.58206   0.00000  Uiso   1.00
C663   C     0.28026   0.98540   0.41794   0.00000  Uiso   1.00
C664   C     0.25000   0.50000   0.02128   0.00000  Uiso   1.00
C665   C     0.25000   0.50000   0.97872   0.00000  Uiso   1.00
C666   C     0.00000   0.75000   0.02128   0.00000  Uiso   1.00
C667   C     0.00000   0.75000   0.97872   0.00000  Uiso   1.00
C668   C     0.00000   0.75000   0.52128   0.00000  Uiso   1.00
C669   C     0.00000   0.75000   0.47872   0.00000  Uiso   1.00
C670   C     0.25000   0.50000   0.52128   0.00000  Uiso   1.00
C671   C     0.02958   0.76457   0.95851   0.00000  Uiso   1.00
C672   C     0.25000   0.50000   0.47872   0.00000  Uiso   1.00
C673   C     0.25000   0.50000   0.35506   0.00000  Uiso   1.00
C674   C     0.25000   0.50000   0.64494   0.00000  Uiso   1.00
C675   C     0.00000   0.75000   0.35506   0.00000  Uiso   1.00
C676   C     0.00000   0.75000   0.64494   0.00000  Uiso   1.00
C677   C     0.00000   0.75000   0.85506   0.00000  Uiso   1.00
C678   C     0.00000   0.75000   0.14494   0.00000  Uiso   1.00
C679   C     0.25000   0.50000   0.85506   0.00000  Uiso   1.00
C680   C     0.25000   0.50000   0.14494   0.00000  Uiso   1.00
C681   C     0.17992   0.57008   0.25000   0.00000  Uiso   1.00
C682   C     0.26457   0.97042   0.04149   0.00000  Uiso   1.00
C683   C     0.32008   0.92992   0.75000   0.00000  Uiso   1.00
C684   C     0.42992   0.67992   0.25000   0.00000  Uiso   1.00
C685   C     0.07008   0.82008   0.75000   0.00000  Uiso   1.00
C686   C     0.32008   0.92992   0.25000   0.00000  Uiso   1.00
C687   C     0.17992   0.57008   0.75000   0.00000  Uiso   1.00
C688   C     0.07008   0.82008   0.25000   0.00000  Uiso   1.00
C689   C     0.42992   0.67992   0.75000   0.00000  Uiso   1.00
C690   C     0.17992   0.92992   0.75000   0.00000  Uiso   1.00
C691   C     0.32008   0.57008   0.25000   0.00000  Uiso   1.00
C692   C     0.42992   0.82008   0.75000   0.00000  Uiso   1.00
C693   C     0.23543   0.97042   0.95851   0.00000  Uiso   1.00
C694   C     0.07008   0.67992   0.25000   0.00000  Uiso   1.00
C695   C     0.32008   0.57008   0.75000   0.00000  Uiso   1.00
C696   C     0.17992   0.92992   0.25000   0.00000  Uiso   1.00
C697   C     0.07008   0.67992   0.75000   0.00000  Uiso   1.00
C698   C     0.42992   0.82008   0.25000   0.00000  Uiso   1.00
C699   C     0.12183   0.90488   0.22506   0.00000  Uiso   1.00
C700   C     0.37748   0.59580   0.77594   0.00000  Uiso   1.00
C701   C     0.09580   0.62252   0.22406   0.00000  Uiso   1.00
C702   C     0.40489   0.87817   0.77494   0.00000  Uiso   1.00
C703   C     0.37817   0.59512   0.22505   0.00000  Uiso   1.00
C704   C     0.47042   0.76457   0.04149   0.00000  Uiso   1.00
C705   C     0.12252   0.90420   0.77594   0.00000  Uiso   1.00
C706   C     0.40420   0.87748   0.22406   0.00000  Uiso   1.00
C707   C     0.09512   0.62183   0.77494   0.00000  Uiso   1.00
C708   C     0.12183   0.59512   0.77494   0.00000  Uiso   1.00
C709   C     0.37748   0.90420   0.22406   0.00000  Uiso   1.00
C710   C     0.09580   0.87748   0.77594   0.00000  Uiso   1.00
C711   C     0.40489   0.62183   0.22505   0.00000  Uiso   1.00
C712   C     0.37817   0.90489   0.77494   0.00000  Uiso   1.00
C713   C     0.12252   0.59580   0.22406   0.00000  Uiso   1.00
C714   C     0.40420   0.62252   0.77594   0.00000  Uiso   1.00
C715   C     0.47042   0.73543   0.95851   0.00000  Uiso   1.00
C716   C     0.09512   0.87817   0.22506   0.00000  Uiso   1.00
C717   C     0.37252   0.65420   0.72406   0.00000  Uiso   1.00
C718   C     0.12817   0.84511   0.27495   0.00000  Uiso   1.00
C719   C     0.34512   0.87183   0.72505   0.00000  Uiso   1.00
C720   C     0.15420   0.62748   0.27594   0.00000  Uiso   1.00
C721   C     0.12748   0.84580   0.72406   0.00000  Uiso   1.00
C722   C     0.37183   0.65489   0.27494   0.00000  Uiso   1.00
C723   C     0.15489   0.62817   0.72505   0.00000  Uiso   1.00
C724   C     0.34580   0.87252   0.27594   0.00000  Uiso   1.00
C725   C     0.37252   0.84580   0.27594   0.00000  Uiso   1.00
C726   C     0.48543   0.72042   0.54149   0.00000  Uiso   1.00
C727   C     0.12817   0.65488   0.72505   0.00000  Uiso   1.00
C728   C     0.34512   0.62817   0.27494   0.00000  Uiso   1.00
C729   C     0.15420   0.87252   0.72406   0.00000  Uiso   1.00
C730   C     0.12748   0.65420   0.27594   0.00000  Uiso   1.00
C731   C     0.37183   0.84512   0.72505   0.00000  Uiso   1.00
C732   C     0.15489   0.87183   0.27495   0.00000  Uiso   1.00
C733   C     0.34580   0.62748   0.72406   0.00000  Uiso   1.00
C734   C     0.09814   0.84814   0.25000   0.00000  Uiso   1.00
C735   C     0.40186   0.65186   0.75000   0.00000  Uiso   1.00
C736   C     0.15186   0.59814   0.25000   0.00000  Uiso   1.00
H737   H     0.22433   0.55235   0.02531   0.00000  Uiso   1.00
H738   H     0.02567   0.69765   0.47469   0.00000  Uiso   1.00
H739   H     0.19765   0.97433   0.52531   0.00000  Uiso   1.00
H740   H     0.19765   0.52567   0.47469   0.00000  Uiso   1.00
H741   H     0.02567   0.80235   0.52531   0.00000  Uiso   1.00
H742   H     0.47433   0.80235   0.47469   0.00000  Uiso   1.00
H743   H     0.30235   0.52567   0.52531   0.00000  Uiso   1.00
H744   H     0.30235   0.97433   0.47469   0.00000  Uiso   1.00
H745   H     0.11894   0.92785   0.20554   0.00000  Uiso   1.00
H746   H     0.37980   0.57341   0.79627   0.00000  Uiso   1.00
H747   H     0.07341   0.62020   0.20373   0.00000  Uiso   1.00
H748   H     0.27567   0.55235   0.97469   0.00000  Uiso   1.00
H749   H     0.42785   0.88106   0.79445   0.00000  Uiso   1.00
H750   H     0.38106   0.57215   0.20554   0.00000  Uiso   1.00
H751   H     0.12020   0.92659   0.79627   0.00000  Uiso   1.00
H752   H     0.42659   0.87980   0.20373   0.00000  Uiso   1.00
H753   H     0.07215   0.61894   0.79445   0.00000  Uiso   1.00
H754   H     0.11894   0.57215   0.79445   0.00000  Uiso   1.00
H755   H     0.37980   0.92659   0.20373   0.00000  Uiso   1.00
H756   H     0.07341   0.87980   0.79627   0.00000  Uiso   1.00
H757   H     0.42785   0.61894   0.20554   0.00000  Uiso   1.00
H758   H     0.38106   0.92785   0.79445   0.00000  Uiso   1.00
H759   H     0.05235   0.72433   0.02531   0.00000  Uiso   1.00
H760   H     0.12020   0.57341   0.20373   0.00000  Uiso   1.00
H761   H     0.42659   0.62020   0.79627   0.00000  Uiso   1.00
H762   H     0.07215   0.88106   0.20554   0.00000  Uiso   1.00
H763   H     0.37020   0.67659   0.70373   0.00000  Uiso   1.00
H764   H     0.13106   0.82215   0.29446   0.00000  Uiso   1.00
H765   H     0.32215   0.86894   0.70554   0.00000  Uiso   1.00
H766   H     0.17659   0.62980   0.29627   0.00000  Uiso   1.00
H767   H     0.12980   0.82341   0.70373   0.00000  Uiso   1.00
H768   H     0.36894   0.67785   0.29445   0.00000  Uiso   1.00
H769   H     0.17785   0.63106   0.70554   0.00000  Uiso   1.00
H770   H     0.05235   0.77567   0.97469   0.00000  Uiso   1.00
H771   H     0.32341   0.87020   0.29627   0.00000  Uiso   1.00
H772   H     0.37020   0.82341   0.29627   0.00000  Uiso   1.00
H773   H     0.13106   0.67785   0.70554   0.00000  Uiso   1.00
H774   H     0.32215   0.63106   0.29445   0.00000  Uiso   1.00
H775   H     0.17659   0.87020   0.70373   0.00000  Uiso   1.00
H776   H     0.12980   0.67659   0.29627   0.00000  Uiso   1.00
H777   H     0.36894   0.82215   0.70554   0.00000  Uiso   1.00
H778   H     0.17785   0.86894   0.29446   0.00000  Uiso   1.00
H779   H     0.32341   0.62980   0.70373   0.00000  Uiso   1.00
H780   H     0.18737   0.60707   0.09830   0.00000  Uiso   1.00
H781   H     0.27567   0.94765   0.02531   0.00000  Uiso   1.00
H782   H     0.31264   0.60707   0.90170   0.00000  Uiso   1.00
H783   H     0.10707   0.68737   0.09830   0.00000  Uiso   1.00
H784   H     0.10707   0.81264   0.90170   0.00000  Uiso   1.00
H785   H     0.31263   0.89293   0.09830   0.00000  Uiso   1.00
H786   H     0.18736   0.89293   0.90170   0.00000  Uiso   1.00
H787   H     0.39293   0.81263   0.09830   0.00000  Uiso   1.00
H788   H     0.39293   0.68736   0.90170   0.00000  Uiso   1.00
H789   H     0.43736   0.64293   0.59830   0.00000  Uiso   1.00
H790   H     0.06263   0.64293   0.40170   0.00000  Uiso   1.00
H791   H     0.14293   0.93736   0.59830   0.00000  Uiso   1.00
H792   H     0.22433   0.94765   0.97469   0.00000  Uiso   1.00
H793   H     0.14293   0.56264   0.40170   0.00000  Uiso   1.00
H794   H     0.06264   0.85707   0.59830   0.00000  Uiso   1.00
H795   H     0.43737   0.85707   0.40170   0.00000  Uiso   1.00
H796   H     0.35707   0.56264   0.59830   0.00000  Uiso   1.00
H797   H     0.35707   0.93736   0.40170   0.00000  Uiso   1.00
H798   H     0.44765   0.77567   0.02531   0.00000  Uiso   1.00
H799   H     0.44765   0.72433   0.97469   0.00000  Uiso   1.00
H800   H     0.47433   0.69765   0.52531   0.00000  Uiso   1.00
O801   O     0.25000   0.50000   0.25000   0.00000  Uiso   1.00
O802   O     0.25000   0.96964   0.66317   0.00000  Uiso   1.00
O803   O     0.46964   0.75000   0.33683   0.00000  Uiso   1.00
O804   O     0.03036   0.75000   0.66317   0.00000  Uiso   1.00
O805   O     0.00000   0.71964   0.83683   0.00000  Uiso   1.00
O806   O     0.00000   0.78036   0.16317   0.00000  Uiso   1.00
O807   O     0.28036   0.50000   0.83683   0.00000  Uiso   1.00
O808   O     0.21964   0.50000   0.16317   0.00000  Uiso   1.00
O809   O     0.00000   0.78036   0.83683   0.00000  Uiso   1.00
O810   O     0.00000   0.71964   0.16317   0.00000  Uiso   1.00
O811   O     0.21964   0.50000   0.83683   0.00000  Uiso   1.00
O812   O     0.25000   0.50000   0.75000   0.00000  Uiso   1.00
O813   O     0.28036   0.50000   0.16317   0.00000  Uiso   1.00
O814   O     0.20726   0.57307   0.27282   0.00000  Uiso   1.00
O815   O     0.29275   0.92693   0.72718   0.00000  Uiso   1.00
O816   O     0.42693   0.70726   0.27282   0.00000  Uiso   1.00
O817   O     0.07307   0.79274   0.72718   0.00000  Uiso   1.00
O818   O     0.29275   0.92693   0.27282   0.00000  Uiso   1.00
O819   O     0.20726   0.57307   0.72718   0.00000  Uiso   1.00
O820   O     0.07307   0.79274   0.27282   0.00000  Uiso   1.00
O821   O     0.42693   0.70726   0.72718   0.00000  Uiso   1.00
O822   O     0.20726   0.92693   0.72718   0.00000  Uiso   1.00
O823   O     0.00000   0.75000   0.25000   0.00000  Uiso   1.00
O824   O     0.29275   0.57307   0.27282   0.00000  Uiso   1.00
O825   O     0.42693   0.79275   0.72718   0.00000  Uiso   1.00
O826   O     0.07307   0.70725   0.27282   0.00000  Uiso   1.00
O827   O     0.29275   0.57307   0.72718   0.00000  Uiso   1.00
O828   O     0.20726   0.92693   0.27282   0.00000  Uiso   1.00
O829   O     0.07307   0.70725   0.72718   0.00000  Uiso   1.00
O830   O     0.42693   0.79275   0.27282   0.00000  Uiso   1.00
O831   O     0.45726   0.82307   0.77282   0.00000  Uiso   1.00
O832   O     0.04275   0.67693   0.22718   0.00000  Uiso   1.00
O833   O     0.17693   0.95725   0.77282   0.00000  Uiso   1.00
O834   O     0.00000   0.75000   0.75000   0.00000  Uiso   1.00
O835   O     0.32307   0.54275   0.22718   0.00000  Uiso   1.00
O836   O     0.04275   0.67693   0.77282   0.00000  Uiso   1.00
O837   O     0.45726   0.82307   0.22718   0.00000  Uiso   1.00
O838   O     0.32307   0.54275   0.77282   0.00000  Uiso   1.00
O839   O     0.17693   0.95725   0.22718   0.00000  Uiso   1.00
O840   O     0.45726   0.67693   0.22718   0.00000  Uiso   1.00
O841   O     0.04275   0.82307   0.77282   0.00000  Uiso   1.00
O842   O     0.17693   0.54275   0.22718   0.00000  Uiso   1.00
O843   O     0.32307   0.95725   0.77282   0.00000  Uiso   1.00
O844   O     0.04275   0.82307   0.22718   0.00000  Uiso   1.00
O845   O     0.25000   0.96964   0.33683   0.00000  Uiso   1.00
O846   O     0.45726   0.67693   0.77282   0.00000  Uiso   1.00
O847   O     0.32307   0.95725   0.22718   0.00000  Uiso   1.00
O848   O     0.17693   0.54275   0.77282   0.00000  Uiso   1.00
O849   O     0.23122   0.57224   0.13395   0.00000  Uiso   1.00
O850   O     0.19520   0.58522   0.08233   0.00000  Uiso   1.00
O851   O     0.26878   0.57224   0.86604   0.00000  Uiso   1.00
O852   O     0.30480   0.58522   0.91767   0.00000  Uiso   1.00
O853   O     0.07224   0.73122   0.13396   0.00000  Uiso   1.00
O854   O     0.08523   0.69520   0.08233   0.00000  Uiso   1.00
O855   O     0.07224   0.76878   0.86605   0.00000  Uiso   1.00
O856   O     0.25000   0.53036   0.66317   0.00000  Uiso   1.00
O857   O     0.08522   0.80480   0.91767   0.00000  Uiso   1.00
O858   O     0.26878   0.92776   0.13396   0.00000  Uiso   1.00
O859   O     0.30480   0.91478   0.08233   0.00000  Uiso   1.00
O860   O     0.23122   0.92776   0.86605   0.00000  Uiso   1.00
O861   O     0.19520   0.91478   0.91767   0.00000  Uiso   1.00
O862   O     0.42776   0.76878   0.13395   0.00000  Uiso   1.00
O863   O     0.41478   0.80480   0.08233   0.00000  Uiso   1.00
O864   O     0.42776   0.73122   0.86604   0.00000  Uiso   1.00
O865   O     0.41478   0.69520   0.91767   0.00000  Uiso   1.00
O866   O     0.48122   0.67776   0.63395   0.00000  Uiso   1.00
O867   O     0.03036   0.75000   0.33683   0.00000  Uiso   1.00
O868   O     0.44520   0.66478   0.58233   0.00000  Uiso   1.00
O869   O     0.01878   0.67776   0.36605   0.00000  Uiso   1.00
O870   O     0.05480   0.66478   0.41767   0.00000  Uiso   1.00
O871   O     0.17776   0.98122   0.63396   0.00000  Uiso   1.00
O872   O     0.16478   0.94520   0.58233   0.00000  Uiso   1.00
O873   O     0.17776   0.51878   0.36604   0.00000  Uiso   1.00
O874   O     0.16478   0.55480   0.41767   0.00000  Uiso   1.00
O875   O     0.01878   0.82224   0.63396   0.00000  Uiso   1.00
O876   O     0.05480   0.83522   0.58233   0.00000  Uiso   1.00
O877   O     0.48122   0.82224   0.36604   0.00000  Uiso   1.00
O878   O     0.46964   0.75000   0.66317   0.00000  Uiso   1.00
O879   O     0.44520   0.83522   0.41767   0.00000  Uiso   1.00
O880   O     0.32224   0.51878   0.63395   0.00000  Uiso   1.00
O881   O     0.33522   0.55480   0.58233   0.00000  Uiso   1.00
O882   O     0.32224   0.98122   0.36605   0.00000  Uiso   1.00
O883   O     0.33522   0.94520   0.41767   0.00000  Uiso   1.00
O884   O     0.25000   0.53036   0.33683   0.00000  Uiso   1.00
Zn885  Zn    0.20660   0.50000   0.21760   0.00000  Uiso   1.00
Zn886  Zn    0.04340   0.75000   0.28240   0.00000  Uiso   1.00
Zn887  Zn    0.25000   0.95660   0.71760   0.00000  Uiso   1.00
Zn888  Zn    0.25000   0.54340   0.28240   0.00000  Uiso   1.00
Zn889  Zn    0.04340   0.75000   0.71760   0.00000  Uiso   1.00
Zn890  Zn    0.45660   0.75000   0.28240   0.00000  Uiso   1.00
Zn891  Zn    0.25000   0.54340   0.71760   0.00000  Uiso   1.00
Zn892  Zn    0.25000   0.95660   0.28240   0.00000  Uiso   1.00
Zn893  Zn    0.29340   0.50000   0.78240   0.00000  Uiso   1.00
Zn894  Zn    0.00000   0.70660   0.21760   0.00000  Uiso   1.00
Zn895  Zn    0.00000   0.79340   0.78240   0.00000  Uiso   1.00
Zn896  Zn    0.29340   0.50000   0.21760   0.00000  Uiso   1.00
Zn897  Zn    0.20660   0.50000   0.78240   0.00000  Uiso   1.00
Zn898  Zn    0.00000   0.79340   0.21760   0.00000  Uiso   1.00
Zn899  Zn    0.00000   0.70660   0.78240   0.00000  Uiso   1.00
Zn900  Zn    0.45660   0.75000   0.71760   0.00000  Uiso   1.00
C901   C     0.73543   0.52958   0.04149   0.00000  Uiso   1.00
C902   C     0.51457   0.72042   0.45851   0.00000  Uiso   1.00
C903   C     0.84814   0.90186   0.75000   0.00000  Uiso   1.00
C904   C     0.90186   0.65186   0.25000   0.00000  Uiso   1.00
C905   C     0.59814   0.84814   0.75000   0.00000  Uiso   1.00
C906   C     0.84814   0.90186   0.25000   0.00000  Uiso   1.00
C907   C     0.65186   0.59814   0.75000   0.00000  Uiso   1.00
C908   C     0.59814   0.65186   0.75000   0.00000  Uiso   1.00
C909   C     0.90186   0.84814   0.25000   0.00000  Uiso   1.00
C910   C     0.65186   0.90186   0.75000   0.00000  Uiso   1.00
C911   C     0.84814   0.59814   0.25000   0.00000  Uiso   1.00
C912   C     0.90186   0.84814   0.75000   0.00000  Uiso   1.00
C913   C     0.72042   0.98543   0.54149   0.00000  Uiso   1.00
C914   C     0.59814   0.65186   0.25000   0.00000  Uiso   1.00
C915   C     0.84814   0.59814   0.75000   0.00000  Uiso   1.00
C916   C     0.65186   0.90186   0.25000   0.00000  Uiso   1.00
C917   C     0.75000   0.50000   0.10257   0.00000  Uiso   1.00
C918   C     0.75000   0.50000   0.89743   0.00000  Uiso   1.00
C919   C     0.50000   0.75000   0.10257   0.00000  Uiso   1.00
C920   C     0.50000   0.75000   0.89743   0.00000  Uiso   1.00
C921   C     0.50000   0.75000   0.60257   0.00000  Uiso   1.00
C922   C     0.50000   0.75000   0.39743   0.00000  Uiso   1.00
C923   C     0.75000   0.50000   0.60257   0.00000  Uiso   1.00
C924   C     0.72042   0.51457   0.45851   0.00000  Uiso   1.00
C925   C     0.75000   0.50000   0.39743   0.00000  Uiso   1.00
C926   C     0.72068   0.56340   0.10162   0.00000  Uiso   1.00
C927   C     0.77933   0.56340   0.89838   0.00000  Uiso   1.00
C928   C     0.56340   0.72068   0.10162   0.00000  Uiso   1.00
C929   C     0.56340   0.77933   0.89838   0.00000  Uiso   1.00
C930   C     0.77932   0.93660   0.10162   0.00000  Uiso   1.00
C931   C     0.72067   0.93660   0.89838   0.00000  Uiso   1.00
C932   C     0.93660   0.77932   0.10162   0.00000  Uiso   1.00
C933   C     0.93660   0.72067   0.89838   0.00000  Uiso   1.00
C934   C     0.97067   0.68660   0.60162   0.00000  Uiso   1.00
C935   C     0.51457   0.77958   0.54149   0.00000  Uiso   1.00
C936   C     0.52932   0.68660   0.39838   0.00000  Uiso   1.00
C937   C     0.68660   0.97068   0.60162   0.00000  Uiso   1.00
C938   C     0.68660   0.52932   0.39838   0.00000  Uiso   1.00
C939   C     0.52933   0.81340   0.60162   0.00000  Uiso   1.00
C940   C     0.97068   0.81340   0.39838   0.00000  Uiso   1.00
C941   C     0.81340   0.52932   0.60162   0.00000  Uiso   1.00
C942   C     0.81340   0.97068   0.39838   0.00000  Uiso   1.00
C943   C     0.98543   0.77958   0.45851   0.00000  Uiso   1.00
C944   C     0.77958   0.51457   0.54149   0.00000  Uiso   1.00
C945   C     0.77958   0.98543   0.45851   0.00000  Uiso   1.00
C946   C     0.73541   0.53026   0.08206   0.00000  Uiso   1.00
C947   C     0.76460   0.53026   0.91794   0.00000  Uiso   1.00
C948   C     0.53026   0.73541   0.08206   0.00000  Uiso   1.00
C949   C     0.76457   0.52958   0.95851   0.00000  Uiso   1.00
C950   C     0.53026   0.76460   0.91794   0.00000  Uiso   1.00
C951   C     0.76460   0.96974   0.08206   0.00000  Uiso   1.00
C952   C     0.73540   0.96974   0.91794   0.00000  Uiso   1.00
C953   C     0.96974   0.76459   0.08206   0.00000  Uiso   1.00
C954   C     0.96974   0.73540   0.91794   0.00000  Uiso   1.00
C955   C     0.98540   0.71974   0.58206   0.00000  Uiso   1.00
C956   C     0.51460   0.71974   0.41794   0.00000  Uiso   1.00
C957   C     0.71974   0.98540   0.58206   0.00000  Uiso   1.00
C958   C     0.71974   0.51460   0.41794   0.00000  Uiso   1.00
C959   C     0.51460   0.78026   0.58206   0.00000  Uiso   1.00
C960   C     0.52958   0.73543   0.04149   0.00000  Uiso   1.00
C961   C     0.98541   0.78026   0.41794   0.00000  Uiso   1.00
C962   C     0.78026   0.51460   0.58206   0.00000  Uiso   1.00
C963   C     0.78026   0.98540   0.41794   0.00000  Uiso   1.00
C964   C     0.75000   0.50000   0.02128   0.00000  Uiso   1.00
C965   C     0.75000   0.50000   0.97872   0.00000  Uiso   1.00
C966   C     0.50000   0.75000   0.02128   0.00000  Uiso   1.00
C967   C     0.50000   0.75000   0.97872   0.00000  Uiso   1.00
C968   C     0.50000   0.75000   0.52128   0.00000  Uiso   1.00
C969   C     0.50000   0.75000   0.47872   0.00000  Uiso   1.00
C970   C     0.75000   0.50000   0.52128   0.00000  Uiso   1.00
C971   C     0.52958   0.76457   0.95851   0.00000  Uiso   1.00
C972   C     0.75000   0.50000   0.47872   0.00000  Uiso   1.00
C973   C     0.75000   0.50000   0.35506   0.00000  Uiso   1.00
C974   C     0.75000   0.50000   0.64494   0.00000  Uiso   1.00
C975   C     0.50000   0.75000   0.35506   0.00000  Uiso   1.00
C976   C     0.50000   0.75000   0.64494   0.00000  Uiso   1.00
C977   C     0.50000   0.75000   0.85506   0.00000  Uiso   1.00
C978   C     0.50000   0.75000   0.14494   0.00000  Uiso   1.00
C979   C     0.75000   0.50000   0.85506   0.00000  Uiso   1.00
C980   C     0.75000   0.50000   0.14494   0.00000  Uiso   1.00
C981   C     0.67992   0.57008   0.25000   0.00000  Uiso   1.00
C982   C     0.76457   0.97042   0.04149   0.00000  Uiso   1.00
C983   C     0.82008   0.92992   0.75000   0.00000  Uiso   1.00
C984   C     0.92992   0.67992   0.25000   0.00000  Uiso   1.00
C985   C     0.57008   0.82008   0.75000   0.00000  Uiso   1.00
C986   C     0.82008   0.92992   0.25000   0.00000  Uiso   1.00
C987   C     0.67992   0.57008   0.75000   0.00000  Uiso   1.00
C988   C     0.57008   0.82008   0.25000   0.00000  Uiso   1.00
C989   C     0.92992   0.67992   0.75000   0.00000  Uiso   1.00
C990   C     0.67992   0.92992   0.75000   0.00000  Uiso   1.00
C991   C     0.82008   0.57008   0.25000   0.00000  Uiso   1.00
C992   C     0.92992   0.82008   0.75000   0.00000  Uiso   1.00
C993   C     0.73543   0.97042   0.95851   0.00000  Uiso   1.00
C994   C     0.57008   0.67992   0.25000   0.00000  Uiso   1.00
C995   C     0.82008   0.57008   0.75000   0.00000  Uiso   1.00
C996   C     0.67992   0.92992   0.25000   0.00000  Uiso   1.00
C997   C     0.57008   0.67992   0.75000   0.00000  Uiso   1.00
C998   C     0.92992   0.82008   0.25000   0.00000  Uiso   1.00
C999   C     0.62183   0.90488   0.22506   0.00000  Uiso   1.00
C1000  C     0.87748   0.59580   0.77594   0.00000  Uiso   1.00
C1001  C     0.59580   0.62252   0.22406   0.00000  Uiso   1.00
C1002  C     0.90489   0.87817   0.77494   0.00000  Uiso   1.00
C1003  C     0.87817   0.59512   0.22505   0.00000  Uiso   1.00
C1004  C     0.97042   0.76457   0.04149   0.00000  Uiso   1.00
C1005  C     0.62252   0.90420   0.77594   0.00000  Uiso   1.00
C1006  C     0.90420   0.87748   0.22406   0.00000  Uiso   1.00
C1007  C     0.59512   0.62183   0.77494   0.00000  Uiso   1.00
C1008  C     0.62183   0.59512   0.77494   0.00000  Uiso   1.00
C1009  C     0.87748   0.90420   0.22406   0.00000  Uiso   1.00
C1010  C     0.59580   0.87748   0.77594   0.00000  Uiso   1.00
C1011  C     0.90489   0.62183   0.22505   0.00000  Uiso   1.00
C1012  C     0.87817   0.90489   0.77494   0.00000  Uiso   1.00
C1013  C     0.62252   0.59580   0.22406   0.00000  Uiso   1.00
C1014  C     0.90420   0.62252   0.77594   0.00000  Uiso   1.00
C1015  C     0.97042   0.73543   0.95851   0.00000  Uiso   1.00
C1016  C     0.59512   0.87817   0.22506   0.00000  Uiso   1.00
C1017  C     0.87252   0.65420   0.72406   0.00000  Uiso   1.00
C1018  C     0.62817   0.84511   0.27495   0.00000  Uiso   1.00
C1019  C     0.84512   0.87183   0.72505   0.00000  Uiso   1.00
C1020  C     0.65420   0.62748   0.27594   0.00000  Uiso   1.00
C1021  C     0.62748   0.84580   0.72406   0.00000  Uiso   1.00
C1022  C     0.87183   0.65489   0.27494   0.00000  Uiso   1.00
C1023  C     0.65489   0.62817   0.72505   0.00000  Uiso   1.00
C1024  C     0.84580   0.87252   0.27594   0.00000  Uiso   1.00
C1025  C     0.87252   0.84580   0.27594   0.00000  Uiso   1.00
C1026  C     0.98543   0.72042   0.54149   0.00000  Uiso   1.00
C1027  C     0.62817   0.65488   0.72505   0.00000  Uiso   1.00
C1028  C     0.84512   0.62817   0.27494   0.00000  Uiso   1.00
C1029  C     0.65420   0.87252   0.72406   0.00000  Uiso   1.00
C1030  C     0.62748   0.65420   0.27594   0.00000  Uiso   1.00
C1031  C     0.87183   0.84512   0.72505   0.00000  Uiso   1.00
C1032  C     0.65489   0.87183   0.27495   0.00000  Uiso   1.00
C1033  C     0.84580   0.62748   0.72406   0.00000  Uiso   1.00
C1034  C     0.59814   0.84814   0.25000   0.00000  Uiso   1.00
C1035  C     0.90186   0.65186   0.75000   0.00000  Uiso   1.00
C1036  C     0.65186   0.59814   0.25000   0.00000  Uiso   1.00
H1037  H     0.72433   0.55235   0.02531   0.00000  Uiso   1.00
H1038  H     0.52567   0.69765   0.47469   0.00000  Uiso   1.00
H1039  H     0.69765   0.97433   0.52531   0.00000  Uiso   1.00
H1040  H     0.69765   0.52567   0.47469   0.00000  Uiso   1.00
H1041  H     0.52567   0.80235   0.52531   0.00000  Uiso   1.00
H1042  H     0.97433   0.80235   0.47469   0.00000  Uiso   1.00
H1043  H     0.80235   0.52567   0.52531   0.00000  Uiso   1.00
H1044  H     0.80235   0.97433   0.47469   0.00000  Uiso   1.00
H1045  H     0.61894   0.92785   0.20554   0.00000  Uiso   1.00
H1046  H     0.87980   0.57341   0.79627   0.00000  Uiso   1.00
H1047  H     0.57341   0.62020   0.20373   0.00000  Uiso   1.00
H1048  H     0.77567   0.55235   0.97469   0.00000  Uiso   1.00
H1049  H     0.92785   0.88106   0.79445   0.00000  Uiso   1.00
H1050  H     0.88106   0.57215   0.20554   0.00000  Uiso   1.00
H1051  H     0.62020   0.92659   0.79627   0.00000  Uiso   1.00
H1052  H     0.92659   0.87980   0.20373   0.00000  Uiso   1.00
H1053  H     0.57215   0.61894   0.79445   0.00000  Uiso   1.00
H1054  H     0.61894   0.57215   0.79445   0.00000  Uiso   1.00
H1055  H     0.87980   0.92659   0.20373   0.00000  Uiso   1.00
H1056  H     0.57341   0.87980   0.79627   0.00000  Uiso   1.00
H1057  H     0.92785   0.61894   0.20554   0.00000  Uiso   1.00
H1058  H     0.88106   0.92785   0.79445   0.00000  Uiso   1.00
H1059  H     0.55235   0.72433   0.02531   0.00000  Uiso   1.00
H1060  H     0.62020   0.57341   0.20373   0.00000  Uiso   1.00
H1061  H     0.92659   0.62020   0.79627   0.00000  Uiso   1.00
H1062  H     0.57215   0.88106   0.20554   0.00000  Uiso   1.00
H1063  H     0.87020   0.67659   0.70373   0.00000  Uiso   1.00
H1064  H     0.63106   0.82215   0.29446   0.00000  Uiso   1.00
H1065  H     0.82215   0.86894   0.70554   0.00000  Uiso   1.00
H1066  H     0.67659   0.62980   0.29627   0.00000  Uiso   1.00
H1067  H     0.62980   0.82341   0.70373   0.00000  Uiso   1.00
H1068  H     0.86894   0.67785   0.29445   0.00000  Uiso   1.00
H1069  H     0.67785   0.63106   0.70554   0.00000  Uiso   1.00
H1070  H     0.55235   0.77567   0.97469   0.00000  Uiso   1.00
H1071  H     0.82341   0.87020   0.29627   0.00000  Uiso   1.00
H1072  H     0.87020   0.82341   0.29627   0.00000  Uiso   1.00
H1073  H     0.63106   0.67785   0.70554   0.00000  Uiso   1.00
H1074  H     0.82215   0.63106   0.29445   0.00000  Uiso   1.00
H1075  H     0.67659   0.87020   0.70373   0.00000  Uiso   1.00
H1076  H     0.62980   0.67659   0.29627   0.00000  Uiso   1.00
H1077  H     0.86894   0.82215   0.70554   0.00000  Uiso   1.00
H1078  H     0.67785   0.86894   0.29446   0.00000  Uiso   1.00
H1079  H     0.82341   0.62980   0.70373   0.00000  Uiso   1.00
H1080  H     0.68737   0.60707   0.09830   0.00000  Uiso   1.00
H1081  H     0.77567   0.94765   0.02531   0.00000  Uiso   1.00
H1082  H     0.81264   0.60707   0.90170   0.00000  Uiso   1.00
H1083  H     0.60707   0.68737   0.09830   0.00000  Uiso   1.00
H1084  H     0.60707   0.81264   0.90170   0.00000  Uiso   1.00
H1085  H     0.81263   0.89293   0.09830   0.00000  Uiso   1.00
H1086  H     0.68736   0.89293   0.90170   0.00000  Uiso   1.00
H1087  H     0.89293   0.81263   0.09830   0.00000  Uiso   1.00
H1088  H     0.89293   0.68736   0.90170   0.00000  Uiso   1.00
H1089  H     0.93736   0.64293   0.59830   0.00000  Uiso   1.00
H1090  H     0.56263   0.64293   0.40170   0.00000  Uiso   1.00
H1091  H     0.64293   0.93736   0.59830   0.00000  Uiso   1.00
H1092  H     0.72433   0.94765   0.97469   0.00000  Uiso   1.00
H1093  H     0.64293   0.56264   0.40170   0.00000  Uiso   1.00
H1094  H     0.56264   0.85707   0.59830   0.00000  Uiso   1.00
H1095  H     0.93737   0.85707   0.40170   0.00000  Uiso   1.00
H1096  H     0.85707   0.56264   0.59830   0.00000  Uiso   1.00
H1097  H     0.85707   0.93736   0.40170   0.00000  Uiso   1.00
H1098  H     0.94765   0.77567   0.02531   0.00000  Uiso   1.00
H1099  H     0.94765   0.72433   0.97469   0.00000  Uiso   1.00
H1100  H     0.97433   0.69765   0.52531   0.00000  Uiso   1.00
O1101  O     0.75000   0.50000   0.25000   0.00000  Uiso   1.00
O1102  O     0.75000   0.96964   0.66317   0.00000  Uiso   1.00
O1103  O     0.96964   0.75000   0.33683   0.00000  Uiso   1.00
O1104  O     0.53036   0.75000   0.66317   0.00000  Uiso   1.00
O1105  O     0.50000   0.71964   0.83683   0.00000  Uiso   1.00
O1106  O     0.50000   0.78036   0.16317   0.00000  Uiso   1.00
O1107  O     0.78036   0.50000   0.83683   0.00000  Uiso   1.00
O1108  O     0.71964   0.50000   0.16317   0.00000  Uiso   1.00
O1109  O     0.50000   0.78036   0.83683   0.00000  Uiso   1.00
O1110  O     0.50000   0.71964   0.16317   0.00000  Uiso   1.00
O1111  O     0.71964   0.50000   0.83683   0.00000  Uiso   1.00
O1112  O     0.75000   0.50000   0.75000   0.00000  Uiso   1.00
O1113  O     0.78036   0.50000   0.16317   0.00000  Uiso   1.00
O1114  O     0.70726   0.57307   0.27282   0.00000  Uiso   1.00
O1115  O     0.79275   0.92693   0.72718   0.00000  Uiso   1.00
O1116  O     0.92693   0.70726   0.27282   0.00000  Uiso   1.00
O1117  O     0.57307   0.79274   0.72718   0.00000  Uiso   1.00
O1118  O     0.79275   0.92693   0.27282   0.00000  Uiso   1.00
O1119  O     0.70726   0.57307   0.72718   0.00000  Uiso   1.00
O1120  O     0.57307   0.79274   0.27282   0.00000  Uiso   1.00
O1121  O     0.92693   0.70726   0.72718   0.00000  Uiso   1.00
O1122  O     0.70726   0.92693   0.72718   0.00000  Uiso   1.00
O1123  O     0.50000   0.75000   0.25000   0.00000  Uiso   1.00
O1124  O     0.79275   0.57307   0.27282   0.00000  Uiso   1.00
O1125  O     0.92693   0.79275   0.72718   0.00000  Uiso   1.00
O1126  O     0.57307   0.70725   0.27282   0.00000  Uiso   1.00
O1127  O     0.79275   0.57307   0.72718   0.00000  Uiso   1.00
O1128  O     0.70726   0.92693   0.27282   0.00000  Uiso   1.00
O1129  O     0.57307   0.70725   0.72718   0.00000  Uiso   1.00
O1130  O     0.92693   0.79275   0.27282   0.00000  Uiso   1.00
O1131  O     0.95726   0.82307   0.77282   0.00000  Uiso   1.00
O1132  O     0.54275   0.67693   0.22718   0.00000  Uiso   1.00
O1133  O     0.67693   0.95725   0.77282   0.00000  Uiso   1.00
O1134  O     0.50000   0.75000   0.75000   0.00000  Uiso   1.00
O1135  O     0.82307   0.54275   0.22718   0.00000  Uiso   1.00
O1136  O     0.54275   0.67693   0.77282   0.00000  Uiso   1.00
O1137  O     0.95726   0.82307   0.22718   0.00000  Uiso   1.00
O1138  O     0.82307   0.54275   0.77282   0.00000  Uiso   1.00
O1139  O     0.67693   0.95725   0.22718   0.00000  Uiso   1.00
O1140  O     0.95726   0.67693   0.22718   0.00000  Uiso   1.00
O1141  O     0.54275   0.82307   0.77282   0.00000  Uiso   1.00
O1142  O     0.67693   0.54275   0.22718   0.00000  Uiso   1.00
O1143  O     0.82307   0.95725   0.77282   0.00000  Uiso   1.00
O1144  O     0.54275   0.82307   0.22718   0.00000  Uiso   1.00
O1145  O     0.75000   0.96964   0.33683   0.00000  Uiso   1.00
O1146  O     0.95726   0.67693   0.77282   0.00000  Uiso   1.00
O1147  O     0.82307   0.95725   0.22718   0.00000  Uiso   1.00
O1148  O     0.67693   0.54275   0.77282   0.00000  Uiso   1.00
O1149  O     0.73122   0.57224   0.13395   0.00000  Uiso   1.00
O1150  O     0.69520   0.58522   0.08233   0.00000  Uiso   1.00
O1151  O     0.76878   0.57224   0.86604   0.00000  Uiso   1.00
O1152  O     0.80480   0.58522   0.91767   0.00000  Uiso   1.00
O1153  O     0.57224   0.73122   0.13396   0.00000  Uiso   1.00
O1154  O     0.58523   0.69520   0.08233   0.00000  Uiso   1.00
O1155  O     0.57224   0.76878   0.86605   0.00000  Uiso   1.00
O1156  O     0.75000   0.53036   0.66317   0.00000  Uiso   1.00
O1157  O     0.58522   0.80480   0.91767   0.00000  Uiso   1.00
O1158  O     0.76878   0.92776   0.13396   0.00000  Uiso   1.00
O1159  O     0.80480   0.91478   0.08233   0.00000  Uiso   1.00
O1160  O     0.73122   0.92776   0.86605   0.00000  Uiso   1.00
O1161  O     0.69520   0.91478   0.91767   0.00000  Uiso   1.00
O1162  O     0.92776   0.76878   0.13395   0.00000  Uiso   1.00
O1163  O     0.91478   0.80480   0.08233   0.00000  Uiso   1.00
O1164  O     0.92776   0.73122   0.86604   0.00000  Uiso   1.00
O1165  O     0.91478   0.69520   0.91767   0.00000  Uiso   1.00
O1166  O     0.98122   0.67776   0.63395   0.00000  Uiso   1.00
O1167  O     0.53036   0.75000   0.33683   0.00000  Uiso   1.00
O1168  O     0.94520   0.66478   0.58233   0.00000  Uiso   1.00
O1169  O     0.51878   0.67776   0.36605   0.00000  Uiso   1.00
O1170  O     0.55480   0.66478   0.41767   0.00000  Uiso   1.00
O1171  O     0.67776   0.98122   0.63396   0.00000  Uiso   1.00
O1172  O     0.66478   0.94520   0.58233   0.00000  Uiso   1.00
O1173  O     0.67776   0.51878   0.36604   0.00000  Uiso   1.00
O1174  O     0.66478   0.55480   0.41767   0.00000  Uiso   1.00
O1175  O     0.51878   0.82224   0.63396   0.00000  Uiso   1.00
O1176  O     0.55480   0.83522   0.58233   0.00000  Uiso   1.00
O1177  O     0.98122   0.82224   0.36604   0.00000  Uiso   1.00
O1178  O     0.96964   0.75000   0.66317   0.00000  Uiso   1.00
O1179  O     0.94520   0.83522   0.41767   0.00000  Uiso   1.00
O1180  O     0.82224   0.51878   0.63395   0.00000  Uiso   1.00
O1181  O     0.83522   0.55480   0.58233   0.00000  Uiso   1.00
O1182  O     0.82224   0.98122   0.36605   0.00000  Uiso   1.00
O1183  O     0.83522   0.94520   0.41767   0.00000  Uiso   1.00
O1184  O     0.75000   0.53036   0.33683   0.00000  Uiso   1.00
Zn1185 Zn    0.70660   0.50000   0.21760   0.00000  Uiso   1.00
Zn1186 Zn    0.54340   0.75000   0.28240   0.00000  Uiso   1.00
Zn1187 Zn    0.75000   0.95660   0.71760   0.00000  Uiso   1.00
Zn1188 Zn    0.75000   0.54340   0.28240   0.00000  Uiso   1.00
Zn1189 Zn    0.54340   0.75000   0.71760   0.00000  Uiso   1.00
Zn1190 Zn    0.95660   0.75000   0.28240   0.00000  Uiso   1.00
Zn1191 Zn    0.75000   0.54340   0.71760   0.00000  Uiso   1.00
Zn1192 Zn    0.75000   0.95660   0.28240   0.00000  Uiso   1.00
Zn1193 Zn    0.79340   0.50000   0.78240   0.00000  Uiso   1.00
Zn1194 Zn    0.50000   0.70660   0.21760   0.00000  Uiso   1.00
Zn1195 Zn    0.50000   0.79340   0.78240   0.00000  Uiso   1.00
Zn1196 Zn    0.79340   0.50000   0.21760   0.00000  Uiso   1.00
Zn1197 Zn    0.70660   0.50000   0.78240   0.00000  Uiso   1.00
Zn1198 Zn    0.50000   0.79340   0.21760   0.00000  Uiso   1.00
Zn1199 Zn    0.50000   0.70660   0.78240   0.00000  Uiso   1.00
Zn1200 Zn    0.95660   0.75000   0.71760   0.00000  Uiso   1.00
loop_
_geom_bond_atom_site_label_1
_geom_bond_atom_site_label_2
_geom_bond_distance
_geom_bond_site_symmetry_2
_ccdc_geom_bond_type
C1     C46     1.398   .     A
C1     C64     1.396   .     A
C1     H137    1.084   .     S
C2     H138    1.084   .     S
C2     C69     1.396   .     A
C2     C56     1.398   .     A
C3     C112    1.402   .     A
C3     C83     1.457   .     S
C3     C119    1.402   .     A
C4     C84     1.457   .     S
C4     C122    1.402   .     A
C4     C111    1.402   .     A
C5     C110    1.402   .     A
C5     C85     1.457   .     S
C5     C121    1.402   .     A
C6     C109    1.402   .     A
C6     C86     1.457   .     S
C6     C124    1.402   .     A
C7     C123    1.402   .     A
C7     C87     1.457   .     S
C7     C108    1.402   .     A
C8     C107    1.402   .     A
C8     C97     1.457   .     S
C8     C127    1.402   .     A
C9     C125    1.402   .     A
C9     C98     1.457   .     S
C9     C106    1.402   .     A
C10    C129    1.402   .     A
C10    C90     1.457   .     S
C10    C105    1.402   .     A
C11    C91     1.457   .     S
C11    C128    1.402   .     A
C11    C103    1.402   .     A
C12    C92     1.457   .     S
C12    C131    1.402   .     A
C12    C102    1.402   .     A
C13    H139    1.084   .     S
C13    C57     1.398   .     A
C13    C670    1.396   .     S
C14    C130    1.402   .     A
C14    C101    1.402   .     A
C14    C94     1.457   .     S
C15    C100    1.402   .     A
C15    C95     1.457   .     S
C15    C133    1.402   .     A
C16    C132    1.402   .     A
C16    C96     1.457   .     S
C16    C99     1.402   .     A
C17    C80     1.459   .     S
C17    C46     1.421   .     A
C17    C651    1.421   1_545 S
C18    C652    1.421   1_545 A
C18    C47     1.421   .     S
C18    C79     1.459   .     S
C19    C78     1.459   .     S
C19    C48     1.421   .     A
C19    C353    1.421   1_455 S
C20    C77     1.459   .     S
C20    C50     1.421   .     A
C20    C354    1.421   1_455 S
C21    C355    1.421   1_455 A
C21    C76     1.459   .     S
C21    C59     1.421   .     S
C22    C56     1.421   .     A
C22    C75     1.459   .     S
C22    C361    1.421   1_455 S
C23    C74     1.459   .     S
C23    C657    1.421   1_545 A
C23    C62     1.421   .     S
C24    H140    1.084   .     S
C24    C58     1.398   .     A
C24    C72     1.396   .     S
C25    C73     1.459   .     S
C25    C58     1.421   .     A
C25    C663    1.421   1_545 S
C26    O249    1.223   .     D
C26    O250    1.399   .     S
C26    C46     1.492   .     S
C27    O251    1.223   .     D
C27    C47     1.492   .     S
C27    O252    1.399   .     S
C28    O253    1.223   .     D
C28    C48     1.492   .     S
C28    O254    1.399   .     S
C29    O257    1.399   .     S
C29    O255    1.223   .     D
C29    C50     1.492   .     S
C30    C51     1.492   .     S
C30    O258    1.223   .     D
C30    O259    1.399   .     S
C31    C52     1.492   .     S
C31    O261    1.399   .     S
C31    O260    1.223   .     D
C32    C53     1.492   .     S
C32    O263    1.399   .     S
C32    O262    1.223   .     D
C33    O264    1.223   .     D
C33    C54     1.492   .     S
C33    O265    1.399   .     S
C34    C55     1.492   .     S
C34    O268    1.399   .     S
C34    O266    1.223   .     D
C35    C59     1.398   .     A
C35    H141    1.084   .     S
C35    C68     1.396   .     S
C36    O270    1.399   .     S
C36    C56     1.492   .     S
C36    O269    1.223   .     D
C37    O272    1.399   .     S
C37    C57     1.492   .     S
C37    O271    1.223   .     D
C38    O274    1.399   .     S
C38    C58     1.492   .     S
C38    O273    1.223   .     D
C39    O276    1.399   .     S
C39    O275    1.223   .     D
C39    C59     1.492   .     S
C40    O279    1.399   .     S
C40    C61     1.492   .     S
C40    O277    1.223   .     D
C41    O280    1.223   .     D
C41    C62     1.492   .     S
C41    O281    1.399   .     S
C42    O283    1.399   .     S
C42    C63     1.492   .     S
C42    O282    1.223   .     D
C43    C61     1.398   .     A
C43    H142    1.084   .     S
C43    C369    1.396   .     S
C44    C70     1.396   .     A
C44    C62     1.398   .     A
C44    H143    1.084   .     S
C45    H144    1.084   .     S
C45    C672    1.396   .     A
C45    C63     1.398   .     A
C47    C49     1.398   .     A
C48    C60     1.398   .     A
C49    H148    1.084   .     S
C49    C65     1.396   .     S
C50    C71     1.398   .     A
C51    C82     1.398   .     A
C51    C617    1.421   .     S
C52    C93     1.398   .     A
C52    C618    1.421   .     A
C53    C104    1.398   .     A
C53    C319    1.421   .     S
C54    C115    1.398   .     A
C54    C320    1.421   .     S
C55    C321    1.421   .     A
C55    C126    1.398   .     A
C57    C623    1.421   .     A
C60    H159    1.084   .     S
C60    C66     1.396   .     A
C61    C322    1.421   .     S
C63    C625    1.421   .     S
C64    C65     1.466   1_554 S
C64    C682    1.396   1_545 S
C65    C693    1.396   1_545 A
C65    C64     1.466   1_556 S
C66    C67     1.466   1_554 S
C66    C404    1.396   1_455 S
C67    C71     1.396   .     A
C67    C66     1.466   1_556 S
C67    C415    1.396   1_455 S
C68    C426    1.396   1_455 A
C68    C69     1.466   .     S
C69    C343    1.396   1_455 S
C70    C613    1.396   1_545 S
C70    C72     1.466   .     S
C71    H170    1.084   .     S
C72    C645    1.396   1_545 A
C73    O284    1.279   .     A
C73    O845    1.279   1_545 S
C74    O802    1.279   1_545 A
C74    O256    1.279   .     S
C75    O267    1.279   .     A
C75    O503    1.279   1_455 S
C76    O578    1.279   1_455 A
C76    O204    1.279   .     S
C77    O205    1.279   .     A
C77    O209    1.279   .     A
C78    O206    1.279   .     A
C78    O210    1.279   .     A
C79    O207    1.279   .     A
C79    O211    1.279   .     A
C80    O208    1.279   .     A
C80    O213    1.279   .     A
C81    O242    1.279   .     A
C81    C136    1.457   .     S
C81    O214    1.279   .     A
C82    H181    1.084   .     S
C82    C664    1.396   .     S
C83    O243    1.279   .     A
C83    O215    1.279   .     A
C84    O240    1.279   .     A
C84    O216    1.279   .     A
C85    O241    1.279   .     A
C85    O217    1.279   .     A
C86    O247    1.279   .     A
C86    O218    1.279   .     A
C87    O248    1.279   .     A
C87    O219    1.279   .     A
C88    C134    1.457   .     S
C88    O220    1.279   .     A
C88    O244    1.279   .     A
C89    O221    1.279   .     A
C89    C135    1.457   .     S
C89    O246    1.279   .     A
C90    O233    1.279   .     A
C90    O222    1.279   .     A
C91    O224    1.279   .     A
C91    O235    1.279   .     A
C92    O225    1.279   .     A
C92    O231    1.279   .     A
C93    H192    1.084   .     S
C93    C665    1.396   .     A
C94    O232    1.279   .     A
C94    O226    1.279   .     A
C95    O227    1.279   .     A
C95    O238    1.279   .     A
C96    O239    1.279   .     A
C96    O228    1.279   .     A
C97    O236    1.279   .     A
C97    O229    1.279   .     A
C98    O237    1.279   .     A
C98    O230    1.279   .     A
C99    C116    1.387   .     A
C99    H145    1.083   .     S
C100   C114    1.387   .     A
C100   H146    1.083   .     S
C101   C113    1.387   .     A
C101   H147    1.083   .     S
C102   H149    1.083   .     S
C102   C112    1.387   .     A
C103   H150    1.083   .     S
C103   C111    1.387   .     A
C104   H198    1.084   .     S
C104   C366    1.396   .     S
C105   C110    1.387   .     A
C105   H151    1.083   .     S
C106   H152    1.083   .     S
C106   C109    1.387   .     A
C107   C108    1.387   .     A
C107   H153    1.083   .     S
C108   H154    1.083   .     S
C109   H155    1.083   .     S
C110   H156    1.083   .     S
C111   H157    1.083   .     S
C112   H158    1.083   .     S
C113   C136    1.402   .     A
C113   H160    1.083   .     S
C114   H161    1.083   .     S
C114   C135    1.402   .     A
C115   H199    1.084   .     S
C115   C367    1.396   .     S
C116   C134    1.402   .     A
C116   H162    1.083   .     S
C117   C133    1.387   .     A
C117   C135    1.402   .     A
C117   H163    1.083   .     S
C118   H164    1.083   .     S
C118   C134    1.402   .     A
C118   C132    1.387   .     A
C119   C131    1.387   .     A
C119   H165    1.083   .     S
C120   H166    1.083   .     S
C120   C136    1.402   .     A
C120   C130    1.387   .     A
C121   H167    1.083   .     S
C121   C129    1.387   .     A
C122   H168    1.083   .     S
C122   C128    1.387   .     A
C123   C127    1.387   .     A
C123   H169    1.083   .     S
C124   H171    1.083   .     S
C124   C125    1.387   .     A
C125   H172    1.083   .     S
C126   H200    1.084   .     S
C126   C368    1.396   .     A
C127   H173    1.083   .     S
C128   H174    1.083   .     S
C129   H175    1.083   .     S
C130   H176    1.083   .     S
C131   H177    1.083   .     S
C132   H178    1.083   .     S
C133   H179    1.083   .     S
H180   O250    1.014   .     S
H182   O252    1.014   .     S
H183   O254    1.014   .     S
H184   O257    1.014   .     S
H185   O259    1.014   .     S
H186   O261    1.014   .     S
H187   O263    1.014   .     S
H188   O265    1.014   .     S
H189   O268    1.014   .     S
H190   O270    1.014   .     S
H191   O272    1.014   .     S
H193   O274    1.014   .     S
H194   O276    1.014   .     S
H195   O279    1.014   .     S
H196   O281    1.014   .     S
H197   O283    1.014   .     S
O201   Zn288   1.945   .     S
O201   Zn285   1.945   .     S
O201   Zn892   1.945   1_545 S
O201   Zn296   1.945   .     S
O202   C674    1.279   .     A
O202   Zn287   1.935   .     S
O203   Zn290   1.935   .     S
O203   C375    1.279   .     S
O204   Zn289   1.935   .     S
O205   Zn299   1.935   .     S
O206   Zn298   1.935   .     S
O207   Zn293   1.935   .     S
O208   Zn285   1.935   .     S
O209   Zn295   1.935   .     S
O210   Zn294   1.935   .     S
O211   Zn297   1.935   .     S
O212   Zn297   1.945   .     S
O212   Zn291   1.945   .     S
O212   Zn293   1.945   .     S
O212   Zn887   1.945   1_545 S
O213   Zn296   1.935   .     S
O214   Zn288   1.938   .     S
O215   Zn287   1.938   .     S
O216   Zn290   1.938   .     S
O217   Zn289   1.938   .     S
O218   Zn292   1.938   .     S
O219   Zn291   1.938   .     S
O220   Zn286   1.938   .     S
O221   Zn300   1.938   .     S
O222   Zn287   1.938   .     S
O223   Zn298   1.945   .     S
O223   Zn286   1.945   .     S
O223   Zn294   1.945   .     S
O223   Zn590   1.945   1_455 S
O224   Zn288   1.938   .     S
O225   Zn300   1.938   .     S
O226   Zn286   1.938   .     S
O227   Zn291   1.938   .     S
O228   Zn292   1.938   .     S
O229   Zn289   1.938   .     S
O230   Zn290   1.938   .     S
O231   Zn595   1.938   .     S
O232   Zn294   1.938   .     S
O233   Zn897   1.938   .     S
O234   Zn289   1.945   .     S
O234   Zn295   1.945   .     S
O234   Zn299   1.945   .     S
O234   Zn600   1.945   1_455 S
O235   Zn296   1.938   .     S
O236   Zn299   1.938   .     S
O237   Zn598   1.938   .     S
O238   Zn293   1.938   .     S
O239   Zn885   1.938   .     S
O240   Zn594   1.938   .     S
O241   Zn295   1.938   .     S
O242   Zn285   1.938   .     S
O243   Zn893   1.938   .     S
O244   Zn298   1.938   .     S
O245   Zn292   1.935   .     S
O245   C673    1.279   .     S
O246   Zn599   1.938   .     S
O247   Zn896   1.938   .     S
O248   Zn297   1.938   .     S
O256   Zn291   1.935   .     S
O267   Zn286   1.935   .     S
O278   Zn300   1.935   .     S
O278   C376    1.279   .     A
O284   Zn288   1.935   .     S
Zn285  O839    1.938   1_545 S
Zn287  O812    1.945   .     S
Zn290  O523    1.945   .     S
Zn292  O801    1.945   .     S
Zn293  O843    1.938   1_545 S
Zn294  O540    1.938   1_455 S
Zn295  O531    1.938   1_455 S
Zn296  O847    1.938   1_545 S
Zn297  O833    1.938   1_545 S
Zn298  O537    1.938   1_455 S
Zn299  O546    1.938   1_455 S
Zn300  O534    1.945   .     S
C301   C346    1.398   .     A
C301   C364    1.396   .     A
C301   H437    1.084   .     S
C302   H438    1.084   .     S
C302   C369    1.396   .     A
C302   C356    1.398   .     A
C303   C412    1.402   .     A
C303   C383    1.457   .     S
C303   C419    1.402   .     A
C304   C384    1.457   .     S
C304   C422    1.402   .     A
C304   C411    1.402   .     A
C305   C410    1.402   .     A
C305   C385    1.457   .     S
C305   C421    1.402   .     A
C306   C409    1.402   .     A
C306   C386    1.457   .     S
C306   C424    1.402   .     A
C307   C423    1.402   .     A
C307   C387    1.457   .     S
C307   C408    1.402   .     A
C308   C407    1.402   .     A
C308   C397    1.457   .     S
C308   C427    1.402   .     A
C309   C425    1.402   .     A
C309   C398    1.457   .     S
C309   C406    1.402   .     A
C310   C429    1.402   .     A
C310   C390    1.457   .     S
C310   C405    1.402   .     A
C311   C391    1.457   .     S
C311   C428    1.402   .     A
C311   C403    1.402   .     A
C312   C392    1.457   .     S
C312   C431    1.402   .     A
C312   C402    1.402   .     A
C313   H439    1.084   .     S
C313   C357    1.398   .     A
C313   C970    1.396   .     S
C314   C430    1.402   .     A
C314   C401    1.402   .     A
C314   C394    1.457   .     S
C315   C400    1.402   .     A
C315   C395    1.457   .     S
C315   C433    1.402   .     A
C316   C432    1.402   .     A
C316   C396    1.457   .     S
C316   C399    1.402   .     A
C317   C380    1.459   .     S
C317   C346    1.421   .     A
C317   C951    1.421   1_545 S
C318   C952    1.421   1_545 A
C318   C347    1.421   .     S
C318   C379    1.459   .     S
C319   C378    1.459   .     S
C319   C348    1.421   .     A
C320   C377    1.459   .     S
C320   C350    1.421   .     A
C321   C376    1.459   .     S
C321   C359    1.421   .     S
C322   C356    1.421   .     A
C322   C375    1.459   .     S
C323   C374    1.459   .     S
C323   C957    1.421   1_545 A
C323   C362    1.421   .     S
C324   H440    1.084   .     S
C324   C358    1.398   .     A
C324   C372    1.396   .     S
C325   C373    1.459   .     S
C325   C358    1.421   .     A
C325   C963    1.421   1_545 S
C326   O549    1.223   .     D
C326   O550    1.399   .     S
C326   C346    1.492   .     S
C327   O551    1.223   .     D
C327   C347    1.492   .     S
C327   O552    1.399   .     S
C328   O553    1.223   .     D
C328   C348    1.492   .     S
C328   O554    1.399   .     S
C329   O557    1.399   .     S
C329   O555    1.223   .     D
C329   C350    1.492   .     S
C330   C351    1.492   .     S
C330   O558    1.223   .     D
C330   O559    1.399   .     S
C331   C352    1.492   .     S
C331   O561    1.399   .     S
C331   O560    1.223   .     D
C332   C353    1.492   .     S
C332   O563    1.399   .     S
C332   O562    1.223   .     D
C333   O564    1.223   .     D
C333   C354    1.492   .     S
C333   O565    1.399   .     S
C334   C355    1.492   .     S
C334   O568    1.399   .     S
C334   O566    1.223   .     D
C335   C359    1.398   .     A
C335   H441    1.084   .     S
C335   C368    1.396   .     S
C336   O570    1.399   .     S
C336   C356    1.492   .     S
C336   O569    1.223   .     D
C337   O572    1.399   .     S
C337   C357    1.492   .     S
C337   O571    1.223   .     D
C338   O574    1.399   .     S
C338   C358    1.492   .     S
C338   O573    1.223   .     D
C339   O576    1.399   .     S
C339   O575    1.223   .     D
C339   C359    1.492   .     S
C340   O579    1.399   .     S
C340   C361    1.492   .     S
C340   O577    1.223   .     D
C341   O580    1.223   .     D
C341   C362    1.492   .     S
C341   O581    1.399   .     S
C342   O583    1.399   .     S
C342   C363    1.492   .     S
C342   O582    1.223   .     D
C343   C361    1.398   .     A
C343   H442    1.084   .     S
C343   C69     1.396   1_655 S
C344   C370    1.396   .     A
C344   C362    1.398   .     A
C344   H443    1.084   .     S
C345   H444    1.084   .     S
C345   C972    1.396   .     A
C345   C363    1.398   .     A
C347   C349    1.398   .     A
C348   C360    1.398   .     A
C349   H448    1.084   .     S
C349   C365    1.396   .     S
C350   C371    1.398   .     A
C351   C382    1.398   .     A
C351   C917    1.421   .     S
C352   C393    1.398   .     A
C352   C918    1.421   .     A
C353   C404    1.398   .     A
C353   C19     1.421   1_655 S
C354   C415    1.398   .     A
C354   C20     1.421   1_655 S
C355   C21     1.421   1_655 A
C355   C426    1.398   .     A
C357   C923    1.421   .     A
C360   H459    1.084   .     S
C360   C366    1.396   .     A
C361   C22     1.421   1_655 S
C363   C925    1.421   .     S
C364   C365    1.466   1_554 S
C364   C982    1.396   1_545 S
C365   C993    1.396   1_545 A
C365   C364    1.466   1_556 S
C366   C367    1.466   1_554 S
C367   C371    1.396   .     A
C367   C366    1.466   1_556 S
C368   C369    1.466   .     S
C370   C913    1.396   1_545 S
C370   C372    1.466   .     S
C371   H470    1.084   .     S
C372   C945    1.396   1_545 A
C373   O584    1.279   .     A
C373   O1145   1.279   1_545 S
C374   O1102   1.279   1_545 A
C374   O556    1.279   .     S
C375   O567    1.279   .     A
C376   O504    1.279   .     S
C377   O505    1.279   .     A
C377   O509    1.279   .     A
C378   O506    1.279   .     A
C378   O510    1.279   .     A
C379   O507    1.279   .     A
C379   O511    1.279   .     A
C380   O508    1.279   .     A
C380   O513    1.279   .     A
C381   O542    1.279   .     A
C381   C436    1.457   .     S
C381   O514    1.279   .     A
C382   H481    1.084   .     S
C382   C964    1.396   .     S
C383   O543    1.279   .     A
C383   O515    1.279   .     A
C384   O540    1.279   .     A
C384   O516    1.279   .     A
C385   O541    1.279   .     A
C385   O517    1.279   .     A
C386   O547    1.279   .     A
C386   O518    1.279   .     A
C387   O548    1.279   .     A
C387   O519    1.279   .     A
C388   C434    1.457   .     S
C388   O520    1.279   .     A
C388   O544    1.279   .     A
C389   O521    1.279   .     A
C389   C435    1.457   .     S
C389   O546    1.279   .     A
C390   O533    1.279   .     A
C390   O522    1.279   .     A
C391   O524    1.279   .     A
C391   O535    1.279   .     A
C392   O525    1.279   .     A
C392   O531    1.279   .     A
C393   H492    1.084   .     S
C393   C965    1.396   .     A
C394   O532    1.279   .     A
C394   O526    1.279   .     A
C395   O527    1.279   .     A
C395   O538    1.279   .     A
C396   O539    1.279   .     A
C396   O528    1.279   .     A
C397   O536    1.279   .     A
C397   O529    1.279   .     A
C398   O537    1.279   .     A
C398   O530    1.279   .     A
C399   C416    1.387   .     A
C399   H445    1.083   .     S
C400   C414    1.387   .     A
C400   H446    1.083   .     S
C401   C413    1.387   .     A
C401   H447    1.083   .     S
C402   H449    1.083   .     S
C402   C412    1.387   .     A
C403   H450    1.083   .     S
C403   C411    1.387   .     A
C404   H498    1.084   .     S
C404   C66     1.396   1_655 S
C405   C410    1.387   .     A
C405   H451    1.083   .     S
C406   H452    1.083   .     S
C406   C409    1.387   .     A
C407   C408    1.387   .     A
C407   H453    1.083   .     S
C408   H454    1.083   .     S
C409   H455    1.083   .     S
C410   H456    1.083   .     S
C411   H457    1.083   .     S
C412   H458    1.083   .     S
C413   C436    1.402   .     A
C413   H460    1.083   .     S
C414   H461    1.083   .     S
C414   C435    1.402   .     A
C415   H499    1.084   .     S
C415   C67     1.396   1_655 S
C416   C434    1.402   .     A
C416   H462    1.083   .     S
C417   C433    1.387   .     A
C417   C435    1.402   .     A
C417   H463    1.083   .     S
C418   H464    1.083   .     S
C418   C434    1.402   .     A
C418   C432    1.387   .     A
C419   C431    1.387   .     A
C419   H465    1.083   .     S
C420   H466    1.083   .     S
C420   C436    1.402   .     A
C420   C430    1.387   .     A
C421   H467    1.083   .     S
C421   C429    1.387   .     A
C422   H468    1.083   .     S
C422   C428    1.387   .     A
C423   C427    1.387   .     A
C423   H469    1.083   .     S
C424   H471    1.083   .     S
C424   C425    1.387   .     A
C425   H472    1.083   .     S
C426   H500    1.084   .     S
C426   C68     1.396   1_655 A
C427   H473    1.083   .     S
C428   H474    1.083   .     S
C429   H475    1.083   .     S
C430   H476    1.083   .     S
C431   H477    1.083   .     S
C432   H478    1.083   .     S
C433   H479    1.083   .     S
H480   O550    1.014   .     S
H482   O552    1.014   .     S
H483   O554    1.014   .     S
H484   O557    1.014   .     S
H485   O559    1.014   .     S
H486   O561    1.014   .     S
H487   O563    1.014   .     S
H488   O565    1.014   .     S
H489   O568    1.014   .     S
H490   O570    1.014   .     S
H491   O572    1.014   .     S
H493   O574    1.014   .     S
H494   O576    1.014   .     S
H495   O579    1.014   .     S
H496   O581    1.014   .     S
H497   O583    1.014   .     S
O501   Zn588   1.945   .     S
O501   Zn585   1.945   .     S
O501   Zn1192  1.945   1_545 S
O501   Zn596   1.945   .     S
O502   C974    1.279   .     A
O502   Zn587   1.935   .     S
O503   Zn590   1.935   .     S
O503   C75     1.279   1_655 S
O504   Zn589   1.935   .     S
O505   Zn599   1.935   .     S
O506   Zn598   1.935   .     S
O507   Zn593   1.935   .     S
O508   Zn585   1.935   .     S
O509   Zn595   1.935   .     S
O510   Zn594   1.935   .     S
O511   Zn597   1.935   .     S
O512   Zn597   1.945   .     S
O512   Zn591   1.945   .     S
O512   Zn593   1.945   .     S
O512   Zn1187  1.945   1_545 S
O513   Zn596   1.935   .     S
O514   Zn588   1.938   .     S
O515   Zn587   1.938   .     S
O516   Zn590   1.938   .     S
O517   Zn589   1.938   .     S
O518   Zn592   1.938   .     S
O519   Zn591   1.938   .     S
O520   Zn586   1.938   .     S
O521   Zn600   1.938   .     S
O522   Zn587   1.938   .     S
O523   Zn598   1.945   .     S
O523   Zn586   1.945   .     S
O523   Zn594   1.945   .     S
O524   Zn588   1.938   .     S
O525   Zn600   1.938   .     S
O526   Zn586   1.938   .     S
O527   Zn591   1.938   .     S
O528   Zn592   1.938   .     S
O529   Zn589   1.938   .     S
O530   Zn590   1.938   .     S
O531   Zn295   1.938   1_655 S
O532   Zn594   1.938   .     S
O533   Zn1197  1.938   .     S
O534   Zn589   1.945   .     S
O534   Zn595   1.945   .     S
O534   Zn599   1.945   .     S
O535   Zn596   1.938   .     S
O536   Zn599   1.938   .     S
O537   Zn298   1.938   1_655 S
O538   Zn593   1.938   .     S
O539   Zn1185  1.938   .     S
O540   Zn294   1.938   1_655 S
O541   Zn595   1.938   .     S
O542   Zn585   1.938   .     S
O543   Zn1193  1.938   .     S
O544   Zn598   1.938   .     S
O545   Zn592   1.935   .     S
O545   C973    1.279   .     S
O546   Zn299   1.938   1_655 S
O547   Zn1196  1.938   .     S
O548   Zn597   1.938   .     S
O556   Zn591   1.935   .     S
O567   Zn586   1.935   .     S
O578   Zn600   1.935   .     S
O578   C76     1.279   1_655 A
O584   Zn588   1.935   .     S
Zn585  O1139   1.938   1_545 S
Zn587  O1112   1.945   .     S
Zn590  O223    1.945   1_655 S
Zn592  O1101   1.945   .     S
Zn593  O1143   1.938   1_545 S
Zn596  O1147   1.938   1_545 S
Zn597  O1133   1.938   1_545 S
Zn600  O234    1.945   1_655 S
C601   C646    1.398   .     A
C601   C664    1.396   .     A
C601   H737    1.084   .     S
C602   H738    1.084   .     S
C602   C669    1.396   .     A
C602   C656    1.398   .     A
C603   C712    1.402   .     A
C603   C683    1.457   .     S
C603   C719    1.402   .     A
C604   C684    1.457   .     S
C604   C722    1.402   .     A
C604   C711    1.402   .     A
C605   C710    1.402   .     A
C605   C685    1.457   .     S
C605   C721    1.402   .     A
C606   C709    1.402   .     A
C606   C686    1.457   .     S
C606   C724    1.402   .     A
C607   C723    1.402   .     A
C607   C687    1.457   .     S
C607   C708    1.402   .     A
C608   C707    1.402   .     A
C608   C697    1.457   .     S
C608   C727    1.402   .     A
C609   C725    1.402   .     A
C609   C698    1.457   .     S
C609   C706    1.402   .     A
C610   C729    1.402   .     A
C610   C690    1.457   .     S
C610   C705    1.402   .     A
C611   C691    1.457   .     S
C611   C728    1.402   .     A
C611   C703    1.402   .     A
C612   C692    1.457   .     S
C612   C731    1.402   .     A
C612   C702    1.402   .     A
C613   H739    1.084   .     S
C613   C657    1.398   .     A
C613   C70     1.396   1_565 S
C614   C730    1.402   .     A
C614   C701    1.402   .     A
C614   C694    1.457   .     S
C615   C700    1.402   .     A
C615   C695    1.457   .     S
C615   C733    1.402   .     A
C616   C732    1.402   .     A
C616   C696    1.457   .     S
C616   C699    1.402   .     A
C617   C680    1.459   .     S
C617   C646    1.421   .     A
C618   C647    1.421   .     S
C618   C679    1.459   .     S
C619   C678    1.459   .     S
C619   C648    1.421   .     A
C619   C953    1.421   1_455 S
C620   C677    1.459   .     S
C620   C650    1.421   .     A
C620   C954    1.421   1_455 S
C621   C955    1.421   1_455 A
C621   C676    1.459   .     S
C621   C659    1.421   .     S
C622   C656    1.421   .     A
C622   C675    1.459   .     S
C622   C961    1.421   1_455 S
C623   C674    1.459   .     S
C623   C662    1.421   .     S
C624   H740    1.084   .     S
C624   C658    1.398   .     A
C624   C672    1.396   .     S
C625   C673    1.459   .     S
C625   C658    1.421   .     A
C626   O849    1.223   .     D
C626   O850    1.399   .     S
C626   C646    1.492   .     S
C627   O851    1.223   .     D
C627   C647    1.492   .     S
C627   O852    1.399   .     S
C628   O853    1.223   .     D
C628   C648    1.492   .     S
C628   O854    1.399   .     S
C629   O857    1.399   .     S
C629   O855    1.223   .     D
C629   C650    1.492   .     S
C630   C651    1.492   .     S
C630   O858    1.223   .     D
C630   O859    1.399   .     S
C631   C652    1.492   .     S
C631   O861    1.399   .     S
C631   O860    1.223   .     D
C632   C653    1.492   .     S
C632   O863    1.399   .     S
C632   O862    1.223   .     D
C633   O864    1.223   .     D
C633   C654    1.492   .     S
C633   O865    1.399   .     S
C634   C655    1.492   .     S
C634   O868    1.399   .     S
C634   O866    1.223   .     D
C635   C659    1.398   .     A
C635   H741    1.084   .     S
C635   C668    1.396   .     S
C636   O870    1.399   .     S
C636   C656    1.492   .     S
C636   O869    1.223   .     D
C637   O872    1.399   .     S
C637   C657    1.492   .     S
C637   O871    1.223   .     D
C638   O874    1.399   .     S
C638   C658    1.492   .     S
C638   O873    1.223   .     D
C639   O876    1.399   .     S
C639   O875    1.223   .     D
C639   C659    1.492   .     S
C640   O879    1.399   .     S
C640   C661    1.492   .     S
C640   O877    1.223   .     D
C641   O880    1.223   .     D
C641   C662    1.492   .     S
C641   O881    1.399   .     S
C642   O883    1.399   .     S
C642   C663    1.492   .     S
C642   O882    1.223   .     D
C643   C661    1.398   .     A
C643   H742    1.084   .     S
C643   C969    1.396   .     S
C644   C670    1.396   .     A
C644   C662    1.398   .     A
C644   H743    1.084   .     S
C645   H744    1.084   .     S
C645   C72     1.396   1_565 A
C645   C663    1.398   .     A
C647   C649    1.398   .     A
C648   C660    1.398   .     A
C649   H748    1.084   .     S
C649   C665    1.396   .     S
C650   C671    1.398   .     A
C651   C682    1.398   .     A
C651   C17     1.421   1_565 S
C652   C693    1.398   .     A
C652   C18     1.421   1_565 A
C653   C704    1.398   .     A
C653   C919    1.421   .     S
C654   C715    1.398   .     A
C654   C920    1.421   .     S
C655   C921    1.421   .     A
C655   C726    1.398   .     A
C657   C23     1.421   1_565 A
C660   H759    1.084   .     S
C660   C666    1.396   .     A
C661   C922    1.421   .     S
C663   C25     1.421   1_565 S
C664   C665    1.466   1_554 S
C665   C664    1.466   1_556 S
C666   C667    1.466   1_554 S
C666   C1004   1.396   1_455 S
C667   C671    1.396   .     A
C667   C666    1.466   1_556 S
C667   C1015   1.396   1_455 S
C668   C1026   1.396   1_455 A
C668   C669    1.466   .     S
C669   C943    1.396   1_455 S
C670   C672    1.466   .     S
C671   H770    1.084   .     S
C673   O884    1.279   .     A
C674   O856    1.279   .     S
C675   O867    1.279   .     A
C675   O1103   1.279   1_455 S
C676   O1178   1.279   1_455 A
C676   O804    1.279   .     S
C677   O805    1.279   .     A
C677   O809    1.279   .     A
C678   O806    1.279   .     A
C678   O810    1.279   .     A
C679   O807    1.279   .     A
C679   O811    1.279   .     A
C680   O808    1.279   .     A
C680   O813    1.279   .     A
C681   O842    1.279   .     A
C681   C736    1.457   .     S
C681   O814    1.279   .     A
C682   H781    1.084   .     S
C682   C64     1.396   1_565 S
C683   O843    1.279   .     A
C683   O815    1.279   .     A
C684   O840    1.279   .     A
C684   O816    1.279   .     A
C685   O841    1.279   .     A
C685   O817    1.279   .     A
C686   O847    1.279   .     A
C686   O818    1.279   .     A
C687   O848    1.279   .     A
C687   O819    1.279   .     A
C688   C734    1.457   .     S
C688   O820    1.279   .     A
C688   O844    1.279   .     A
C689   O821    1.279   .     A
C689   C735    1.457   .     S
C689   O846    1.279   .     A
C690   O833    1.279   .     A
C690   O822    1.279   .     A
C691   O824    1.279   .     A
C691   O835    1.279   .     A
C692   O825    1.279   .     A
C692   O831    1.279   .     A
C693   H792    1.084   .     S
C693   C65     1.396   1_565 A
C694   O832    1.279   .     A
C694   O826    1.279   .     A
C695   O827    1.279   .     A
C695   O838    1.279   .     A
C696   O839    1.279   .     A
C696   O828    1.279   .     A
C697   O836    1.279   .     A
C697   O829    1.279   .     A
C698   O837    1.279   .     A
C698   O830    1.279   .     A
C699   C716    1.387   .     A
C699   H745    1.083   .     S
C700   C714    1.387   .     A
C700   H746    1.083   .     S
C701   C713    1.387   .     A
C701   H747    1.083   .     S
C702   H749    1.083   .     S
C702   C712    1.387   .     A
C703   H750    1.083   .     S
C703   C711    1.387   .     A
C704   H798    1.084   .     S
C704   C966    1.396   .     S
C705   C710    1.387   .     A
C705   H751    1.083   .     S
C706   H752    1.083   .     S
C706   C709    1.387   .     A
C707   C708    1.387   .     A
C707   H753    1.083   .     S
C708   H754    1.083   .     S
C709   H755    1.083   .     S
C710   H756    1.083   .     S
C711   H757    1.083   .     S
C712   H758    1.083   .     S
C713   C736    1.402   .     A
C713   H760    1.083   .     S
C714   H761    1.083   .     S
C714   C735    1.402   .     A
C715   H799    1.084   .     S
C715   C967    1.396   .     S
C716   C734    1.402   .     A
C716   H762    1.083   .     S
C717   C733    1.387   .     A
C717   C735    1.402   .     A
C717   H763    1.083   .     S
C718   H764    1.083   .     S
C718   C734    1.402   .     A
C718   C732    1.387   .     A
C719   C731    1.387   .     A
C719   H765    1.083   .     S
C720   H766    1.083   .     S
C720   C736    1.402   .     A
C720   C730    1.387   .     A
C721   H767    1.083   .     S
C721   C729    1.387   .     A
C722   H768    1.083   .     S
C722   C728    1.387   .     A
C723   C727    1.387   .     A
C723   H769    1.083   .     S
C724   H771    1.083   .     S
C724   C725    1.387   .     A
C725   H772    1.083   .     S
C726   H800    1.084   .     S
C726   C968    1.396   .     A
C727   H773    1.083   .     S
C728   H774    1.083   .     S
C729   H775    1.083   .     S
C730   H776    1.083   .     S
C731   H777    1.083   .     S
C732   H778    1.083   .     S
C733   H779    1.083   .     S
H780   O850    1.014   .     S
H782   O852    1.014   .     S
H783   O854    1.014   .     S
H784   O857    1.014   .     S
H785   O859    1.014   .     S
H786   O861    1.014   .     S
H787   O863    1.014   .     S
H788   O865    1.014   .     S
H789   O868    1.014   .     S
H790   O870    1.014   .     S
H791   O872    1.014   .     S
H793   O874    1.014   .     S
H794   O876    1.014   .     S
H795   O879    1.014   .     S
H796   O881    1.014   .     S
H797   O883    1.014   .     S
O801   Zn888   1.945   .     S
O801   Zn885   1.945   .     S
O801   Zn896   1.945   .     S
O802   C74     1.279   1_565 A
O802   Zn887   1.935   .     S
O803   Zn890   1.935   .     S
O803   C975    1.279   .     S
O804   Zn889   1.935   .     S
O805   Zn899   1.935   .     S
O806   Zn898   1.935   .     S
O807   Zn893   1.935   .     S
O808   Zn885   1.935   .     S
O809   Zn895   1.935   .     S
O810   Zn894   1.935   .     S
O811   Zn897   1.935   .     S
O812   Zn897   1.945   .     S
O812   Zn891   1.945   .     S
O812   Zn893   1.945   .     S
O813   Zn896   1.935   .     S
O814   Zn888   1.938   .     S
O815   Zn887   1.938   .     S
O816   Zn890   1.938   .     S
O817   Zn889   1.938   .     S
O818   Zn892   1.938   .     S
O819   Zn891   1.938   .     S
O820   Zn886   1.938   .     S
O821   Zn900   1.938   .     S
O822   Zn887   1.938   .     S
O823   Zn898   1.945   .     S
O823   Zn886   1.945   .     S
O823   Zn894   1.945   .     S
O823   Zn1190  1.945   1_455 S
O824   Zn888   1.938   .     S
O825   Zn900   1.938   .     S
O826   Zn886   1.938   .     S
O827   Zn891   1.938   .     S
O828   Zn892   1.938   .     S
O829   Zn889   1.938   .     S
O830   Zn890   1.938   .     S
O831   Zn1195  1.938   .     S
O832   Zn894   1.938   .     S
O833   Zn297   1.938   1_565 S
O834   Zn889   1.945   .     S
O834   Zn895   1.945   .     S
O834   Zn899   1.945   .     S
O834   Zn1200  1.945   1_455 S
O835   Zn896   1.938   .     S
O836   Zn899   1.938   .     S
O837   Zn1198  1.938   .     S
O838   Zn893   1.938   .     S
O839   Zn285   1.938   1_565 S
O840   Zn1194  1.938   .     S
O841   Zn895   1.938   .     S
O842   Zn885   1.938   .     S
O843   Zn293   1.938   1_565 S
O844   Zn898   1.938   .     S
O845   Zn892   1.935   .     S
O845   C73     1.279   1_565 S
O846   Zn1199  1.938   .     S
O847   Zn296   1.938   1_565 S
O848   Zn897   1.938   .     S
O856   Zn891   1.935   .     S
O867   Zn886   1.935   .     S
O878   Zn900   1.935   .     S
O878   C976    1.279   .     A
O884   Zn888   1.935   .     S
Zn887  O212    1.945   1_565 S
Zn890  O1123   1.945   .     S
Zn892  O201    1.945   1_565 S
Zn894  O1140   1.938   1_455 S
Zn895  O1131   1.938   1_455 S
Zn898  O1137   1.938   1_455 S
Zn899  O1146   1.938   1_455 S
Zn900  O1134   1.945   .     S
C901   C946    1.398   .     A
C901   C964    1.396   .     A
C901   H1037   1.084   .     S
C902   H1038   1.084   .     S
C902   C969    1.396   .     A
C902   C956    1.398   .     A
C903   C1012   1.402   .     A
C903   C983    1.457   .     S
C903   C1019   1.402   .     A
C904   C984    1.457   .     S
C904   C1022   1.402   .     A
C904   C1011   1.402   .     A
C905   C1010   1.402   .     A
C905   C985    1.457   .     S
C905   C1021   1.402   .     A
C906   C1009   1.402   .     A
C906   C986    1.457   .     S
C906   C1024   1.402   .     A
C907   C1023   1.402   .     A
C907   C987    1.457   .     S
C907   C1008   1.402   .     A
C908   C1007   1.402   .     A
C908   C997    1.457   .     S
C908   C1027   1.402   .     A
C909   C1025   1.402   .     A
C909   C998    1.457   .     S
C909   C1006   1.402   .     A
C910   C1029   1.402   .     A
C910   C990    1.457   .     S
C910   C1005   1.402   .     A
C911   C991    1.457   .     S
C911   C1028   1.402   .     A
C911   C1003   1.402   .     A
C912   C992    1.457   .     S
C912   C1031   1.402   .     A
C912   C1002   1.402   .     A
C913   H1039   1.084   .     S
C913   C957    1.398   .     A
C913   C370    1.396   1_565 S
C914   C1030   1.402   .     A
C914   C1001   1.402   .     A
C914   C994    1.457   .     S
C915   C1000   1.402   .     A
C915   C995    1.457   .     S
C915   C1033   1.402   .     A
C916   C1032   1.402   .     A
C916   C996    1.457   .     S
C916   C999    1.402   .     A
C917   C980    1.459   .     S
C917   C946    1.421   .     A
C918   C947    1.421   .     S
C918   C979    1.459   .     S
C919   C978    1.459   .     S
C919   C948    1.421   .     A
C920   C977    1.459   .     S
C920   C950    1.421   .     A
C921   C976    1.459   .     S
C921   C959    1.421   .     S
C922   C956    1.421   .     A
C922   C975    1.459   .     S
C923   C974    1.459   .     S
C923   C962    1.421   .     S
C924   H1040   1.084   .     S
C924   C958    1.398   .     A
C924   C972    1.396   .     S
C925   C973    1.459   .     S
C925   C958    1.421   .     A
C926   O1149   1.223   .     D
C926   O1150   1.399   .     S
C926   C946    1.492   .     S
C927   O1151   1.223   .     D
C927   C947    1.492   .     S
C927   O1152   1.399   .     S
C928   O1153   1.223   .     D
C928   C948    1.492   .     S
C928   O1154   1.399   .     S
C929   O1157   1.399   .     S
C929   O1155   1.223   .     D
C929   C950    1.492   .     S
C930   C951    1.492   .     S
C930   O1158   1.223   .     D
C930   O1159   1.399   .     S
C931   C952    1.492   .     S
C931   O1161   1.399   .     S
C931   O1160   1.223   .     D
C932   C953    1.492   .     S
C932   O1163   1.399   .     S
C932   O1162   1.223   .     D
C933   O1164   1.223   .     D
C933   C954    1.492   .     S
C933   O1165   1.399   .     S
C934   C955    1.492   .     S
C934   O1168   1.399   .     S
C934   O1166   1.223   .     D
C935   C959    1.398   .     A
C935   H1041   1.084   .     S
C935   C968    1.396   .     S
C936   O1170   1.399   .     S
C936   C956    1.492   .     S
C936   O1169   1.223   .     D
C937   O1172   1.399   .     S
C937   C957    1.492   .     S
C937   O1171   1.223   .     D
C938   O1174   1.399   .     S
C938   C958    1.492   .     S
C938   O1173   1.223   .     D
C939   O1176   1.399   .     S
C939   O1175   1.223   .     D
C939   C959    1.492   .     S
C940   O1179   1.399   .     S
C940   C961    1.492   .     S
C940   O1177   1.223   .     D
C941   O1180   1.223   .     D
C941   C962    1.492   .     S
C941   O1181   1.399   .     S
C942   O1183   1.399   .     S
C942   C963    1.492   .     S
C942   O1182   1.223   .     D
C943   C961    1.398   .     A
C943   H1042   1.084   .     S
C943   C669    1.396   1_655 S
C944   C970    1.396   .     A
C944   C962    1.398   .     A
C944   H1043   1.084   .     S
C945   H1044   1.084   .     S
C945   C372    1.396   1_565 A
C945   C963    1.398   .     A
C947   C949    1.398   .     A
C948   C960    1.398   .     A
C949   H1048   1.084   .     S
C949   C965    1.396   .     S
C950   C971    1.398   .     A
C951   C982    1.398   .     A
C951   C317    1.421   1_565 S
C952   C993    1.398   .     A
C952   C318    1.421   1_565 A
C953   C1004   1.398   .     A
C953   C619    1.421   1_655 S
C954   C1015   1.398   .     A
C954   C620    1.421   1_655 S
C955   C621    1.421   1_655 A
C955   C1026   1.398   .     A
C957   C323    1.421   1_565 A
C960   H1059   1.084   .     S
C960   C966    1.396   .     A
C961   C622    1.421   1_655 S
C963   C325    1.421   1_565 S
C964   C965    1.466   1_554 S
C965   C964    1.466   1_556 S
C966   C967    1.466   1_554 S
C967   C971    1.396   .     A
C967   C966    1.466   1_556 S
C968   C969    1.466   .     S
C970   C972    1.466   .     S
C971   H1070   1.084   .     S
C973   O1184   1.279   .     A
C974   O1156   1.279   .     S
C975   O1167   1.279   .     A
C976   O1104   1.279   .     S
C977   O1105   1.279   .     A
C977   O1109   1.279   .     A
C978   O1106   1.279   .     A
C978   O1110   1.279   .     A
C979   O1107   1.279   .     A
C979   O1111   1.279   .     A
C980   O1108   1.279   .     A
C980   O1113   1.279   .     A
C981   O1142   1.279   .     A
C981   C1036   1.457   .     S
C981   O1114   1.279   .     A
C982   H1081   1.084   .     S
C982   C364    1.396   1_565 S
C983   O1143   1.279   .     A
C983   O1115   1.279   .     A
C984   O1140   1.279   .     A
C984   O1116   1.279   .     A
C985   O1141   1.279   .     A
C985   O1117   1.279   .     A
C986   O1147   1.279   .     A
C986   O1118   1.279   .     A
C987   O1148   1.279   .     A
C987   O1119   1.279   .     A
C988   C1034   1.457   .     S
C988   O1120   1.279   .     A
C988   O1144   1.279   .     A
C989   O1121   1.279   .     A
C989   C1035   1.457   .     S
C989   O1146   1.279   .     A
C990   O1133   1.279   .     A
C990   O1122   1.279   .     A
C991   O1124   1.279   .     A
C991   O1135   1.279   .     A
C992   O1125   1.279   .     A
C992   O1131   1.279   .     A
C993   H1092   1.084   .     S
C993   C365    1.396   1_565 A
C994   O1132   1.279   .     A
C994   O1126   1.279   .     A
C995   O1127   1.279   .     A
C995   O1138   1.279   .     A
C996   O1139   1.279   .     A
C996   O1128   1.279   .     A
C997   O1136   1.279   .     A
C997   O1129   1.279   .     A
C998   O1137   1.279   .     A
C998   O1130   1.279   .     A
C999   C1016   1.387   .     A
C999   H1045   1.083   .     S
C1000  C1014   1.387   .     A
C1000  H1046   1.083   .     S
C1001  C1013   1.387   .     A
C1001  H1047   1.083   .     S
C1002  H1049   1.083   .     S
C1002  C1012   1.387   .     A
C1003  H1050   1.083   .     S
C1003  C1011   1.387   .     A
C1004  H1098   1.084   .     S
C1004  C666    1.396   1_655 S
C1005  C1010   1.387   .     A
C1005  H1051   1.083   .     S
C1006  H1052   1.083   .     S
C1006  C1009   1.387   .     A
C1007  C1008   1.387   .     A
C1007  H1053   1.083   .     S
C1008  H1054   1.083   .     S
C1009  H1055   1.083   .     S
C1010  H1056   1.083   .     S
C1011  H1057   1.083   .     S
C1012  H1058   1.083   .     S
C1013  C1036   1.402   .     A
C1013  H1060   1.083   .     S
C1014  H1061   1.083   .     S
C1014  C1035   1.402   .     A
C1015  H1099   1.084   .     S
C1015  C667    1.396   1_655 S
C1016  C1034   1.402   .     A
C1016  H1062   1.083   .     S
C1017  C1033   1.387   .     A
C1017  C1035   1.402   .     A
C1017  H1063   1.083   .     S
C1018  H1064   1.083   .     S
C1018  C1034   1.402   .     A
C1018  C1032   1.387   .     A
C1019  C1031   1.387   .     A
C1019  H1065   1.083   .     S
C1020  H1066   1.083   .     S
C1020  C1036   1.402   .     A
C1020  C1030   1.387   .     A
C1021  H1067   1.083   .     S
C1021  C1029   1.387   .     A
C1022  H1068   1.083   .     S
C1022  C1028   1.387   .     A
C1023  C1027   1.387   .     A
C1023  H1069   1.083   .     S
C1024  H1071   1.083   .     S
C1024  C1025   1.387   .     A
C1025  H1072   1.083   .     S
C1026  H1100   1.084   .     S
C1026  C668    1.396   1_655 A
C1027  H1073   1.083   .     S
C1028  H1074   1.083   .     S
C1029  H1075   1.083   .     S
C1030  H1076   1.083   .     S
C1031  H1077   1.083   .     S
C1032  H1078   1.083   .     S
C1033  H1079   1.083   .     S
H1080  O1150   1.014   .     S
H1082  O1152   1.014   .     S
H1083  O1154   1.014   .     S
H1084  O1157   1.014   .     S
H1085  O1159   1.014   .     S
H1086  O1161   1.014   .     S
H1087  O1163   1.014   .     S
H1088  O1165   1.014   .     S
H1089  O1168   1.014   .     S
H1090  O1170   1.014   .     S
H1091  O1172   1.014   .     S
H1093  O1174   1.014   .     S
H1094  O1176   1.014   .     S
H1095  O1179   1.014   .     S
H1096  O1181   1.014   .     S
H1097  O1183   1.014   .     S
O1101  Zn1188  1.945   .     S
O1101  Zn1185  1.945   .     S
O1101  Zn1196  1.945   .     S
O1102  C374    1.279   1_565 A
O1102  Zn1187  1.935   .     S
O1103  Zn1190  1.935   .     S
O1103  C675    1.279   1_655 S
O1104  Zn1189  1.935   .     S
O1105  Zn1199  1.935   .     S
O1106  Zn1198  1.935   .     S
O1107  Zn1193  1.935   .     S
O1108  Zn1185  1.935   .     S
O1109  Zn1195  1.935   .     S
O1110  Zn1194  1.935   .     S
O1111  Zn1197  1.935   .     S
O1112  Zn1197  1.945   .     S
O1112  Zn1191  1.945   .     S
O1112  Zn1193  1.945   .     S
O1113  Zn1196  1.935   .     S
O1114  Zn1188  1.938   .     S
O1115  Zn1187  1.938   .     S
O1116  Zn1190  1.938   .     S
O1117  Zn1189  1.938   .     S
O1118  Zn1192  1.938   .     S
O1119  Zn1191  1.938   .     S
O1120  Zn1186  1.938   .     S
O1121  Zn1200  1.938   .     S
O1122  Zn1187  1.938   .     S
O1123  Zn1198  1.945   .     S
O1123  Zn1186  1.945   .     S
O1123  Zn1194  1.945   .     S
O1124  Zn1188  1.938   .     S
O1125  Zn1200  1.938   .     S
O1126  Zn1186  1.938   .     S
O1127  Zn1191  1.938   .     S
O1128  Zn1192  1.938   .     S
O1129  Zn1189  1.938   .     S
O1130  Zn1190  1.938   .     S
O1131  Zn895   1.938   1_655 S
O1132  Zn1194  1.938   .     S
O1133  Zn597   1.938   1_565 S
O1134  Zn1189  1.945   .     S
O1134  Zn1195  1.945   .     S
O1134  Zn1199  1.945   .     S
O1135  Zn1196  1.938   .     S
O1136  Zn1199  1.938   .     S
O1137  Zn898   1.938   1_655 S
O1138  Zn1193  1.938   .     S
O1139  Zn585   1.938   1_565 S
O1140  Zn894   1.938   1_655 S
O1141  Zn1195  1.938   .     S
O1142  Zn1185  1.938   .     S
O1143  Zn593   1.938   1_565 S
O1144  Zn1198  1.938   .     S
O1145  Zn1192  1.935   .     S
O1145  C373    1.279   1_565 S
O1146  Zn899   1.938   1_655 S
O1147  Zn596   1.938   1_565 S
O1148  Zn1197  1.938   .     S
O1156  Zn1191  1.935   .     S
O1167  Zn1186  1.935   .     S
O1178  Zn1200  1.935   .     S
O1178  C676    1.279   1_655 A
O1184  Zn1188  1.935   .     S
Zn1187 O512    1.945   1_565 S
Zn1190 O823    1.945   1_655 S
Zn1192 O501    1.945   1_565 S
Zn1200 O834    1.945   1_655 S
