data_str_m1_o10_o16_pcu_sym.27
_audit_creation_date              2020-01-03
_audit_creation_method            'Materials Studio'
_symmetry_space_group_name_H-M    'P1'
_symmetry_Int_Tables_number       1
_symmetry_cell_setting            triclinic
loop_
_symmetry_equiv_pos_as_xyz
  x,y,z
_cell_length_a                    32.5567
_cell_length_b                    32.5216
_cell_length_c                    30.9229
_cell_angle_alpha                 96.5735
_cell_angle_beta                  74.7190
_cell_angle_gamma                 98.4147
loop_
_atom_site_label
_atom_site_type_symbol
_atom_site_fract_x
_atom_site_fract_y
_atom_site_fract_z
_atom_site_U_iso_or_equiv
_atom_site_adp_type
_atom_site_occupancy
C1     C     0.05271   0.15966   0.26005   0.00000  Uiso   1.00
C2     C     0.17578   0.16429   0.05777   0.00000  Uiso   1.00
C3     C     0.21550   0.10706   0.05764   0.00000  Uiso   1.00
C4     C     0.28079   0.17381   0.24002   0.00000  Uiso   1.00
C5     C     0.14050   0.19320   0.42103   0.00000  Uiso   1.00
C6     C     0.32663   0.17654   0.23597   0.00000  Uiso   1.00
C7     C     0.00744   0.15723   0.26404   0.00000  Uiso   1.00
C8     C     0.18040   0.32247   0.23651   0.00000  Uiso   1.00
C9     C     0.15184   0.01179   0.26404   0.00000  Uiso   1.00
C10    C     0.15609   0.05587   0.26027   0.00000  Uiso   1.00
C11    C     0.17657   0.27793   0.24019   0.00000  Uiso   1.00
C12    C     0.14238   0.24900   0.47982   0.00000  Uiso   1.00
C13    C     0.18531   0.14808   0.12928   0.00000  Uiso   1.00
C14    C     0.14772   0.18424   0.37138   0.00000  Uiso   1.00
C15    C     0.21589   0.09585   0.01227   0.00000  Uiso   1.00
C16    C     0.19298   0.13983   0.08075   0.00000  Uiso   1.00
C17    C     0.12909   0.23275   0.44135   0.00000  Uiso   1.00
C18    C     0.17786   0.05398   0.43829   0.00000  Uiso   1.00
C19    C     0.10389   0.25801   0.42319   0.00000  Uiso   1.00
C20    C     0.12490   0.09983   0.40622   0.00000  Uiso   1.00
C21    C     0.16323   0.22573   0.00036   0.00000  Uiso   1.00
C22    C     0.16480   0.18249   0.48707   0.00000  Uiso   1.00
C23    C     0.15309   0.16591   0.44686   0.00000  Uiso   1.00
C24    C     0.17862   0.15552   0.01173   0.00000  Uiso   1.00
C25    C     0.19183   0.11675   0.49114   0.00000  Uiso   1.00
C26    C     0.17700   0.09900   0.45304   0.00000  Uiso   1.00
C27    C     0.15374   0.12242   0.43398   0.00000  Uiso   1.00
Cl28   Cl    0.24172   0.07922   0.08603   0.00000  Uiso   1.00
Cl29   Cl    0.25065   0.05952   0.48187   0.00000  Uiso   1.00
Cl30   Cl    0.19179   0.25469   0.03749   0.00000  Uiso   1.00
H31    H     0.31910   0.13945   0.29036   0.00000  Uiso   1.00
H32    H     0.20674   0.00363   0.21116   0.00000  Uiso   1.00
H33    H     0.12517   0.33143   0.28954   0.00000  Uiso   1.00
H34    H     0.15731   0.18835   0.07702   0.00000  Uiso   1.00
H35    H     0.13802   0.28079   0.49316   0.00000  Uiso   1.00
H36    H     0.01564   0.19430   0.21001   0.00000  Uiso   1.00
H37    H     0.18768   0.04397   0.40278   0.00000  Uiso   1.00
H38    H     0.08142   0.24302   0.40419   0.00000  Uiso   1.00
H39    H     0.13352   0.07211   0.38463   0.00000  Uiso   1.00
O40    O     0.16667   0.16667   0.25000   0.00000  Uiso   1.00
O41    O     0.15451   0.12637   0.15458   0.00000  Uiso   1.00
O42    O     0.12940   0.20391   0.34968   0.00000  Uiso   1.00
O43    O     0.20824   0.17759   0.14606   0.00000  Uiso   1.00
O44    O     0.17451   0.15880   0.34968   0.00000  Uiso   1.00
O45    O     0.16580   0.02774   0.46565   0.00000  Uiso   1.00
O46    O     0.10680   0.29588   0.43054   0.00000  Uiso   1.00
O47    O     0.09033   0.11141   0.40839   0.00000  Uiso   1.00
O48    O     0.17930   0.08019   0.28213   0.00000  Uiso   1.00
O49    O     0.14632   0.26085   0.27013   0.00000  Uiso   1.00
O50    O     0.07412   0.13291   0.23413   0.00000  Uiso   1.00
O51    O     0.26693   0.19272   0.21360   0.00000  Uiso   1.00
O52    O     0.07071   0.18878   0.28213   0.00000  Uiso   1.00
O53    O     0.25491   0.15226   0.27013   0.00000  Uiso   1.00
O54    O     0.13760   0.06944   0.23413   0.00000  Uiso   1.00
O55    O     0.20345   0.25620   0.21360   0.00000  Uiso   1.00
Zn56   Zn    0.19338   0.13994   0.28734   0.00000  Uiso   1.00
Zn57   Zn    0.13379   0.12458   0.21875   0.00000  Uiso   1.00
Zn58   Zn    0.21056   0.19775   0.20657   0.00000  Uiso   1.00
Zn59   Zn    0.12893   0.20439   0.28733   0.00000  Uiso   1.00
C60    C     0.38604   0.15966   0.26005   0.00000  Uiso   1.00
C61    C     0.50911   0.16429   0.05777   0.00000  Uiso   1.00
C62    C     0.54883   0.10706   0.05764   0.00000  Uiso   1.00
C63    C     0.61412   0.17381   0.24002   0.00000  Uiso   1.00
C64    C     0.47383   0.19320   0.42103   0.00000  Uiso   1.00
C65    C     0.65996   0.17654   0.23597   0.00000  Uiso   1.00
C66    C     0.34077   0.15723   0.26404   0.00000  Uiso   1.00
C67    C     0.51373   0.32247   0.23651   0.00000  Uiso   1.00
C68    C     0.48517   0.01179   0.26404   0.00000  Uiso   1.00
C69    C     0.48942   0.05587   0.26027   0.00000  Uiso   1.00
C70    C     0.50990   0.27793   0.24019   0.00000  Uiso   1.00
C71    C     0.47572   0.24900   0.47982   0.00000  Uiso   1.00
C72    C     0.51864   0.14808   0.12928   0.00000  Uiso   1.00
C73    C     0.48106   0.18424   0.37138   0.00000  Uiso   1.00
C74    C     0.54922   0.09585   0.01227   0.00000  Uiso   1.00
C75    C     0.52631   0.13983   0.08075   0.00000  Uiso   1.00
C76    C     0.46242   0.23275   0.44135   0.00000  Uiso   1.00
C77    C     0.51119   0.05398   0.43829   0.00000  Uiso   1.00
C78    C     0.43723   0.25801   0.42319   0.00000  Uiso   1.00
C79    C     0.45823   0.09983   0.40622   0.00000  Uiso   1.00
C80    C     0.49657   0.22573   0.00036   0.00000  Uiso   1.00
C81    C     0.49813   0.18249   0.48707   0.00000  Uiso   1.00
C82    C     0.48643   0.16591   0.44686   0.00000  Uiso   1.00
C83    C     0.51195   0.15552   0.01173   0.00000  Uiso   1.00
C84    C     0.52516   0.11675   0.49114   0.00000  Uiso   1.00
C85    C     0.51033   0.09900   0.45304   0.00000  Uiso   1.00
C86    C     0.48708   0.12242   0.43398   0.00000  Uiso   1.00
Cl87   Cl    0.57506   0.07922   0.08603   0.00000  Uiso   1.00
Cl88   Cl    0.58399   0.05952   0.48187   0.00000  Uiso   1.00
Cl89   Cl    0.52512   0.25469   0.03749   0.00000  Uiso   1.00
H90    H     0.65243   0.13945   0.29036   0.00000  Uiso   1.00
H91    H     0.54007   0.00363   0.21116   0.00000  Uiso   1.00
H92    H     0.45850   0.33143   0.28954   0.00000  Uiso   1.00
H93    H     0.49065   0.18835   0.07702   0.00000  Uiso   1.00
H94    H     0.47136   0.28079   0.49316   0.00000  Uiso   1.00
H95    H     0.34897   0.19430   0.21001   0.00000  Uiso   1.00
H96    H     0.52102   0.04397   0.40278   0.00000  Uiso   1.00
H97    H     0.41476   0.24302   0.40419   0.00000  Uiso   1.00
H98    H     0.46685   0.07211   0.38463   0.00000  Uiso   1.00
O99    O     0.50000   0.16667   0.25000   0.00000  Uiso   1.00
O100   O     0.48784   0.12637   0.15458   0.00000  Uiso   1.00
O101   O     0.46274   0.20391   0.34968   0.00000  Uiso   1.00
O102   O     0.54157   0.17759   0.14606   0.00000  Uiso   1.00
O103   O     0.50785   0.15880   0.34968   0.00000  Uiso   1.00
O104   O     0.49914   0.02774   0.46565   0.00000  Uiso   1.00
O105   O     0.44014   0.29588   0.43054   0.00000  Uiso   1.00
O106   O     0.42366   0.11141   0.40839   0.00000  Uiso   1.00
O107   O     0.51264   0.08019   0.28213   0.00000  Uiso   1.00
O108   O     0.47965   0.26085   0.27013   0.00000  Uiso   1.00
O109   O     0.40745   0.13291   0.23413   0.00000  Uiso   1.00
O110   O     0.60026   0.19272   0.21360   0.00000  Uiso   1.00
O111   O     0.40405   0.18878   0.28213   0.00000  Uiso   1.00
O112   O     0.58824   0.15226   0.27013   0.00000  Uiso   1.00
O113   O     0.47093   0.06944   0.23413   0.00000  Uiso   1.00
O114   O     0.53678   0.25620   0.21360   0.00000  Uiso   1.00
Zn115  Zn    0.52672   0.13994   0.28734   0.00000  Uiso   1.00
Zn116  Zn    0.46713   0.12458   0.21875   0.00000  Uiso   1.00
Zn117  Zn    0.54389   0.19775   0.20657   0.00000  Uiso   1.00
Zn118  Zn    0.46226   0.20439   0.28733   0.00000  Uiso   1.00
C119   C     0.71938   0.15966   0.26005   0.00000  Uiso   1.00
C120   C     0.84244   0.16429   0.05777   0.00000  Uiso   1.00
C121   C     0.88216   0.10706   0.05764   0.00000  Uiso   1.00
C122   C     0.94746   0.17381   0.24002   0.00000  Uiso   1.00
C123   C     0.80716   0.19320   0.42103   0.00000  Uiso   1.00
C124   C     0.99329   0.17654   0.23597   0.00000  Uiso   1.00
C125   C     0.67411   0.15723   0.26404   0.00000  Uiso   1.00
C126   C     0.84707   0.32247   0.23651   0.00000  Uiso   1.00
C127   C     0.81850   0.01179   0.26404   0.00000  Uiso   1.00
C128   C     0.82276   0.05587   0.26027   0.00000  Uiso   1.00
C129   C     0.84323   0.27793   0.24019   0.00000  Uiso   1.00
C130   C     0.80905   0.24900   0.47982   0.00000  Uiso   1.00
C131   C     0.85197   0.14808   0.12928   0.00000  Uiso   1.00
C132   C     0.81439   0.18424   0.37138   0.00000  Uiso   1.00
C133   C     0.88255   0.09585   0.01227   0.00000  Uiso   1.00
C134   C     0.85965   0.13983   0.08075   0.00000  Uiso   1.00
C135   C     0.79576   0.23275   0.44135   0.00000  Uiso   1.00
C136   C     0.84452   0.05398   0.43829   0.00000  Uiso   1.00
C137   C     0.77056   0.25801   0.42319   0.00000  Uiso   1.00
C138   C     0.79156   0.09983   0.40622   0.00000  Uiso   1.00
C139   C     0.82990   0.22573   0.00036   0.00000  Uiso   1.00
C140   C     0.83146   0.18249   0.48707   0.00000  Uiso   1.00
C141   C     0.81976   0.16591   0.44686   0.00000  Uiso   1.00
C142   C     0.84528   0.15552   0.01173   0.00000  Uiso   1.00
C143   C     0.85849   0.11675   0.49114   0.00000  Uiso   1.00
C144   C     0.84367   0.09900   0.45304   0.00000  Uiso   1.00
C145   C     0.82041   0.12242   0.43398   0.00000  Uiso   1.00
Cl146  Cl    0.90839   0.07922   0.08603   0.00000  Uiso   1.00
Cl147  Cl    0.91732   0.05952   0.48187   0.00000  Uiso   1.00
Cl148  Cl    0.85845   0.25469   0.03749   0.00000  Uiso   1.00
H149   H     0.98576   0.13945   0.29036   0.00000  Uiso   1.00
H150   H     0.87340   0.00363   0.21116   0.00000  Uiso   1.00
H151   H     0.79184   0.33143   0.28954   0.00000  Uiso   1.00
H152   H     0.82398   0.18835   0.07702   0.00000  Uiso   1.00
H153   H     0.80469   0.28079   0.49316   0.00000  Uiso   1.00
H154   H     0.68231   0.19430   0.21001   0.00000  Uiso   1.00
H155   H     0.85435   0.04397   0.40278   0.00000  Uiso   1.00
H156   H     0.74809   0.24302   0.40419   0.00000  Uiso   1.00
H157   H     0.80019   0.07211   0.38463   0.00000  Uiso   1.00
O158   O     0.83333   0.16667   0.25000   0.00000  Uiso   1.00
O159   O     0.82118   0.12637   0.15458   0.00000  Uiso   1.00
O160   O     0.79607   0.20391   0.34968   0.00000  Uiso   1.00
O161   O     0.87491   0.17759   0.14606   0.00000  Uiso   1.00
O162   O     0.84118   0.15880   0.34968   0.00000  Uiso   1.00
O163   O     0.83247   0.02774   0.46565   0.00000  Uiso   1.00
O164   O     0.77347   0.29588   0.43054   0.00000  Uiso   1.00
O165   O     0.75699   0.11141   0.40839   0.00000  Uiso   1.00
O166   O     0.84597   0.08019   0.28213   0.00000  Uiso   1.00
O167   O     0.81298   0.26085   0.27013   0.00000  Uiso   1.00
O168   O     0.74078   0.13291   0.23413   0.00000  Uiso   1.00
O169   O     0.93360   0.19272   0.21360   0.00000  Uiso   1.00
O170   O     0.73738   0.18878   0.28213   0.00000  Uiso   1.00
O171   O     0.92158   0.15226   0.27013   0.00000  Uiso   1.00
O172   O     0.80426   0.06944   0.23413   0.00000  Uiso   1.00
O173   O     0.87012   0.25620   0.21360   0.00000  Uiso   1.00
Zn174  Zn    0.86005   0.13994   0.28734   0.00000  Uiso   1.00
Zn175  Zn    0.80046   0.12458   0.21875   0.00000  Uiso   1.00
Zn176  Zn    0.87723   0.19775   0.20657   0.00000  Uiso   1.00
Zn177  Zn    0.79560   0.20439   0.28733   0.00000  Uiso   1.00
C178   C     0.05271   0.49299   0.26005   0.00000  Uiso   1.00
C179   C     0.17578   0.49763   0.05777   0.00000  Uiso   1.00
C180   C     0.21550   0.44040   0.05764   0.00000  Uiso   1.00
C181   C     0.28079   0.50715   0.24002   0.00000  Uiso   1.00
C182   C     0.14050   0.52653   0.42103   0.00000  Uiso   1.00
C183   C     0.32663   0.50987   0.23597   0.00000  Uiso   1.00
C184   C     0.00744   0.49057   0.26404   0.00000  Uiso   1.00
C185   C     0.18040   0.65581   0.23651   0.00000  Uiso   1.00
C186   C     0.15184   0.34512   0.26404   0.00000  Uiso   1.00
C187   C     0.15609   0.38920   0.26027   0.00000  Uiso   1.00
C188   C     0.17657   0.61126   0.24019   0.00000  Uiso   1.00
C189   C     0.14238   0.58233   0.47982   0.00000  Uiso   1.00
C190   C     0.18531   0.48141   0.12928   0.00000  Uiso   1.00
C191   C     0.14772   0.51757   0.37138   0.00000  Uiso   1.00
C192   C     0.21589   0.42919   0.01227   0.00000  Uiso   1.00
C193   C     0.19298   0.47316   0.08075   0.00000  Uiso   1.00
C194   C     0.12909   0.56609   0.44135   0.00000  Uiso   1.00
C195   C     0.17786   0.38732   0.43829   0.00000  Uiso   1.00
C196   C     0.10389   0.59134   0.42319   0.00000  Uiso   1.00
C197   C     0.12490   0.43316   0.40622   0.00000  Uiso   1.00
C198   C     0.16323   0.55906   0.00036   0.00000  Uiso   1.00
C199   C     0.16480   0.51582   0.48707   0.00000  Uiso   1.00
C200   C     0.15309   0.49924   0.44686   0.00000  Uiso   1.00
C201   C     0.17862   0.48886   0.01173   0.00000  Uiso   1.00
C202   C     0.19183   0.45008   0.49114   0.00000  Uiso   1.00
C203   C     0.17700   0.43234   0.45304   0.00000  Uiso   1.00
C204   C     0.15374   0.45575   0.43398   0.00000  Uiso   1.00
Cl205  Cl    0.24172   0.41255   0.08603   0.00000  Uiso   1.00
Cl206  Cl    0.25065   0.39286   0.48187   0.00000  Uiso   1.00
Cl207  Cl    0.19179   0.58803   0.03749   0.00000  Uiso   1.00
H208   H     0.31910   0.47278   0.29036   0.00000  Uiso   1.00
H209   H     0.20674   0.33696   0.21116   0.00000  Uiso   1.00
H210   H     0.12517   0.66476   0.28954   0.00000  Uiso   1.00
H211   H     0.15731   0.52168   0.07702   0.00000  Uiso   1.00
H212   H     0.13802   0.61412   0.49316   0.00000  Uiso   1.00
H213   H     0.01564   0.52764   0.21001   0.00000  Uiso   1.00
H214   H     0.18768   0.37731   0.40278   0.00000  Uiso   1.00
H215   H     0.08142   0.57635   0.40419   0.00000  Uiso   1.00
H216   H     0.13352   0.40544   0.38463   0.00000  Uiso   1.00
O217   O     0.16667   0.50000   0.25000   0.00000  Uiso   1.00
O218   O     0.15451   0.45970   0.15458   0.00000  Uiso   1.00
O219   O     0.12940   0.53724   0.34968   0.00000  Uiso   1.00
O220   O     0.20824   0.51092   0.14606   0.00000  Uiso   1.00
O221   O     0.17451   0.49213   0.34968   0.00000  Uiso   1.00
O222   O     0.16580   0.36108   0.46565   0.00000  Uiso   1.00
O223   O     0.10680   0.62921   0.43054   0.00000  Uiso   1.00
O224   O     0.09033   0.44475   0.40839   0.00000  Uiso   1.00
O225   O     0.17930   0.41352   0.28213   0.00000  Uiso   1.00
O226   O     0.14632   0.59418   0.27013   0.00000  Uiso   1.00
O227   O     0.07412   0.46625   0.23413   0.00000  Uiso   1.00
O228   O     0.26693   0.52605   0.21360   0.00000  Uiso   1.00
O229   O     0.07071   0.52211   0.28213   0.00000  Uiso   1.00
O230   O     0.25491   0.48559   0.27013   0.00000  Uiso   1.00
O231   O     0.13760   0.40277   0.23413   0.00000  Uiso   1.00
O232   O     0.20345   0.58953   0.21360   0.00000  Uiso   1.00
Zn233  Zn    0.19338   0.47327   0.28734   0.00000  Uiso   1.00
Zn234  Zn    0.13379   0.45791   0.21875   0.00000  Uiso   1.00
Zn235  Zn    0.21056   0.53109   0.20657   0.00000  Uiso   1.00
Zn236  Zn    0.12893   0.53773   0.28733   0.00000  Uiso   1.00
C237   C     0.38604   0.49299   0.26005   0.00000  Uiso   1.00
C238   C     0.50911   0.49763   0.05777   0.00000  Uiso   1.00
C239   C     0.54883   0.44040   0.05764   0.00000  Uiso   1.00
C240   C     0.61412   0.50715   0.24002   0.00000  Uiso   1.00
C241   C     0.47383   0.52653   0.42103   0.00000  Uiso   1.00
C242   C     0.65996   0.50987   0.23597   0.00000  Uiso   1.00
C243   C     0.34077   0.49057   0.26404   0.00000  Uiso   1.00
C244   C     0.51373   0.65581   0.23651   0.00000  Uiso   1.00
C245   C     0.48517   0.34512   0.26404   0.00000  Uiso   1.00
C246   C     0.48942   0.38920   0.26027   0.00000  Uiso   1.00
C247   C     0.50990   0.61126   0.24019   0.00000  Uiso   1.00
C248   C     0.47572   0.58233   0.47982   0.00000  Uiso   1.00
C249   C     0.51864   0.48141   0.12928   0.00000  Uiso   1.00
C250   C     0.48106   0.51757   0.37138   0.00000  Uiso   1.00
C251   C     0.54922   0.42919   0.01227   0.00000  Uiso   1.00
C252   C     0.52631   0.47316   0.08075   0.00000  Uiso   1.00
C253   C     0.46242   0.56609   0.44135   0.00000  Uiso   1.00
C254   C     0.51119   0.38732   0.43829   0.00000  Uiso   1.00
C255   C     0.43723   0.59134   0.42319   0.00000  Uiso   1.00
C256   C     0.45823   0.43316   0.40622   0.00000  Uiso   1.00
C257   C     0.49657   0.55906   0.00036   0.00000  Uiso   1.00
C258   C     0.49813   0.51582   0.48707   0.00000  Uiso   1.00
C259   C     0.48643   0.49924   0.44686   0.00000  Uiso   1.00
C260   C     0.51195   0.48886   0.01173   0.00000  Uiso   1.00
C261   C     0.52516   0.45008   0.49114   0.00000  Uiso   1.00
C262   C     0.51033   0.43234   0.45304   0.00000  Uiso   1.00
C263   C     0.48708   0.45575   0.43398   0.00000  Uiso   1.00
Cl264  Cl    0.57506   0.41255   0.08603   0.00000  Uiso   1.00
Cl265  Cl    0.58399   0.39286   0.48187   0.00000  Uiso   1.00
Cl266  Cl    0.52512   0.58803   0.03749   0.00000  Uiso   1.00
H267   H     0.65243   0.47278   0.29036   0.00000  Uiso   1.00
H268   H     0.54007   0.33696   0.21116   0.00000  Uiso   1.00
H269   H     0.45850   0.66476   0.28954   0.00000  Uiso   1.00
H270   H     0.49065   0.52168   0.07702   0.00000  Uiso   1.00
H271   H     0.47136   0.61412   0.49316   0.00000  Uiso   1.00
H272   H     0.34897   0.52764   0.21001   0.00000  Uiso   1.00
H273   H     0.52102   0.37731   0.40278   0.00000  Uiso   1.00
H274   H     0.41476   0.57635   0.40419   0.00000  Uiso   1.00
H275   H     0.46685   0.40544   0.38463   0.00000  Uiso   1.00
O276   O     0.50000   0.50000   0.25000   0.00000  Uiso   1.00
O277   O     0.48784   0.45970   0.15458   0.00000  Uiso   1.00
O278   O     0.46274   0.53724   0.34968   0.00000  Uiso   1.00
O279   O     0.54157   0.51092   0.14606   0.00000  Uiso   1.00
O280   O     0.50785   0.49213   0.34968   0.00000  Uiso   1.00
O281   O     0.49914   0.36108   0.46565   0.00000  Uiso   1.00
O282   O     0.44014   0.62921   0.43054   0.00000  Uiso   1.00
O283   O     0.42366   0.44475   0.40839   0.00000  Uiso   1.00
O284   O     0.51264   0.41352   0.28213   0.00000  Uiso   1.00
O285   O     0.47965   0.59418   0.27013   0.00000  Uiso   1.00
O286   O     0.40745   0.46625   0.23413   0.00000  Uiso   1.00
O287   O     0.60026   0.52605   0.21360   0.00000  Uiso   1.00
O288   O     0.40405   0.52211   0.28213   0.00000  Uiso   1.00
O289   O     0.58824   0.48559   0.27013   0.00000  Uiso   1.00
O290   O     0.47093   0.40277   0.23413   0.00000  Uiso   1.00
O291   O     0.53678   0.58953   0.21360   0.00000  Uiso   1.00
Zn292  Zn    0.52672   0.47327   0.28734   0.00000  Uiso   1.00
Zn293  Zn    0.46713   0.45791   0.21875   0.00000  Uiso   1.00
Zn294  Zn    0.54389   0.53109   0.20657   0.00000  Uiso   1.00
Zn295  Zn    0.46226   0.53773   0.28733   0.00000  Uiso   1.00
C296   C     0.71938   0.49299   0.26005   0.00000  Uiso   1.00
C297   C     0.84244   0.49763   0.05777   0.00000  Uiso   1.00
C298   C     0.88216   0.44040   0.05764   0.00000  Uiso   1.00
C299   C     0.94746   0.50715   0.24002   0.00000  Uiso   1.00
C300   C     0.80716   0.52653   0.42103   0.00000  Uiso   1.00
C301   C     0.99329   0.50987   0.23597   0.00000  Uiso   1.00
C302   C     0.67411   0.49057   0.26404   0.00000  Uiso   1.00
C303   C     0.84707   0.65581   0.23651   0.00000  Uiso   1.00
C304   C     0.81850   0.34512   0.26404   0.00000  Uiso   1.00
C305   C     0.82276   0.38920   0.26027   0.00000  Uiso   1.00
C306   C     0.84323   0.61126   0.24019   0.00000  Uiso   1.00
C307   C     0.80905   0.58233   0.47982   0.00000  Uiso   1.00
C308   C     0.85197   0.48141   0.12928   0.00000  Uiso   1.00
C309   C     0.81439   0.51757   0.37138   0.00000  Uiso   1.00
C310   C     0.88255   0.42919   0.01227   0.00000  Uiso   1.00
C311   C     0.85965   0.47316   0.08075   0.00000  Uiso   1.00
C312   C     0.79576   0.56609   0.44135   0.00000  Uiso   1.00
C313   C     0.84452   0.38732   0.43829   0.00000  Uiso   1.00
C314   C     0.77056   0.59134   0.42319   0.00000  Uiso   1.00
C315   C     0.79156   0.43316   0.40622   0.00000  Uiso   1.00
C316   C     0.82990   0.55906   0.00036   0.00000  Uiso   1.00
C317   C     0.83146   0.51582   0.48707   0.00000  Uiso   1.00
C318   C     0.81976   0.49924   0.44686   0.00000  Uiso   1.00
C319   C     0.84528   0.48886   0.01173   0.00000  Uiso   1.00
C320   C     0.85849   0.45008   0.49114   0.00000  Uiso   1.00
C321   C     0.84367   0.43234   0.45304   0.00000  Uiso   1.00
C322   C     0.82041   0.45575   0.43398   0.00000  Uiso   1.00
Cl323  Cl    0.90839   0.41255   0.08603   0.00000  Uiso   1.00
Cl324  Cl    0.91732   0.39286   0.48187   0.00000  Uiso   1.00
Cl325  Cl    0.85845   0.58803   0.03749   0.00000  Uiso   1.00
H326   H     0.98576   0.47278   0.29036   0.00000  Uiso   1.00
H327   H     0.87340   0.33696   0.21116   0.00000  Uiso   1.00
H328   H     0.79184   0.66476   0.28954   0.00000  Uiso   1.00
H329   H     0.82398   0.52168   0.07702   0.00000  Uiso   1.00
H330   H     0.80469   0.61412   0.49316   0.00000  Uiso   1.00
H331   H     0.68231   0.52764   0.21001   0.00000  Uiso   1.00
H332   H     0.85435   0.37731   0.40278   0.00000  Uiso   1.00
H333   H     0.74809   0.57635   0.40419   0.00000  Uiso   1.00
H334   H     0.80019   0.40544   0.38463   0.00000  Uiso   1.00
O335   O     0.83333   0.50000   0.25000   0.00000  Uiso   1.00
O336   O     0.82118   0.45970   0.15458   0.00000  Uiso   1.00
O337   O     0.79607   0.53724   0.34968   0.00000  Uiso   1.00
O338   O     0.87491   0.51092   0.14606   0.00000  Uiso   1.00
O339   O     0.84118   0.49213   0.34968   0.00000  Uiso   1.00
O340   O     0.83247   0.36108   0.46565   0.00000  Uiso   1.00
O341   O     0.77347   0.62921   0.43054   0.00000  Uiso   1.00
O342   O     0.75699   0.44475   0.40839   0.00000  Uiso   1.00
O343   O     0.84597   0.41352   0.28213   0.00000  Uiso   1.00
O344   O     0.81298   0.59418   0.27013   0.00000  Uiso   1.00
O345   O     0.74078   0.46625   0.23413   0.00000  Uiso   1.00
O346   O     0.93360   0.52605   0.21360   0.00000  Uiso   1.00
O347   O     0.73738   0.52211   0.28213   0.00000  Uiso   1.00
O348   O     0.92158   0.48559   0.27013   0.00000  Uiso   1.00
O349   O     0.80426   0.40277   0.23413   0.00000  Uiso   1.00
O350   O     0.87012   0.58953   0.21360   0.00000  Uiso   1.00
Zn351  Zn    0.86005   0.47327   0.28734   0.00000  Uiso   1.00
Zn352  Zn    0.80046   0.45791   0.21875   0.00000  Uiso   1.00
Zn353  Zn    0.87723   0.53109   0.20657   0.00000  Uiso   1.00
Zn354  Zn    0.79560   0.53773   0.28733   0.00000  Uiso   1.00
C355   C     0.05271   0.82632   0.26005   0.00000  Uiso   1.00
C356   C     0.17578   0.83096   0.05777   0.00000  Uiso   1.00
C357   C     0.21550   0.77373   0.05764   0.00000  Uiso   1.00
C358   C     0.28079   0.84048   0.24002   0.00000  Uiso   1.00
C359   C     0.14050   0.85987   0.42103   0.00000  Uiso   1.00
C360   C     0.32663   0.84321   0.23597   0.00000  Uiso   1.00
C361   C     0.00744   0.82390   0.26404   0.00000  Uiso   1.00
C362   C     0.18040   0.98914   0.23651   0.00000  Uiso   1.00
C363   C     0.15184   0.67845   0.26404   0.00000  Uiso   1.00
C364   C     0.15609   0.72253   0.26027   0.00000  Uiso   1.00
C365   C     0.17657   0.94460   0.24019   0.00000  Uiso   1.00
C366   C     0.14238   0.91566   0.47982   0.00000  Uiso   1.00
C367   C     0.18531   0.81475   0.12928   0.00000  Uiso   1.00
C368   C     0.14772   0.85090   0.37138   0.00000  Uiso   1.00
C369   C     0.21589   0.76252   0.01227   0.00000  Uiso   1.00
C370   C     0.19298   0.80650   0.08075   0.00000  Uiso   1.00
C371   C     0.12909   0.89942   0.44135   0.00000  Uiso   1.00
C372   C     0.17786   0.72065   0.43829   0.00000  Uiso   1.00
C373   C     0.10389   0.92467   0.42319   0.00000  Uiso   1.00
C374   C     0.12490   0.76649   0.40622   0.00000  Uiso   1.00
C375   C     0.16323   0.89239   0.00036   0.00000  Uiso   1.00
C376   C     0.16480   0.84916   0.48707   0.00000  Uiso   1.00
C377   C     0.15309   0.83257   0.44686   0.00000  Uiso   1.00
C378   C     0.17862   0.82219   0.01173   0.00000  Uiso   1.00
C379   C     0.19183   0.78342   0.49114   0.00000  Uiso   1.00
C380   C     0.17700   0.76567   0.45304   0.00000  Uiso   1.00
C381   C     0.15374   0.78908   0.43398   0.00000  Uiso   1.00
Cl382  Cl    0.24172   0.74589   0.08603   0.00000  Uiso   1.00
Cl383  Cl    0.25065   0.72619   0.48187   0.00000  Uiso   1.00
Cl384  Cl    0.19179   0.92136   0.03749   0.00000  Uiso   1.00
H385   H     0.31910   0.80612   0.29036   0.00000  Uiso   1.00
H386   H     0.20674   0.67030   0.21116   0.00000  Uiso   1.00
H387   H     0.12517   0.99810   0.28954   0.00000  Uiso   1.00
H388   H     0.15731   0.85501   0.07702   0.00000  Uiso   1.00
H389   H     0.13802   0.94745   0.49316   0.00000  Uiso   1.00
H390   H     0.01564   0.86097   0.21001   0.00000  Uiso   1.00
H391   H     0.18768   0.71064   0.40278   0.00000  Uiso   1.00
H392   H     0.08142   0.90969   0.40419   0.00000  Uiso   1.00
H393   H     0.13352   0.73877   0.38463   0.00000  Uiso   1.00
O394   O     0.16667   0.83333   0.25000   0.00000  Uiso   1.00
O395   O     0.15451   0.79304   0.15458   0.00000  Uiso   1.00
O396   O     0.12940   0.87058   0.34968   0.00000  Uiso   1.00
O397   O     0.20824   0.84425   0.14606   0.00000  Uiso   1.00
O398   O     0.17451   0.82546   0.34968   0.00000  Uiso   1.00
O399   O     0.16580   0.69441   0.46565   0.00000  Uiso   1.00
O400   O     0.10680   0.96255   0.43054   0.00000  Uiso   1.00
O401   O     0.09033   0.77808   0.40839   0.00000  Uiso   1.00
O402   O     0.17930   0.74686   0.28213   0.00000  Uiso   1.00
O403   O     0.14632   0.92751   0.27013   0.00000  Uiso   1.00
O404   O     0.07412   0.79958   0.23413   0.00000  Uiso   1.00
O405   O     0.26693   0.85939   0.21360   0.00000  Uiso   1.00
O406   O     0.07071   0.85544   0.28213   0.00000  Uiso   1.00
O407   O     0.25491   0.81892   0.27013   0.00000  Uiso   1.00
O408   O     0.13760   0.73610   0.23413   0.00000  Uiso   1.00
O409   O     0.20345   0.92286   0.21360   0.00000  Uiso   1.00
Zn410  Zn    0.19338   0.80661   0.28734   0.00000  Uiso   1.00
Zn411  Zn    0.13379   0.79124   0.21875   0.00000  Uiso   1.00
Zn412  Zn    0.21056   0.86442   0.20657   0.00000  Uiso   1.00
Zn413  Zn    0.12893   0.87106   0.28733   0.00000  Uiso   1.00
C414   C     0.38604   0.82632   0.26005   0.00000  Uiso   1.00
C415   C     0.50911   0.83096   0.05777   0.00000  Uiso   1.00
C416   C     0.54883   0.77373   0.05764   0.00000  Uiso   1.00
C417   C     0.61412   0.84048   0.24002   0.00000  Uiso   1.00
C418   C     0.47383   0.85987   0.42103   0.00000  Uiso   1.00
C419   C     0.65996   0.84321   0.23597   0.00000  Uiso   1.00
C420   C     0.34077   0.82390   0.26404   0.00000  Uiso   1.00
C421   C     0.51373   0.98914   0.23651   0.00000  Uiso   1.00
C422   C     0.48517   0.67845   0.26404   0.00000  Uiso   1.00
C423   C     0.48942   0.72253   0.26027   0.00000  Uiso   1.00
C424   C     0.50990   0.94460   0.24019   0.00000  Uiso   1.00
C425   C     0.47572   0.91566   0.47982   0.00000  Uiso   1.00
C426   C     0.51864   0.81475   0.12928   0.00000  Uiso   1.00
C427   C     0.48106   0.85090   0.37138   0.00000  Uiso   1.00
C428   C     0.54922   0.76252   0.01227   0.00000  Uiso   1.00
C429   C     0.52631   0.80650   0.08075   0.00000  Uiso   1.00
C430   C     0.46242   0.89942   0.44135   0.00000  Uiso   1.00
C431   C     0.51119   0.72065   0.43829   0.00000  Uiso   1.00
C432   C     0.43723   0.92467   0.42319   0.00000  Uiso   1.00
C433   C     0.45823   0.76649   0.40622   0.00000  Uiso   1.00
C434   C     0.49657   0.89239   0.00036   0.00000  Uiso   1.00
C435   C     0.49813   0.84916   0.48707   0.00000  Uiso   1.00
C436   C     0.48643   0.83257   0.44686   0.00000  Uiso   1.00
C437   C     0.51195   0.82219   0.01173   0.00000  Uiso   1.00
C438   C     0.52516   0.78342   0.49114   0.00000  Uiso   1.00
C439   C     0.51033   0.76567   0.45304   0.00000  Uiso   1.00
C440   C     0.48708   0.78908   0.43398   0.00000  Uiso   1.00
Cl441  Cl    0.57506   0.74589   0.08603   0.00000  Uiso   1.00
Cl442  Cl    0.58399   0.72619   0.48187   0.00000  Uiso   1.00
Cl443  Cl    0.52512   0.92136   0.03749   0.00000  Uiso   1.00
H444   H     0.65243   0.80612   0.29036   0.00000  Uiso   1.00
H445   H     0.54007   0.67030   0.21116   0.00000  Uiso   1.00
H446   H     0.45850   0.99810   0.28954   0.00000  Uiso   1.00
H447   H     0.49065   0.85501   0.07702   0.00000  Uiso   1.00
H448   H     0.47136   0.94745   0.49316   0.00000  Uiso   1.00
H449   H     0.34897   0.86097   0.21001   0.00000  Uiso   1.00
H450   H     0.52102   0.71064   0.40278   0.00000  Uiso   1.00
H451   H     0.41476   0.90969   0.40419   0.00000  Uiso   1.00
H452   H     0.46685   0.73877   0.38463   0.00000  Uiso   1.00
O453   O     0.50000   0.83333   0.25000   0.00000  Uiso   1.00
O454   O     0.48784   0.79304   0.15458   0.00000  Uiso   1.00
O455   O     0.46274   0.87058   0.34968   0.00000  Uiso   1.00
O456   O     0.54157   0.84425   0.14606   0.00000  Uiso   1.00
O457   O     0.50785   0.82546   0.34968   0.00000  Uiso   1.00
O458   O     0.49914   0.69441   0.46565   0.00000  Uiso   1.00
O459   O     0.44014   0.96255   0.43054   0.00000  Uiso   1.00
O460   O     0.42366   0.77808   0.40839   0.00000  Uiso   1.00
O461   O     0.51264   0.74686   0.28213   0.00000  Uiso   1.00
O462   O     0.47965   0.92751   0.27013   0.00000  Uiso   1.00
O463   O     0.40745   0.79958   0.23413   0.00000  Uiso   1.00
O464   O     0.60026   0.85939   0.21360   0.00000  Uiso   1.00
O465   O     0.40405   0.85544   0.28213   0.00000  Uiso   1.00
O466   O     0.58824   0.81892   0.27013   0.00000  Uiso   1.00
O467   O     0.47093   0.73610   0.23413   0.00000  Uiso   1.00
O468   O     0.53678   0.92286   0.21360   0.00000  Uiso   1.00
Zn469  Zn    0.52672   0.80661   0.28734   0.00000  Uiso   1.00
Zn470  Zn    0.46713   0.79124   0.21875   0.00000  Uiso   1.00
Zn471  Zn    0.54389   0.86442   0.20657   0.00000  Uiso   1.00
Zn472  Zn    0.46226   0.87106   0.28733   0.00000  Uiso   1.00
C473   C     0.71938   0.82632   0.26005   0.00000  Uiso   1.00
C474   C     0.84244   0.83096   0.05777   0.00000  Uiso   1.00
C475   C     0.88216   0.77373   0.05764   0.00000  Uiso   1.00
C476   C     0.94746   0.84048   0.24002   0.00000  Uiso   1.00
C477   C     0.80716   0.85987   0.42103   0.00000  Uiso   1.00
C478   C     0.99329   0.84321   0.23597   0.00000  Uiso   1.00
C479   C     0.67411   0.82390   0.26404   0.00000  Uiso   1.00
C480   C     0.84707   0.98914   0.23651   0.00000  Uiso   1.00
C481   C     0.81850   0.67845   0.26404   0.00000  Uiso   1.00
C482   C     0.82276   0.72253   0.26027   0.00000  Uiso   1.00
C483   C     0.84323   0.94460   0.24019   0.00000  Uiso   1.00
C484   C     0.80905   0.91566   0.47982   0.00000  Uiso   1.00
C485   C     0.85197   0.81475   0.12928   0.00000  Uiso   1.00
C486   C     0.81439   0.85090   0.37138   0.00000  Uiso   1.00
C487   C     0.88255   0.76252   0.01227   0.00000  Uiso   1.00
C488   C     0.85965   0.80650   0.08075   0.00000  Uiso   1.00
C489   C     0.79576   0.89942   0.44135   0.00000  Uiso   1.00
C490   C     0.84452   0.72065   0.43829   0.00000  Uiso   1.00
C491   C     0.77056   0.92467   0.42319   0.00000  Uiso   1.00
C492   C     0.79156   0.76649   0.40622   0.00000  Uiso   1.00
C493   C     0.82990   0.89239   0.00036   0.00000  Uiso   1.00
C494   C     0.83146   0.84916   0.48707   0.00000  Uiso   1.00
C495   C     0.81976   0.83257   0.44686   0.00000  Uiso   1.00
C496   C     0.84528   0.82219   0.01173   0.00000  Uiso   1.00
C497   C     0.85849   0.78342   0.49114   0.00000  Uiso   1.00
C498   C     0.84367   0.76567   0.45304   0.00000  Uiso   1.00
C499   C     0.82041   0.78908   0.43398   0.00000  Uiso   1.00
Cl500  Cl    0.90839   0.74589   0.08603   0.00000  Uiso   1.00
Cl501  Cl    0.91732   0.72619   0.48187   0.00000  Uiso   1.00
Cl502  Cl    0.85845   0.92136   0.03749   0.00000  Uiso   1.00
H503   H     0.98576   0.80612   0.29036   0.00000  Uiso   1.00
H504   H     0.87340   0.67030   0.21116   0.00000  Uiso   1.00
H505   H     0.79184   0.99810   0.28954   0.00000  Uiso   1.00
H506   H     0.82398   0.85501   0.07702   0.00000  Uiso   1.00
H507   H     0.80469   0.94745   0.49316   0.00000  Uiso   1.00
H508   H     0.68231   0.86097   0.21001   0.00000  Uiso   1.00
H509   H     0.85435   0.71064   0.40278   0.00000  Uiso   1.00
H510   H     0.74809   0.90969   0.40419   0.00000  Uiso   1.00
H511   H     0.80019   0.73877   0.38463   0.00000  Uiso   1.00
O512   O     0.83333   0.83333   0.25000   0.00000  Uiso   1.00
O513   O     0.82118   0.79304   0.15458   0.00000  Uiso   1.00
O514   O     0.79607   0.87058   0.34968   0.00000  Uiso   1.00
O515   O     0.87491   0.84425   0.14606   0.00000  Uiso   1.00
O516   O     0.84118   0.82546   0.34968   0.00000  Uiso   1.00
O517   O     0.83247   0.69441   0.46565   0.00000  Uiso   1.00
O518   O     0.77347   0.96255   0.43054   0.00000  Uiso   1.00
O519   O     0.75699   0.77808   0.40839   0.00000  Uiso   1.00
O520   O     0.84597   0.74686   0.28213   0.00000  Uiso   1.00
O521   O     0.81298   0.92751   0.27013   0.00000  Uiso   1.00
O522   O     0.74078   0.79958   0.23413   0.00000  Uiso   1.00
O523   O     0.93360   0.85939   0.21360   0.00000  Uiso   1.00
O524   O     0.73738   0.85544   0.28213   0.00000  Uiso   1.00
O525   O     0.92158   0.81892   0.27013   0.00000  Uiso   1.00
O526   O     0.80426   0.73610   0.23413   0.00000  Uiso   1.00
O527   O     0.87012   0.92286   0.21360   0.00000  Uiso   1.00
Zn528  Zn    0.86005   0.80661   0.28734   0.00000  Uiso   1.00
Zn529  Zn    0.80046   0.79124   0.21875   0.00000  Uiso   1.00
Zn530  Zn    0.87723   0.86442   0.20657   0.00000  Uiso   1.00
Zn531  Zn    0.79560   0.87106   0.28733   0.00000  Uiso   1.00
C532   C     0.05271   0.15966   0.76005   0.00000  Uiso   1.00
C533   C     0.17578   0.16429   0.55777   0.00000  Uiso   1.00
C534   C     0.21550   0.10706   0.55764   0.00000  Uiso   1.00
C535   C     0.28079   0.17381   0.74002   0.00000  Uiso   1.00
C536   C     0.14050   0.19320   0.92103   0.00000  Uiso   1.00
C537   C     0.32663   0.17654   0.73597   0.00000  Uiso   1.00
C538   C     0.00744   0.15723   0.76404   0.00000  Uiso   1.00
C539   C     0.18040   0.32247   0.73651   0.00000  Uiso   1.00
C540   C     0.15184   0.01179   0.76404   0.00000  Uiso   1.00
C541   C     0.15609   0.05587   0.76027   0.00000  Uiso   1.00
C542   C     0.17657   0.27793   0.74019   0.00000  Uiso   1.00
C543   C     0.14238   0.24900   0.97982   0.00000  Uiso   1.00
C544   C     0.18531   0.14808   0.62928   0.00000  Uiso   1.00
C545   C     0.14772   0.18424   0.87138   0.00000  Uiso   1.00
C546   C     0.21589   0.09585   0.51227   0.00000  Uiso   1.00
C547   C     0.19298   0.13983   0.58075   0.00000  Uiso   1.00
C548   C     0.12909   0.23275   0.94135   0.00000  Uiso   1.00
C549   C     0.17786   0.05398   0.93829   0.00000  Uiso   1.00
C550   C     0.10389   0.25801   0.92319   0.00000  Uiso   1.00
C551   C     0.12490   0.09983   0.90622   0.00000  Uiso   1.00
C552   C     0.16323   0.22573   0.50036   0.00000  Uiso   1.00
C553   C     0.16480   0.18249   0.98707   0.00000  Uiso   1.00
C554   C     0.15309   0.16591   0.94686   0.00000  Uiso   1.00
C555   C     0.17862   0.15552   0.51173   0.00000  Uiso   1.00
C556   C     0.19183   0.11675   0.99114   0.00000  Uiso   1.00
C557   C     0.17700   0.09900   0.95304   0.00000  Uiso   1.00
C558   C     0.15374   0.12242   0.93398   0.00000  Uiso   1.00
Cl559  Cl    0.24172   0.07922   0.58603   0.00000  Uiso   1.00
Cl560  Cl    0.25065   0.05952   0.98187   0.00000  Uiso   1.00
Cl561  Cl    0.19179   0.25469   0.53749   0.00000  Uiso   1.00
H562   H     0.31910   0.13945   0.79036   0.00000  Uiso   1.00
H563   H     0.20674   0.00363   0.71116   0.00000  Uiso   1.00
H564   H     0.12517   0.33143   0.78954   0.00000  Uiso   1.00
H565   H     0.15731   0.18835   0.57702   0.00000  Uiso   1.00
H566   H     0.13802   0.28079   0.99316   0.00000  Uiso   1.00
H567   H     0.01564   0.19430   0.71001   0.00000  Uiso   1.00
H568   H     0.18768   0.04397   0.90278   0.00000  Uiso   1.00
H569   H     0.08142   0.24302   0.90419   0.00000  Uiso   1.00
H570   H     0.13352   0.07211   0.88463   0.00000  Uiso   1.00
O571   O     0.16667   0.16667   0.75000   0.00000  Uiso   1.00
O572   O     0.15451   0.12637   0.65458   0.00000  Uiso   1.00
O573   O     0.12940   0.20391   0.84968   0.00000  Uiso   1.00
O574   O     0.20824   0.17759   0.64606   0.00000  Uiso   1.00
O575   O     0.17451   0.15880   0.84968   0.00000  Uiso   1.00
O576   O     0.16580   0.02774   0.96565   0.00000  Uiso   1.00
O577   O     0.10680   0.29588   0.93054   0.00000  Uiso   1.00
O578   O     0.09033   0.11141   0.90839   0.00000  Uiso   1.00
O579   O     0.17930   0.08019   0.78213   0.00000  Uiso   1.00
O580   O     0.14632   0.26085   0.77013   0.00000  Uiso   1.00
O581   O     0.07412   0.13291   0.73413   0.00000  Uiso   1.00
O582   O     0.26693   0.19272   0.71360   0.00000  Uiso   1.00
O583   O     0.07071   0.18878   0.78213   0.00000  Uiso   1.00
O584   O     0.25491   0.15226   0.77013   0.00000  Uiso   1.00
O585   O     0.13760   0.06944   0.73413   0.00000  Uiso   1.00
O586   O     0.20345   0.25620   0.71360   0.00000  Uiso   1.00
Zn587  Zn    0.19338   0.13994   0.78734   0.00000  Uiso   1.00
Zn588  Zn    0.13379   0.12458   0.71875   0.00000  Uiso   1.00
Zn589  Zn    0.21056   0.19775   0.70657   0.00000  Uiso   1.00
Zn590  Zn    0.12893   0.20439   0.78733   0.00000  Uiso   1.00
C591   C     0.38604   0.15966   0.76005   0.00000  Uiso   1.00
C592   C     0.50911   0.16429   0.55777   0.00000  Uiso   1.00
C593   C     0.54883   0.10706   0.55764   0.00000  Uiso   1.00
C594   C     0.61412   0.17381   0.74002   0.00000  Uiso   1.00
C595   C     0.47383   0.19320   0.92103   0.00000  Uiso   1.00
C596   C     0.65996   0.17654   0.73597   0.00000  Uiso   1.00
C597   C     0.34077   0.15723   0.76404   0.00000  Uiso   1.00
C598   C     0.51373   0.32247   0.73651   0.00000  Uiso   1.00
C599   C     0.48517   0.01179   0.76404   0.00000  Uiso   1.00
C600   C     0.48942   0.05587   0.76027   0.00000  Uiso   1.00
C601   C     0.50990   0.27793   0.74019   0.00000  Uiso   1.00
C602   C     0.47572   0.24900   0.97982   0.00000  Uiso   1.00
C603   C     0.51864   0.14808   0.62928   0.00000  Uiso   1.00
C604   C     0.48106   0.18424   0.87138   0.00000  Uiso   1.00
C605   C     0.54922   0.09585   0.51227   0.00000  Uiso   1.00
C606   C     0.52631   0.13983   0.58075   0.00000  Uiso   1.00
C607   C     0.46242   0.23275   0.94135   0.00000  Uiso   1.00
C608   C     0.51119   0.05398   0.93829   0.00000  Uiso   1.00
C609   C     0.43723   0.25801   0.92319   0.00000  Uiso   1.00
C610   C     0.45823   0.09983   0.90622   0.00000  Uiso   1.00
C611   C     0.49657   0.22573   0.50036   0.00000  Uiso   1.00
C612   C     0.49813   0.18249   0.98707   0.00000  Uiso   1.00
C613   C     0.48643   0.16591   0.94686   0.00000  Uiso   1.00
C614   C     0.51195   0.15552   0.51173   0.00000  Uiso   1.00
C615   C     0.52516   0.11675   0.99114   0.00000  Uiso   1.00
C616   C     0.51033   0.09900   0.95304   0.00000  Uiso   1.00
C617   C     0.48708   0.12242   0.93398   0.00000  Uiso   1.00
Cl618  Cl    0.57506   0.07922   0.58603   0.00000  Uiso   1.00
Cl619  Cl    0.58399   0.05952   0.98187   0.00000  Uiso   1.00
Cl620  Cl    0.52512   0.25469   0.53749   0.00000  Uiso   1.00
H621   H     0.65243   0.13945   0.79036   0.00000  Uiso   1.00
H622   H     0.54007   0.00363   0.71116   0.00000  Uiso   1.00
H623   H     0.45850   0.33143   0.78954   0.00000  Uiso   1.00
H624   H     0.49065   0.18835   0.57702   0.00000  Uiso   1.00
H625   H     0.47136   0.28079   0.99316   0.00000  Uiso   1.00
H626   H     0.34897   0.19430   0.71001   0.00000  Uiso   1.00
H627   H     0.52102   0.04397   0.90278   0.00000  Uiso   1.00
H628   H     0.41476   0.24302   0.90419   0.00000  Uiso   1.00
H629   H     0.46685   0.07211   0.88463   0.00000  Uiso   1.00
O630   O     0.50000   0.16667   0.75000   0.00000  Uiso   1.00
O631   O     0.48784   0.12637   0.65458   0.00000  Uiso   1.00
O632   O     0.46274   0.20391   0.84968   0.00000  Uiso   1.00
O633   O     0.54157   0.17759   0.64606   0.00000  Uiso   1.00
O634   O     0.50785   0.15880   0.84968   0.00000  Uiso   1.00
O635   O     0.49914   0.02774   0.96565   0.00000  Uiso   1.00
O636   O     0.44014   0.29588   0.93054   0.00000  Uiso   1.00
O637   O     0.42366   0.11141   0.90839   0.00000  Uiso   1.00
O638   O     0.51264   0.08019   0.78213   0.00000  Uiso   1.00
O639   O     0.47965   0.26085   0.77013   0.00000  Uiso   1.00
O640   O     0.40745   0.13291   0.73413   0.00000  Uiso   1.00
O641   O     0.60026   0.19272   0.71360   0.00000  Uiso   1.00
O642   O     0.40405   0.18878   0.78213   0.00000  Uiso   1.00
O643   O     0.58824   0.15226   0.77013   0.00000  Uiso   1.00
O644   O     0.47093   0.06944   0.73413   0.00000  Uiso   1.00
O645   O     0.53678   0.25620   0.71360   0.00000  Uiso   1.00
Zn646  Zn    0.52672   0.13994   0.78734   0.00000  Uiso   1.00
Zn647  Zn    0.46713   0.12458   0.71875   0.00000  Uiso   1.00
Zn648  Zn    0.54389   0.19775   0.70657   0.00000  Uiso   1.00
Zn649  Zn    0.46226   0.20439   0.78733   0.00000  Uiso   1.00
C650   C     0.71938   0.15966   0.76005   0.00000  Uiso   1.00
C651   C     0.84244   0.16429   0.55777   0.00000  Uiso   1.00
C652   C     0.88216   0.10706   0.55764   0.00000  Uiso   1.00
C653   C     0.94746   0.17381   0.74002   0.00000  Uiso   1.00
C654   C     0.80716   0.19320   0.92103   0.00000  Uiso   1.00
C655   C     0.99329   0.17654   0.73597   0.00000  Uiso   1.00
C656   C     0.67411   0.15723   0.76404   0.00000  Uiso   1.00
C657   C     0.84707   0.32247   0.73651   0.00000  Uiso   1.00
C658   C     0.81850   0.01179   0.76404   0.00000  Uiso   1.00
C659   C     0.82276   0.05587   0.76027   0.00000  Uiso   1.00
C660   C     0.84323   0.27793   0.74019   0.00000  Uiso   1.00
C661   C     0.80905   0.24900   0.97982   0.00000  Uiso   1.00
C662   C     0.85197   0.14808   0.62928   0.00000  Uiso   1.00
C663   C     0.81439   0.18424   0.87138   0.00000  Uiso   1.00
C664   C     0.88255   0.09585   0.51227   0.00000  Uiso   1.00
C665   C     0.85965   0.13983   0.58075   0.00000  Uiso   1.00
C666   C     0.79576   0.23275   0.94135   0.00000  Uiso   1.00
C667   C     0.84452   0.05398   0.93829   0.00000  Uiso   1.00
C668   C     0.77056   0.25801   0.92319   0.00000  Uiso   1.00
C669   C     0.79156   0.09983   0.90622   0.00000  Uiso   1.00
C670   C     0.82990   0.22573   0.50036   0.00000  Uiso   1.00
C671   C     0.83146   0.18249   0.98707   0.00000  Uiso   1.00
C672   C     0.81976   0.16591   0.94686   0.00000  Uiso   1.00
C673   C     0.84528   0.15552   0.51173   0.00000  Uiso   1.00
C674   C     0.85849   0.11675   0.99114   0.00000  Uiso   1.00
C675   C     0.84367   0.09900   0.95304   0.00000  Uiso   1.00
C676   C     0.82041   0.12242   0.93398   0.00000  Uiso   1.00
Cl677  Cl    0.90839   0.07922   0.58603   0.00000  Uiso   1.00
Cl678  Cl    0.91732   0.05952   0.98187   0.00000  Uiso   1.00
Cl679  Cl    0.85845   0.25469   0.53749   0.00000  Uiso   1.00
H680   H     0.98576   0.13945   0.79036   0.00000  Uiso   1.00
H681   H     0.87340   0.00363   0.71116   0.00000  Uiso   1.00
H682   H     0.79184   0.33143   0.78954   0.00000  Uiso   1.00
H683   H     0.82398   0.18835   0.57702   0.00000  Uiso   1.00
H684   H     0.80469   0.28079   0.99316   0.00000  Uiso   1.00
H685   H     0.68231   0.19430   0.71001   0.00000  Uiso   1.00
H686   H     0.85435   0.04397   0.90278   0.00000  Uiso   1.00
H687   H     0.74809   0.24302   0.90419   0.00000  Uiso   1.00
H688   H     0.80019   0.07211   0.88463   0.00000  Uiso   1.00
O689   O     0.83333   0.16667   0.75000   0.00000  Uiso   1.00
O690   O     0.82118   0.12637   0.65458   0.00000  Uiso   1.00
O691   O     0.79607   0.20391   0.84968   0.00000  Uiso   1.00
O692   O     0.87491   0.17759   0.64606   0.00000  Uiso   1.00
O693   O     0.84118   0.15880   0.84968   0.00000  Uiso   1.00
O694   O     0.83247   0.02774   0.96565   0.00000  Uiso   1.00
O695   O     0.77347   0.29588   0.93054   0.00000  Uiso   1.00
O696   O     0.75699   0.11141   0.90839   0.00000  Uiso   1.00
O697   O     0.84597   0.08019   0.78213   0.00000  Uiso   1.00
O698   O     0.81298   0.26085   0.77013   0.00000  Uiso   1.00
O699   O     0.74078   0.13291   0.73413   0.00000  Uiso   1.00
O700   O     0.93360   0.19272   0.71360   0.00000  Uiso   1.00
O701   O     0.73738   0.18878   0.78213   0.00000  Uiso   1.00
O702   O     0.92158   0.15226   0.77013   0.00000  Uiso   1.00
O703   O     0.80426   0.06944   0.73413   0.00000  Uiso   1.00
O704   O     0.87012   0.25620   0.71360   0.00000  Uiso   1.00
Zn705  Zn    0.86005   0.13994   0.78734   0.00000  Uiso   1.00
Zn706  Zn    0.80046   0.12458   0.71875   0.00000  Uiso   1.00
Zn707  Zn    0.87723   0.19775   0.70657   0.00000  Uiso   1.00
Zn708  Zn    0.79560   0.20439   0.78733   0.00000  Uiso   1.00
C709   C     0.05271   0.49299   0.76005   0.00000  Uiso   1.00
C710   C     0.17578   0.49763   0.55777   0.00000  Uiso   1.00
C711   C     0.21550   0.44040   0.55764   0.00000  Uiso   1.00
C712   C     0.28079   0.50715   0.74002   0.00000  Uiso   1.00
C713   C     0.14050   0.52653   0.92103   0.00000  Uiso   1.00
C714   C     0.32663   0.50987   0.73597   0.00000  Uiso   1.00
C715   C     0.00744   0.49057   0.76404   0.00000  Uiso   1.00
C716   C     0.18040   0.65581   0.73651   0.00000  Uiso   1.00
C717   C     0.15184   0.34512   0.76404   0.00000  Uiso   1.00
C718   C     0.15609   0.38920   0.76027   0.00000  Uiso   1.00
C719   C     0.17657   0.61126   0.74019   0.00000  Uiso   1.00
C720   C     0.14238   0.58233   0.97982   0.00000  Uiso   1.00
C721   C     0.18531   0.48141   0.62928   0.00000  Uiso   1.00
C722   C     0.14772   0.51757   0.87138   0.00000  Uiso   1.00
C723   C     0.21589   0.42919   0.51227   0.00000  Uiso   1.00
C724   C     0.19298   0.47316   0.58075   0.00000  Uiso   1.00
C725   C     0.12909   0.56609   0.94135   0.00000  Uiso   1.00
C726   C     0.17786   0.38732   0.93829   0.00000  Uiso   1.00
C727   C     0.10389   0.59134   0.92319   0.00000  Uiso   1.00
C728   C     0.12490   0.43316   0.90622   0.00000  Uiso   1.00
C729   C     0.16323   0.55906   0.50036   0.00000  Uiso   1.00
C730   C     0.16480   0.51582   0.98707   0.00000  Uiso   1.00
C731   C     0.15309   0.49924   0.94686   0.00000  Uiso   1.00
C732   C     0.17862   0.48886   0.51173   0.00000  Uiso   1.00
C733   C     0.19183   0.45008   0.99114   0.00000  Uiso   1.00
C734   C     0.17700   0.43234   0.95304   0.00000  Uiso   1.00
C735   C     0.15374   0.45575   0.93398   0.00000  Uiso   1.00
Cl736  Cl    0.24172   0.41255   0.58603   0.00000  Uiso   1.00
Cl737  Cl    0.25065   0.39286   0.98187   0.00000  Uiso   1.00
Cl738  Cl    0.19179   0.58803   0.53749   0.00000  Uiso   1.00
H739   H     0.31910   0.47278   0.79036   0.00000  Uiso   1.00
H740   H     0.20674   0.33696   0.71116   0.00000  Uiso   1.00
H741   H     0.12517   0.66476   0.78954   0.00000  Uiso   1.00
H742   H     0.15731   0.52168   0.57702   0.00000  Uiso   1.00
H743   H     0.13802   0.61412   0.99316   0.00000  Uiso   1.00
H744   H     0.01564   0.52764   0.71001   0.00000  Uiso   1.00
H745   H     0.18768   0.37731   0.90278   0.00000  Uiso   1.00
H746   H     0.08142   0.57635   0.90419   0.00000  Uiso   1.00
H747   H     0.13352   0.40544   0.88463   0.00000  Uiso   1.00
O748   O     0.16667   0.50000   0.75000   0.00000  Uiso   1.00
O749   O     0.15451   0.45970   0.65458   0.00000  Uiso   1.00
O750   O     0.12940   0.53724   0.84968   0.00000  Uiso   1.00
O751   O     0.20824   0.51092   0.64606   0.00000  Uiso   1.00
O752   O     0.17451   0.49213   0.84968   0.00000  Uiso   1.00
O753   O     0.16580   0.36108   0.96565   0.00000  Uiso   1.00
O754   O     0.10680   0.62921   0.93054   0.00000  Uiso   1.00
O755   O     0.09033   0.44475   0.90839   0.00000  Uiso   1.00
O756   O     0.17930   0.41352   0.78213   0.00000  Uiso   1.00
O757   O     0.14632   0.59418   0.77013   0.00000  Uiso   1.00
O758   O     0.07412   0.46625   0.73413   0.00000  Uiso   1.00
O759   O     0.26693   0.52605   0.71360   0.00000  Uiso   1.00
O760   O     0.07071   0.52211   0.78213   0.00000  Uiso   1.00
O761   O     0.25491   0.48559   0.77013   0.00000  Uiso   1.00
O762   O     0.13760   0.40277   0.73413   0.00000  Uiso   1.00
O763   O     0.20345   0.58953   0.71360   0.00000  Uiso   1.00
Zn764  Zn    0.19338   0.47327   0.78734   0.00000  Uiso   1.00
Zn765  Zn    0.13379   0.45791   0.71875   0.00000  Uiso   1.00
Zn766  Zn    0.21056   0.53109   0.70657   0.00000  Uiso   1.00
Zn767  Zn    0.12893   0.53773   0.78733   0.00000  Uiso   1.00
C768   C     0.38604   0.49299   0.76005   0.00000  Uiso   1.00
C769   C     0.50911   0.49763   0.55777   0.00000  Uiso   1.00
C770   C     0.54883   0.44040   0.55764   0.00000  Uiso   1.00
C771   C     0.61412   0.50715   0.74002   0.00000  Uiso   1.00
C772   C     0.47383   0.52653   0.92103   0.00000  Uiso   1.00
C773   C     0.65996   0.50987   0.73597   0.00000  Uiso   1.00
C774   C     0.34077   0.49057   0.76404   0.00000  Uiso   1.00
C775   C     0.51373   0.65581   0.73651   0.00000  Uiso   1.00
C776   C     0.48517   0.34512   0.76404   0.00000  Uiso   1.00
C777   C     0.48942   0.38920   0.76027   0.00000  Uiso   1.00
C778   C     0.50990   0.61126   0.74019   0.00000  Uiso   1.00
C779   C     0.47572   0.58233   0.97982   0.00000  Uiso   1.00
C780   C     0.51864   0.48141   0.62928   0.00000  Uiso   1.00
C781   C     0.48106   0.51757   0.87138   0.00000  Uiso   1.00
C782   C     0.54922   0.42919   0.51227   0.00000  Uiso   1.00
C783   C     0.52631   0.47316   0.58075   0.00000  Uiso   1.00
C784   C     0.46242   0.56609   0.94135   0.00000  Uiso   1.00
C785   C     0.51119   0.38732   0.93829   0.00000  Uiso   1.00
C786   C     0.43723   0.59134   0.92319   0.00000  Uiso   1.00
C787   C     0.45823   0.43316   0.90622   0.00000  Uiso   1.00
C788   C     0.49657   0.55906   0.50036   0.00000  Uiso   1.00
C789   C     0.49813   0.51582   0.98707   0.00000  Uiso   1.00
C790   C     0.48643   0.49924   0.94686   0.00000  Uiso   1.00
C791   C     0.51195   0.48886   0.51173   0.00000  Uiso   1.00
C792   C     0.52516   0.45008   0.99114   0.00000  Uiso   1.00
C793   C     0.51033   0.43234   0.95304   0.00000  Uiso   1.00
C794   C     0.48708   0.45575   0.93398   0.00000  Uiso   1.00
Cl795  Cl    0.57506   0.41255   0.58603   0.00000  Uiso   1.00
Cl796  Cl    0.58399   0.39286   0.98187   0.00000  Uiso   1.00
Cl797  Cl    0.52512   0.58803   0.53749   0.00000  Uiso   1.00
H798   H     0.65243   0.47278   0.79036   0.00000  Uiso   1.00
H799   H     0.54007   0.33696   0.71116   0.00000  Uiso   1.00
H800   H     0.45850   0.66476   0.78954   0.00000  Uiso   1.00
H801   H     0.49065   0.52168   0.57702   0.00000  Uiso   1.00
H802   H     0.47136   0.61412   0.99316   0.00000  Uiso   1.00
H803   H     0.34897   0.52764   0.71001   0.00000  Uiso   1.00
H804   H     0.52102   0.37731   0.90278   0.00000  Uiso   1.00
H805   H     0.41476   0.57635   0.90419   0.00000  Uiso   1.00
H806   H     0.46685   0.40544   0.88463   0.00000  Uiso   1.00
O807   O     0.50000   0.50000   0.75000   0.00000  Uiso   1.00
O808   O     0.48784   0.45970   0.65458   0.00000  Uiso   1.00
O809   O     0.46274   0.53724   0.84968   0.00000  Uiso   1.00
O810   O     0.54157   0.51092   0.64606   0.00000  Uiso   1.00
O811   O     0.50785   0.49213   0.84968   0.00000  Uiso   1.00
O812   O     0.49914   0.36108   0.96565   0.00000  Uiso   1.00
O813   O     0.44014   0.62921   0.93054   0.00000  Uiso   1.00
O814   O     0.42366   0.44475   0.90839   0.00000  Uiso   1.00
O815   O     0.51264   0.41352   0.78213   0.00000  Uiso   1.00
O816   O     0.47965   0.59418   0.77013   0.00000  Uiso   1.00
O817   O     0.40745   0.46625   0.73413   0.00000  Uiso   1.00
O818   O     0.60026   0.52605   0.71360   0.00000  Uiso   1.00
O819   O     0.40405   0.52211   0.78213   0.00000  Uiso   1.00
O820   O     0.58824   0.48559   0.77013   0.00000  Uiso   1.00
O821   O     0.47093   0.40277   0.73413   0.00000  Uiso   1.00
O822   O     0.53678   0.58953   0.71360   0.00000  Uiso   1.00
Zn823  Zn    0.52672   0.47327   0.78734   0.00000  Uiso   1.00
Zn824  Zn    0.46713   0.45791   0.71875   0.00000  Uiso   1.00
Zn825  Zn    0.54389   0.53109   0.70657   0.00000  Uiso   1.00
Zn826  Zn    0.46226   0.53773   0.78733   0.00000  Uiso   1.00
C827   C     0.71938   0.49299   0.76005   0.00000  Uiso   1.00
C828   C     0.84244   0.49763   0.55777   0.00000  Uiso   1.00
C829   C     0.88216   0.44040   0.55764   0.00000  Uiso   1.00
C830   C     0.94746   0.50715   0.74002   0.00000  Uiso   1.00
C831   C     0.80716   0.52653   0.92103   0.00000  Uiso   1.00
C832   C     0.99329   0.50987   0.73597   0.00000  Uiso   1.00
C833   C     0.67411   0.49057   0.76404   0.00000  Uiso   1.00
C834   C     0.84707   0.65581   0.73651   0.00000  Uiso   1.00
C835   C     0.81850   0.34512   0.76404   0.00000  Uiso   1.00
C836   C     0.82276   0.38920   0.76027   0.00000  Uiso   1.00
C837   C     0.84323   0.61126   0.74019   0.00000  Uiso   1.00
C838   C     0.80905   0.58233   0.97982   0.00000  Uiso   1.00
C839   C     0.85197   0.48141   0.62928   0.00000  Uiso   1.00
C840   C     0.81439   0.51757   0.87138   0.00000  Uiso   1.00
C841   C     0.88255   0.42919   0.51227   0.00000  Uiso   1.00
C842   C     0.85965   0.47316   0.58075   0.00000  Uiso   1.00
C843   C     0.79576   0.56609   0.94135   0.00000  Uiso   1.00
C844   C     0.84452   0.38732   0.93829   0.00000  Uiso   1.00
C845   C     0.77056   0.59134   0.92319   0.00000  Uiso   1.00
C846   C     0.79156   0.43316   0.90622   0.00000  Uiso   1.00
C847   C     0.82990   0.55906   0.50036   0.00000  Uiso   1.00
C848   C     0.83146   0.51582   0.98707   0.00000  Uiso   1.00
C849   C     0.81976   0.49924   0.94686   0.00000  Uiso   1.00
C850   C     0.84528   0.48886   0.51173   0.00000  Uiso   1.00
C851   C     0.85849   0.45008   0.99114   0.00000  Uiso   1.00
C852   C     0.84367   0.43234   0.95304   0.00000  Uiso   1.00
C853   C     0.82041   0.45575   0.93398   0.00000  Uiso   1.00
Cl854  Cl    0.90839   0.41255   0.58603   0.00000  Uiso   1.00
Cl855  Cl    0.91732   0.39286   0.98187   0.00000  Uiso   1.00
Cl856  Cl    0.85845   0.58803   0.53749   0.00000  Uiso   1.00
H857   H     0.98576   0.47278   0.79036   0.00000  Uiso   1.00
H858   H     0.87340   0.33696   0.71116   0.00000  Uiso   1.00
H859   H     0.79184   0.66476   0.78954   0.00000  Uiso   1.00
H860   H     0.82398   0.52168   0.57702   0.00000  Uiso   1.00
H861   H     0.80469   0.61412   0.99316   0.00000  Uiso   1.00
H862   H     0.68231   0.52764   0.71001   0.00000  Uiso   1.00
H863   H     0.85435   0.37731   0.90278   0.00000  Uiso   1.00
H864   H     0.74809   0.57635   0.90419   0.00000  Uiso   1.00
H865   H     0.80019   0.40544   0.88463   0.00000  Uiso   1.00
O866   O     0.83333   0.50000   0.75000   0.00000  Uiso   1.00
O867   O     0.82118   0.45970   0.65458   0.00000  Uiso   1.00
O868   O     0.79607   0.53724   0.84968   0.00000  Uiso   1.00
O869   O     0.87491   0.51092   0.64606   0.00000  Uiso   1.00
O870   O     0.84118   0.49213   0.84968   0.00000  Uiso   1.00
O871   O     0.83247   0.36108   0.96565   0.00000  Uiso   1.00
O872   O     0.77347   0.62921   0.93054   0.00000  Uiso   1.00
O873   O     0.75699   0.44475   0.90839   0.00000  Uiso   1.00
O874   O     0.84597   0.41352   0.78213   0.00000  Uiso   1.00
O875   O     0.81298   0.59418   0.77013   0.00000  Uiso   1.00
O876   O     0.74078   0.46625   0.73413   0.00000  Uiso   1.00
O877   O     0.93360   0.52605   0.71360   0.00000  Uiso   1.00
O878   O     0.73738   0.52211   0.78213   0.00000  Uiso   1.00
O879   O     0.92158   0.48559   0.77013   0.00000  Uiso   1.00
O880   O     0.80426   0.40277   0.73413   0.00000  Uiso   1.00
O881   O     0.87012   0.58953   0.71360   0.00000  Uiso   1.00
Zn882  Zn    0.86005   0.47327   0.78734   0.00000  Uiso   1.00
Zn883  Zn    0.80046   0.45791   0.71875   0.00000  Uiso   1.00
Zn884  Zn    0.87723   0.53109   0.70657   0.00000  Uiso   1.00
Zn885  Zn    0.79560   0.53773   0.78733   0.00000  Uiso   1.00
C886   C     0.05271   0.82632   0.76005   0.00000  Uiso   1.00
C887   C     0.17578   0.83096   0.55777   0.00000  Uiso   1.00
C888   C     0.21550   0.77373   0.55764   0.00000  Uiso   1.00
C889   C     0.28079   0.84048   0.74002   0.00000  Uiso   1.00
C890   C     0.14050   0.85987   0.92103   0.00000  Uiso   1.00
C891   C     0.32663   0.84321   0.73597   0.00000  Uiso   1.00
C892   C     0.00744   0.82390   0.76404   0.00000  Uiso   1.00
C893   C     0.18040   0.98914   0.73651   0.00000  Uiso   1.00
C894   C     0.15184   0.67845   0.76404   0.00000  Uiso   1.00
C895   C     0.15609   0.72253   0.76027   0.00000  Uiso   1.00
C896   C     0.17657   0.94460   0.74019   0.00000  Uiso   1.00
C897   C     0.14238   0.91566   0.97982   0.00000  Uiso   1.00
C898   C     0.18531   0.81475   0.62928   0.00000  Uiso   1.00
C899   C     0.14772   0.85090   0.87138   0.00000  Uiso   1.00
C900   C     0.21589   0.76252   0.51227   0.00000  Uiso   1.00
C901   C     0.19298   0.80650   0.58075   0.00000  Uiso   1.00
C902   C     0.12909   0.89942   0.94135   0.00000  Uiso   1.00
C903   C     0.17786   0.72065   0.93829   0.00000  Uiso   1.00
C904   C     0.10389   0.92467   0.92319   0.00000  Uiso   1.00
C905   C     0.12490   0.76649   0.90622   0.00000  Uiso   1.00
C906   C     0.16323   0.89239   0.50036   0.00000  Uiso   1.00
C907   C     0.16480   0.84916   0.98707   0.00000  Uiso   1.00
C908   C     0.15309   0.83257   0.94686   0.00000  Uiso   1.00
C909   C     0.17862   0.82219   0.51173   0.00000  Uiso   1.00
C910   C     0.19183   0.78342   0.99114   0.00000  Uiso   1.00
C911   C     0.17700   0.76567   0.95304   0.00000  Uiso   1.00
C912   C     0.15374   0.78908   0.93398   0.00000  Uiso   1.00
Cl913  Cl    0.24172   0.74589   0.58603   0.00000  Uiso   1.00
Cl914  Cl    0.25065   0.72619   0.98187   0.00000  Uiso   1.00
Cl915  Cl    0.19179   0.92136   0.53749   0.00000  Uiso   1.00
H916   H     0.31910   0.80612   0.79036   0.00000  Uiso   1.00
H917   H     0.20674   0.67030   0.71116   0.00000  Uiso   1.00
H918   H     0.12517   0.99810   0.78954   0.00000  Uiso   1.00
H919   H     0.15731   0.85501   0.57702   0.00000  Uiso   1.00
H920   H     0.13802   0.94745   0.99316   0.00000  Uiso   1.00
H921   H     0.01564   0.86097   0.71001   0.00000  Uiso   1.00
H922   H     0.18768   0.71064   0.90278   0.00000  Uiso   1.00
H923   H     0.08142   0.90969   0.90419   0.00000  Uiso   1.00
H924   H     0.13352   0.73877   0.88463   0.00000  Uiso   1.00
O925   O     0.16667   0.83333   0.75000   0.00000  Uiso   1.00
O926   O     0.15451   0.79304   0.65458   0.00000  Uiso   1.00
O927   O     0.12940   0.87058   0.84968   0.00000  Uiso   1.00
O928   O     0.20824   0.84425   0.64606   0.00000  Uiso   1.00
O929   O     0.17451   0.82546   0.84968   0.00000  Uiso   1.00
O930   O     0.16580   0.69441   0.96565   0.00000  Uiso   1.00
O931   O     0.10680   0.96255   0.93054   0.00000  Uiso   1.00
O932   O     0.09033   0.77808   0.90839   0.00000  Uiso   1.00
O933   O     0.17930   0.74686   0.78213   0.00000  Uiso   1.00
O934   O     0.14632   0.92751   0.77013   0.00000  Uiso   1.00
O935   O     0.07412   0.79958   0.73413   0.00000  Uiso   1.00
O936   O     0.26693   0.85939   0.71360   0.00000  Uiso   1.00
O937   O     0.07071   0.85544   0.78213   0.00000  Uiso   1.00
O938   O     0.25491   0.81892   0.77013   0.00000  Uiso   1.00
O939   O     0.13760   0.73610   0.73413   0.00000  Uiso   1.00
O940   O     0.20345   0.92286   0.71360   0.00000  Uiso   1.00
Zn941  Zn    0.19338   0.80661   0.78734   0.00000  Uiso   1.00
Zn942  Zn    0.13379   0.79124   0.71875   0.00000  Uiso   1.00
Zn943  Zn    0.21056   0.86442   0.70657   0.00000  Uiso   1.00
Zn944  Zn    0.12893   0.87106   0.78733   0.00000  Uiso   1.00
C945   C     0.38604   0.82632   0.76005   0.00000  Uiso   1.00
C946   C     0.50911   0.83096   0.55777   0.00000  Uiso   1.00
C947   C     0.54883   0.77373   0.55764   0.00000  Uiso   1.00
C948   C     0.61412   0.84048   0.74002   0.00000  Uiso   1.00
C949   C     0.47383   0.85987   0.92103   0.00000  Uiso   1.00
C950   C     0.65996   0.84321   0.73597   0.00000  Uiso   1.00
C951   C     0.34077   0.82390   0.76404   0.00000  Uiso   1.00
C952   C     0.51373   0.98914   0.73651   0.00000  Uiso   1.00
C953   C     0.48517   0.67845   0.76404   0.00000  Uiso   1.00
C954   C     0.48942   0.72253   0.76027   0.00000  Uiso   1.00
C955   C     0.50990   0.94460   0.74019   0.00000  Uiso   1.00
C956   C     0.47572   0.91566   0.97982   0.00000  Uiso   1.00
C957   C     0.51864   0.81475   0.62928   0.00000  Uiso   1.00
C958   C     0.48106   0.85090   0.87138   0.00000  Uiso   1.00
C959   C     0.54922   0.76252   0.51227   0.00000  Uiso   1.00
C960   C     0.52631   0.80650   0.58075   0.00000  Uiso   1.00
C961   C     0.46242   0.89942   0.94135   0.00000  Uiso   1.00
C962   C     0.51119   0.72065   0.93829   0.00000  Uiso   1.00
C963   C     0.43723   0.92467   0.92319   0.00000  Uiso   1.00
C964   C     0.45823   0.76649   0.90622   0.00000  Uiso   1.00
C965   C     0.49657   0.89239   0.50036   0.00000  Uiso   1.00
C966   C     0.49813   0.84916   0.98707   0.00000  Uiso   1.00
C967   C     0.48643   0.83257   0.94686   0.00000  Uiso   1.00
C968   C     0.51195   0.82219   0.51173   0.00000  Uiso   1.00
C969   C     0.52516   0.78342   0.99114   0.00000  Uiso   1.00
C970   C     0.51033   0.76567   0.95304   0.00000  Uiso   1.00
C971   C     0.48708   0.78908   0.93398   0.00000  Uiso   1.00
Cl972  Cl    0.57506   0.74589   0.58603   0.00000  Uiso   1.00
Cl973  Cl    0.58399   0.72619   0.98187   0.00000  Uiso   1.00
Cl974  Cl    0.52512   0.92136   0.53749   0.00000  Uiso   1.00
H975   H     0.65243   0.80612   0.79036   0.00000  Uiso   1.00
H976   H     0.54007   0.67030   0.71116   0.00000  Uiso   1.00
H977   H     0.45850   0.99810   0.78954   0.00000  Uiso   1.00
H978   H     0.49065   0.85501   0.57702   0.00000  Uiso   1.00
H979   H     0.47136   0.94745   0.99316   0.00000  Uiso   1.00
H980   H     0.34897   0.86097   0.71001   0.00000  Uiso   1.00
H981   H     0.52102   0.71064   0.90278   0.00000  Uiso   1.00
H982   H     0.41476   0.90969   0.90419   0.00000  Uiso   1.00
H983   H     0.46685   0.73877   0.88463   0.00000  Uiso   1.00
O984   O     0.50000   0.83333   0.75000   0.00000  Uiso   1.00
O985   O     0.48784   0.79304   0.65458   0.00000  Uiso   1.00
O986   O     0.46274   0.87058   0.84968   0.00000  Uiso   1.00
O987   O     0.54157   0.84425   0.64606   0.00000  Uiso   1.00
O988   O     0.50785   0.82546   0.84968   0.00000  Uiso   1.00
O989   O     0.49914   0.69441   0.96565   0.00000  Uiso   1.00
O990   O     0.44014   0.96255   0.93054   0.00000  Uiso   1.00
O991   O     0.42366   0.77808   0.90839   0.00000  Uiso   1.00
O992   O     0.51264   0.74686   0.78213   0.00000  Uiso   1.00
O993   O     0.47965   0.92751   0.77013   0.00000  Uiso   1.00
O994   O     0.40745   0.79958   0.73413   0.00000  Uiso   1.00
O995   O     0.60026   0.85939   0.71360   0.00000  Uiso   1.00
O996   O     0.40405   0.85544   0.78213   0.00000  Uiso   1.00
O997   O     0.58824   0.81892   0.77013   0.00000  Uiso   1.00
O998   O     0.47093   0.73610   0.73413   0.00000  Uiso   1.00
O999   O     0.53678   0.92286   0.71360   0.00000  Uiso   1.00
Zn1000 Zn    0.52672   0.80661   0.78734   0.00000  Uiso   1.00
Zn1001 Zn    0.46713   0.79124   0.71875   0.00000  Uiso   1.00
Zn1002 Zn    0.54389   0.86442   0.70657   0.00000  Uiso   1.00
Zn1003 Zn    0.46226   0.87106   0.78733   0.00000  Uiso   1.00
C1004  C     0.71938   0.82632   0.76005   0.00000  Uiso   1.00
C1005  C     0.84244   0.83096   0.55777   0.00000  Uiso   1.00
C1006  C     0.88216   0.77373   0.55764   0.00000  Uiso   1.00
C1007  C     0.94746   0.84048   0.74002   0.00000  Uiso   1.00
C1008  C     0.80716   0.85987   0.92103   0.00000  Uiso   1.00
C1009  C     0.99329   0.84321   0.73597   0.00000  Uiso   1.00
C1010  C     0.67411   0.82390   0.76404   0.00000  Uiso   1.00
C1011  C     0.84707   0.98914   0.73651   0.00000  Uiso   1.00
C1012  C     0.81850   0.67845   0.76404   0.00000  Uiso   1.00
C1013  C     0.82276   0.72253   0.76027   0.00000  Uiso   1.00
C1014  C     0.84323   0.94460   0.74019   0.00000  Uiso   1.00
C1015  C     0.80905   0.91566   0.97982   0.00000  Uiso   1.00
C1016  C     0.85197   0.81475   0.62928   0.00000  Uiso   1.00
C1017  C     0.81439   0.85090   0.87138   0.00000  Uiso   1.00
C1018  C     0.88255   0.76252   0.51227   0.00000  Uiso   1.00
C1019  C     0.85965   0.80650   0.58075   0.00000  Uiso   1.00
C1020  C     0.79576   0.89942   0.94135   0.00000  Uiso   1.00
C1021  C     0.84452   0.72065   0.93829   0.00000  Uiso   1.00
C1022  C     0.77056   0.92467   0.92319   0.00000  Uiso   1.00
C1023  C     0.79156   0.76649   0.90622   0.00000  Uiso   1.00
C1024  C     0.82990   0.89239   0.50036   0.00000  Uiso   1.00
C1025  C     0.83146   0.84916   0.98707   0.00000  Uiso   1.00
C1026  C     0.81976   0.83257   0.94686   0.00000  Uiso   1.00
C1027  C     0.84528   0.82219   0.51173   0.00000  Uiso   1.00
C1028  C     0.85849   0.78342   0.99114   0.00000  Uiso   1.00
C1029  C     0.84367   0.76567   0.95304   0.00000  Uiso   1.00
C1030  C     0.82041   0.78908   0.93398   0.00000  Uiso   1.00
Cl1031 Cl    0.90839   0.74589   0.58603   0.00000  Uiso   1.00
Cl1032 Cl    0.91732   0.72619   0.98187   0.00000  Uiso   1.00
Cl1033 Cl    0.85845   0.92136   0.53749   0.00000  Uiso   1.00
H1034  H     0.98576   0.80612   0.79036   0.00000  Uiso   1.00
H1035  H     0.87340   0.67030   0.71116   0.00000  Uiso   1.00
H1036  H     0.79184   0.99810   0.78954   0.00000  Uiso   1.00
H1037  H     0.82398   0.85501   0.57702   0.00000  Uiso   1.00
H1038  H     0.80469   0.94745   0.99316   0.00000  Uiso   1.00
H1039  H     0.68231   0.86097   0.71001   0.00000  Uiso   1.00
H1040  H     0.85435   0.71064   0.90278   0.00000  Uiso   1.00
H1041  H     0.74809   0.90969   0.90419   0.00000  Uiso   1.00
H1042  H     0.80019   0.73877   0.88463   0.00000  Uiso   1.00
O1043  O     0.83333   0.83333   0.75000   0.00000  Uiso   1.00
O1044  O     0.82118   0.79304   0.65458   0.00000  Uiso   1.00
O1045  O     0.79607   0.87058   0.84968   0.00000  Uiso   1.00
O1046  O     0.87491   0.84425   0.64606   0.00000  Uiso   1.00
O1047  O     0.84118   0.82546   0.84968   0.00000  Uiso   1.00
O1048  O     0.83247   0.69441   0.96565   0.00000  Uiso   1.00
O1049  O     0.77347   0.96255   0.93054   0.00000  Uiso   1.00
O1050  O     0.75699   0.77808   0.90839   0.00000  Uiso   1.00
O1051  O     0.84597   0.74686   0.78213   0.00000  Uiso   1.00
O1052  O     0.81298   0.92751   0.77013   0.00000  Uiso   1.00
O1053  O     0.74078   0.79958   0.73413   0.00000  Uiso   1.00
O1054  O     0.93360   0.85939   0.71360   0.00000  Uiso   1.00
O1055  O     0.73738   0.85544   0.78213   0.00000  Uiso   1.00
O1056  O     0.92158   0.81892   0.77013   0.00000  Uiso   1.00
O1057  O     0.80426   0.73610   0.73413   0.00000  Uiso   1.00
O1058  O     0.87012   0.92286   0.71360   0.00000  Uiso   1.00
Zn1059 Zn    0.86005   0.80661   0.78734   0.00000  Uiso   1.00
Zn1060 Zn    0.80046   0.79124   0.71875   0.00000  Uiso   1.00
Zn1061 Zn    0.87723   0.86442   0.70657   0.00000  Uiso   1.00
Zn1062 Zn    0.79560   0.87106   0.78733   0.00000  Uiso   1.00
loop_
_geom_bond_atom_site_label_1
_geom_bond_atom_site_label_2
_geom_bond_distance
_geom_bond_site_symmetry_2
_ccdc_geom_bond_type
C1     O50     1.268   .     A
C1     O52     1.268   .     A
C1     C7      1.437   .     S
C2     C16     1.386   .     A
C2     H34     1.082   .     S
C2     C24     1.401   .     A
C3     Cl28    1.767   .     S
C3     C15     1.406   .     A
C3     C16     1.401   .     A
C4     O53     1.277   .     A
C4     C6      1.454   .     S
C4     O51     1.280   .     A
C5     C14     1.492   .     S
C5     C17     1.421   .     A
C5     C23     1.427   .     A
C6     C66     1.334   .     S
C6     H95     1.088   .     S
C7     C124    1.334   1_455 S
C7     H149    1.086   1_455 S
C8     C11     1.451   .     S
C8     C186    1.331   .     S
C8     H209    1.088   .     S
C9     C10     1.435   .     S
C9     C362    1.331   1_545 S
C9     H387    1.086   1_545 S
C10    O48     1.275   .     A
C10    O54     1.275   .     A
C11    O49     1.270   .     A
C11    O55     1.269   .     A
C12    C17     1.393   .     A
C12    H35     1.083   .     S
C12    C552    1.387   .     S
C13    C16     1.455   .     S
C13    O41     1.274   .     A
C13    O43     1.276   .     A
C14    O42     1.279   .     A
C14    O44     1.293   .     A
C15    C556    1.425   1_554 S
C15    Cl560   1.771   1_554 S
C17    C19     1.486   .     S
C18    H37     1.085   .     S
C18    O45     1.221   .     D
C18    C26     1.485   .     S
C19    O46     1.221   .     D
C19    H38     1.084   .     S
C20    C27     1.496   .     S
C20    O47     1.221   .     D
C20    H39     1.084   .     S
C21    Cl30    1.769   .     S
C21    C543    1.387   1_554 S
C21    C553    1.423   1_554 S
C22    C23     1.421   .     A
C22    C552    1.423   .     S
C22    C555    1.415   .     S
C23    C27     1.426   .     A
C24    C553    1.415   1_554 S
C24    C556    1.418   1_554 S
C25    C26     1.420   .     A
C25    C555    1.418   .     S
C25    C546    1.425   .     S
C26    C27     1.417   .     A
Cl29   C546    1.771   .     S
H31    C66     1.086   .     S
H32    C362    1.088   1_545 S
H33    C186    1.086   .     S
H36    C124    1.088   1_455 S
O40    Zn58    1.935   .     S
O40    Zn59    1.928   .     S
O40    Zn57    1.941   .     S
O40    Zn56    1.956   .     S
O41    Zn57    1.925   .     S
O42    Zn59    1.934   .     S
O43    Zn58    1.928   .     S
O44    Zn56    1.920   .     S
O48    Zn56    1.928   .     S
O49    Zn59    1.933   .     S
O50    Zn57    1.927   .     S
O51    Zn58    1.936   .     S
O52    Zn59    1.933   .     S
O53    Zn56    1.926   .     S
O54    Zn57    1.936   .     S
O55    Zn58    1.929   .     S
C60    O109    1.268   .     A
C60    O111    1.268   .     A
C60    C66     1.437   .     S
C61    C75     1.386   .     A
C61    H93     1.082   .     S
C61    C83     1.401   .     A
C62    Cl87    1.767   .     S
C62    C74     1.406   .     A
C62    C75     1.401   .     A
C63    O112    1.277   .     A
C63    C65     1.454   .     S
C63    O110    1.280   .     A
C64    C73     1.492   .     S
C64    C76     1.421   .     A
C64    C82     1.427   .     A
C65    C125    1.334   .     S
C65    H154    1.088   .     S
C67    C70     1.451   .     S
C67    C245    1.331   .     S
C67    H268    1.088   .     S
C68    C69     1.435   .     S
C68    C421    1.331   1_545 S
C68    H446    1.086   1_545 S
C69    O107    1.275   .     A
C69    O113    1.275   .     A
C70    O108    1.270   .     A
C70    O114    1.269   .     A
C71    C76     1.393   .     A
C71    H94     1.083   .     S
C71    C611    1.387   .     S
C72    C75     1.455   .     S
C72    O100    1.274   .     A
C72    O102    1.276   .     A
C73    O101    1.279   .     A
C73    O103    1.293   .     A
C74    C615    1.425   1_554 S
C74    Cl619   1.771   1_554 S
C76    C78     1.486   .     S
C77    H96     1.085   .     S
C77    O104    1.221   .     D
C77    C85     1.485   .     S
C78    O105    1.221   .     D
C78    H97     1.084   .     S
C79    C86     1.496   .     S
C79    O106    1.221   .     D
C79    H98     1.084   .     S
C80    Cl89    1.769   .     S
C80    C602    1.387   1_554 S
C80    C612    1.423   1_554 S
C81    C82     1.421   .     A
C81    C611    1.423   .     S
C81    C614    1.415   .     S
C82    C86     1.426   .     A
C83    C612    1.415   1_554 S
C83    C615    1.418   1_554 S
C84    C85     1.420   .     A
C84    C614    1.418   .     S
C84    C605    1.425   .     S
C85    C86     1.417   .     A
Cl88   C605    1.771   .     S
H90    C125    1.086   .     S
H91    C421    1.088   1_545 S
H92    C245    1.086   .     S
O99    Zn117   1.935   .     S
O99    Zn118   1.928   .     S
O99    Zn116   1.941   .     S
O99    Zn115   1.956   .     S
O100   Zn116   1.925   .     S
O101   Zn118   1.934   .     S
O102   Zn117   1.928   .     S
O103   Zn115   1.920   .     S
O107   Zn115   1.928   .     S
O108   Zn118   1.933   .     S
O109   Zn116   1.927   .     S
O110   Zn117   1.936   .     S
O111   Zn118   1.933   .     S
O112   Zn115   1.926   .     S
O113   Zn116   1.936   .     S
O114   Zn117   1.929   .     S
C119   O168    1.268   .     A
C119   O170    1.268   .     A
C119   C125    1.437   .     S
C120   C134    1.386   .     A
C120   H152    1.082   .     S
C120   C142    1.401   .     A
C121   Cl146   1.767   .     S
C121   C133    1.406   .     A
C121   C134    1.401   .     A
C122   O171    1.277   .     A
C122   C124    1.454   .     S
C122   O169    1.280   .     A
C123   C132    1.492   .     S
C123   C135    1.421   .     A
C123   C141    1.427   .     A
C124   C7      1.334   1_655 S
C124   H36     1.088   1_655 S
C126   C129    1.451   .     S
C126   C304    1.331   .     S
C126   H327    1.088   .     S
C127   C128    1.435   .     S
C127   C480    1.331   1_545 S
C127   H505    1.086   1_545 S
C128   O166    1.275   .     A
C128   O172    1.275   .     A
C129   O167    1.270   .     A
C129   O173    1.269   .     A
C130   C135    1.393   .     A
C130   H153    1.083   .     S
C130   C670    1.387   .     S
C131   C134    1.455   .     S
C131   O159    1.274   .     A
C131   O161    1.276   .     A
C132   O160    1.279   .     A
C132   O162    1.293   .     A
C133   C674    1.425   1_554 S
C133   Cl678   1.771   1_554 S
C135   C137    1.486   .     S
C136   H155    1.085   .     S
C136   O163    1.221   .     D
C136   C144    1.485   .     S
C137   O164    1.221   .     D
C137   H156    1.084   .     S
C138   C145    1.496   .     S
C138   O165    1.221   .     D
C138   H157    1.084   .     S
C139   Cl148   1.769   .     S
C139   C661    1.387   1_554 S
C139   C671    1.423   1_554 S
C140   C141    1.421   .     A
C140   C670    1.423   .     S
C140   C673    1.415   .     S
C141   C145    1.426   .     A
C142   C671    1.415   1_554 S
C142   C674    1.418   1_554 S
C143   C144    1.420   .     A
C143   C673    1.418   .     S
C143   C664    1.425   .     S
C144   C145    1.417   .     A
Cl147  C664    1.771   .     S
H149   C7      1.086   1_655 S
H150   C480    1.088   1_545 S
H151   C304    1.086   .     S
O158   Zn176   1.935   .     S
O158   Zn177   1.928   .     S
O158   Zn175   1.941   .     S
O158   Zn174   1.956   .     S
O159   Zn175   1.925   .     S
O160   Zn177   1.934   .     S
O161   Zn176   1.928   .     S
O162   Zn174   1.920   .     S
O166   Zn174   1.928   .     S
O167   Zn177   1.933   .     S
O168   Zn175   1.927   .     S
O169   Zn176   1.936   .     S
O170   Zn177   1.933   .     S
O171   Zn174   1.926   .     S
O172   Zn175   1.936   .     S
O173   Zn176   1.929   .     S
C178   O227    1.268   .     A
C178   O229    1.268   .     A
C178   C184    1.437   .     S
C179   C193    1.386   .     A
C179   H211    1.082   .     S
C179   C201    1.401   .     A
C180   Cl205   1.767   .     S
C180   C192    1.406   .     A
C180   C193    1.401   .     A
C181   O230    1.277   .     A
C181   C183    1.454   .     S
C181   O228    1.280   .     A
C182   C191    1.492   .     S
C182   C194    1.421   .     A
C182   C200    1.427   .     A
C183   C243    1.334   .     S
C183   H272    1.088   .     S
C184   C301    1.334   1_455 S
C184   H326    1.086   1_455 S
C185   C188    1.451   .     S
C185   C363    1.331   .     S
C185   H386    1.088   .     S
C186   C187    1.435   .     S
C187   O225    1.275   .     A
C187   O231    1.275   .     A
C188   O226    1.270   .     A
C188   O232    1.269   .     A
C189   C194    1.393   .     A
C189   H212    1.083   .     S
C189   C729    1.387   .     S
C190   C193    1.455   .     S
C190   O218    1.274   .     A
C190   O220    1.276   .     A
C191   O219    1.279   .     A
C191   O221    1.293   .     A
C192   C733    1.425   1_554 S
C192   Cl737   1.771   1_554 S
C194   C196    1.486   .     S
C195   H214    1.085   .     S
C195   O222    1.221   .     D
C195   C203    1.485   .     S
C196   O223    1.221   .     D
C196   H215    1.084   .     S
C197   C204    1.496   .     S
C197   O224    1.221   .     D
C197   H216    1.084   .     S
C198   Cl207   1.769   .     S
C198   C720    1.387   1_554 S
C198   C730    1.423   1_554 S
C199   C200    1.421   .     A
C199   C729    1.423   .     S
C199   C732    1.415   .     S
C200   C204    1.426   .     A
C201   C730    1.415   1_554 S
C201   C733    1.418   1_554 S
C202   C203    1.420   .     A
C202   C732    1.418   .     S
C202   C723    1.425   .     S
C203   C204    1.417   .     A
Cl206  C723    1.771   .     S
H208   C243    1.086   .     S
H210   C363    1.086   .     S
H213   C301    1.088   1_455 S
O217   Zn235   1.935   .     S
O217   Zn236   1.928   .     S
O217   Zn234   1.941   .     S
O217   Zn233   1.956   .     S
O218   Zn234   1.925   .     S
O219   Zn236   1.934   .     S
O220   Zn235   1.928   .     S
O221   Zn233   1.920   .     S
O225   Zn233   1.928   .     S
O226   Zn236   1.933   .     S
O227   Zn234   1.927   .     S
O228   Zn235   1.936   .     S
O229   Zn236   1.933   .     S
O230   Zn233   1.926   .     S
O231   Zn234   1.936   .     S
O232   Zn235   1.929   .     S
C237   O286    1.268   .     A
C237   O288    1.268   .     A
C237   C243    1.437   .     S
C238   C252    1.386   .     A
C238   H270    1.082   .     S
C238   C260    1.401   .     A
C239   Cl264   1.767   .     S
C239   C251    1.406   .     A
C239   C252    1.401   .     A
C240   O289    1.277   .     A
C240   C242    1.454   .     S
C240   O287    1.280   .     A
C241   C250    1.492   .     S
C241   C253    1.421   .     A
C241   C259    1.427   .     A
C242   C302    1.334   .     S
C242   H331    1.088   .     S
C244   C247    1.451   .     S
C244   C422    1.331   .     S
C244   H445    1.088   .     S
C245   C246    1.435   .     S
C246   O284    1.275   .     A
C246   O290    1.275   .     A
C247   O285    1.270   .     A
C247   O291    1.269   .     A
C248   C253    1.393   .     A
C248   H271    1.083   .     S
C248   C788    1.387   .     S
C249   C252    1.455   .     S
C249   O277    1.274   .     A
C249   O279    1.276   .     A
C250   O278    1.279   .     A
C250   O280    1.293   .     A
C251   C792    1.425   1_554 S
C251   Cl796   1.771   1_554 S
C253   C255    1.486   .     S
C254   H273    1.085   .     S
C254   O281    1.221   .     D
C254   C262    1.485   .     S
C255   O282    1.221   .     D
C255   H274    1.084   .     S
C256   C263    1.496   .     S
C256   O283    1.221   .     D
C256   H275    1.084   .     S
C257   Cl266   1.769   .     S
C257   C779    1.387   1_554 S
C257   C789    1.423   1_554 S
C258   C259    1.421   .     A
C258   C788    1.423   .     S
C258   C791    1.415   .     S
C259   C263    1.426   .     A
C260   C789    1.415   1_554 S
C260   C792    1.418   1_554 S
C261   C262    1.420   .     A
C261   C791    1.418   .     S
C261   C782    1.425   .     S
C262   C263    1.417   .     A
Cl265  C782    1.771   .     S
H267   C302    1.086   .     S
H269   C422    1.086   .     S
O276   Zn294   1.935   .     S
O276   Zn295   1.928   .     S
O276   Zn293   1.941   .     S
O276   Zn292   1.956   .     S
O277   Zn293   1.925   .     S
O278   Zn295   1.934   .     S
O279   Zn294   1.928   .     S
O280   Zn292   1.920   .     S
O284   Zn292   1.928   .     S
O285   Zn295   1.933   .     S
O286   Zn293   1.927   .     S
O287   Zn294   1.936   .     S
O288   Zn295   1.933   .     S
O289   Zn292   1.926   .     S
O290   Zn293   1.936   .     S
O291   Zn294   1.929   .     S
C296   O345    1.268   .     A
C296   O347    1.268   .     A
C296   C302    1.437   .     S
C297   C311    1.386   .     A
C297   H329    1.082   .     S
C297   C319    1.401   .     A
C298   Cl323   1.767   .     S
C298   C310    1.406   .     A
C298   C311    1.401   .     A
C299   O348    1.277   .     A
C299   C301    1.454   .     S
C299   O346    1.280   .     A
C300   C309    1.492   .     S
C300   C312    1.421   .     A
C300   C318    1.427   .     A
C301   C184    1.334   1_655 S
C301   H213    1.088   1_655 S
C303   C306    1.451   .     S
C303   C481    1.331   .     S
C303   H504    1.088   .     S
C304   C305    1.435   .     S
C305   O343    1.275   .     A
C305   O349    1.275   .     A
C306   O344    1.270   .     A
C306   O350    1.269   .     A
C307   C312    1.393   .     A
C307   H330    1.083   .     S
C307   C847    1.387   .     S
C308   C311    1.455   .     S
C308   O336    1.274   .     A
C308   O338    1.276   .     A
C309   O337    1.279   .     A
C309   O339    1.293   .     A
C310   C851    1.425   1_554 S
C310   Cl855   1.771   1_554 S
C312   C314    1.486   .     S
C313   H332    1.085   .     S
C313   O340    1.221   .     D
C313   C321    1.485   .     S
C314   O341    1.221   .     D
C314   H333    1.084   .     S
C315   C322    1.496   .     S
C315   O342    1.221   .     D
C315   H334    1.084   .     S
C316   Cl325   1.769   .     S
C316   C838    1.387   1_554 S
C316   C848    1.423   1_554 S
C317   C318    1.421   .     A
C317   C847    1.423   .     S
C317   C850    1.415   .     S
C318   C322    1.426   .     A
C319   C848    1.415   1_554 S
C319   C851    1.418   1_554 S
C320   C321    1.420   .     A
C320   C850    1.418   .     S
C320   C841    1.425   .     S
C321   C322    1.417   .     A
Cl324  C841    1.771   .     S
H326   C184    1.086   1_655 S
H328   C481    1.086   .     S
O335   Zn353   1.935   .     S
O335   Zn354   1.928   .     S
O335   Zn352   1.941   .     S
O335   Zn351   1.956   .     S
O336   Zn352   1.925   .     S
O337   Zn354   1.934   .     S
O338   Zn353   1.928   .     S
O339   Zn351   1.920   .     S
O343   Zn351   1.928   .     S
O344   Zn354   1.933   .     S
O345   Zn352   1.927   .     S
O346   Zn353   1.936   .     S
O347   Zn354   1.933   .     S
O348   Zn351   1.926   .     S
O349   Zn352   1.936   .     S
O350   Zn353   1.929   .     S
C355   O404    1.268   .     A
C355   O406    1.268   .     A
C355   C361    1.437   .     S
C356   C370    1.386   .     A
C356   H388    1.082   .     S
C356   C378    1.401   .     A
C357   Cl382   1.767   .     S
C357   C369    1.406   .     A
C357   C370    1.401   .     A
C358   O407    1.277   .     A
C358   C360    1.454   .     S
C358   O405    1.280   .     A
C359   C368    1.492   .     S
C359   C371    1.421   .     A
C359   C377    1.427   .     A
C360   C420    1.334   .     S
C360   H449    1.088   .     S
C361   C478    1.334   1_455 S
C361   H503    1.086   1_455 S
C362   C365    1.451   .     S
C362   C9      1.331   1_565 S
C362   H32     1.088   1_565 S
C363   C364    1.435   .     S
C364   O402    1.275   .     A
C364   O408    1.275   .     A
C365   O403    1.270   .     A
C365   O409    1.269   .     A
C366   C371    1.393   .     A
C366   H389    1.083   .     S
C366   C906    1.387   .     S
C367   C370    1.455   .     S
C367   O395    1.274   .     A
C367   O397    1.276   .     A
C368   O396    1.279   .     A
C368   O398    1.293   .     A
C369   C910    1.425   1_554 S
C369   Cl914   1.771   1_554 S
C371   C373    1.486   .     S
C372   H391    1.085   .     S
C372   O399    1.221   .     D
C372   C380    1.485   .     S
C373   O400    1.221   .     D
C373   H392    1.084   .     S
C374   C381    1.496   .     S
C374   O401    1.221   .     D
C374   H393    1.084   .     S
C375   Cl384   1.769   .     S
C375   C897    1.387   1_554 S
C375   C907    1.423   1_554 S
C376   C377    1.421   .     A
C376   C906    1.423   .     S
C376   C909    1.415   .     S
C377   C381    1.426   .     A
C378   C907    1.415   1_554 S
C378   C910    1.418   1_554 S
C379   C380    1.420   .     A
C379   C909    1.418   .     S
C379   C900    1.425   .     S
C380   C381    1.417   .     A
Cl383  C900    1.771   .     S
H385   C420    1.086   .     S
H387   C9      1.086   1_565 S
H390   C478    1.088   1_455 S
O394   Zn412   1.935   .     S
O394   Zn413   1.928   .     S
O394   Zn411   1.941   .     S
O394   Zn410   1.956   .     S
O395   Zn411   1.925   .     S
O396   Zn413   1.934   .     S
O397   Zn412   1.928   .     S
O398   Zn410   1.920   .     S
O402   Zn410   1.928   .     S
O403   Zn413   1.933   .     S
O404   Zn411   1.927   .     S
O405   Zn412   1.936   .     S
O406   Zn413   1.933   .     S
O407   Zn410   1.926   .     S
O408   Zn411   1.936   .     S
O409   Zn412   1.929   .     S
C414   O463    1.268   .     A
C414   O465    1.268   .     A
C414   C420    1.437   .     S
C415   C429    1.386   .     A
C415   H447    1.082   .     S
C415   C437    1.401   .     A
C416   Cl441   1.767   .     S
C416   C428    1.406   .     A
C416   C429    1.401   .     A
C417   O466    1.277   .     A
C417   C419    1.454   .     S
C417   O464    1.280   .     A
C418   C427    1.492   .     S
C418   C430    1.421   .     A
C418   C436    1.427   .     A
C419   C479    1.334   .     S
C419   H508    1.088   .     S
C421   C424    1.451   .     S
C421   C68     1.331   1_565 S
C421   H91     1.088   1_565 S
C422   C423    1.435   .     S
C423   O461    1.275   .     A
C423   O467    1.275   .     A
C424   O462    1.270   .     A
C424   O468    1.269   .     A
C425   C430    1.393   .     A
C425   H448    1.083   .     S
C425   C965    1.387   .     S
C426   C429    1.455   .     S
C426   O454    1.274   .     A
C426   O456    1.276   .     A
C427   O455    1.279   .     A
C427   O457    1.293   .     A
C428   C969    1.425   1_554 S
C428   Cl973   1.771   1_554 S
C430   C432    1.486   .     S
C431   H450    1.085   .     S
C431   O458    1.221   .     D
C431   C439    1.485   .     S
C432   O459    1.221   .     D
C432   H451    1.084   .     S
C433   C440    1.496   .     S
C433   O460    1.221   .     D
C433   H452    1.084   .     S
C434   Cl443   1.769   .     S
C434   C956    1.387   1_554 S
C434   C966    1.423   1_554 S
C435   C436    1.421   .     A
C435   C965    1.423   .     S
C435   C968    1.415   .     S
C436   C440    1.426   .     A
C437   C966    1.415   1_554 S
C437   C969    1.418   1_554 S
C438   C439    1.420   .     A
C438   C968    1.418   .     S
C438   C959    1.425   .     S
C439   C440    1.417   .     A
Cl442  C959    1.771   .     S
H444   C479    1.086   .     S
H446   C68     1.086   1_565 S
O453   Zn471   1.935   .     S
O453   Zn472   1.928   .     S
O453   Zn470   1.941   .     S
O453   Zn469   1.956   .     S
O454   Zn470   1.925   .     S
O455   Zn472   1.934   .     S
O456   Zn471   1.928   .     S
O457   Zn469   1.920   .     S
O461   Zn469   1.928   .     S
O462   Zn472   1.933   .     S
O463   Zn470   1.927   .     S
O464   Zn471   1.936   .     S
O465   Zn472   1.933   .     S
O466   Zn469   1.926   .     S
O467   Zn470   1.936   .     S
O468   Zn471   1.929   .     S
C473   O522    1.268   .     A
C473   O524    1.268   .     A
C473   C479    1.437   .     S
C474   C488    1.386   .     A
C474   H506    1.082   .     S
C474   C496    1.401   .     A
C475   Cl500   1.767   .     S
C475   C487    1.406   .     A
C475   C488    1.401   .     A
C476   O525    1.277   .     A
C476   C478    1.454   .     S
C476   O523    1.280   .     A
C477   C486    1.492   .     S
C477   C489    1.421   .     A
C477   C495    1.427   .     A
C478   C361    1.334   1_655 S
C478   H390    1.088   1_655 S
C480   C483    1.451   .     S
C480   C127    1.331   1_565 S
C480   H150    1.088   1_565 S
C481   C482    1.435   .     S
C482   O520    1.275   .     A
C482   O526    1.275   .     A
C483   O521    1.270   .     A
C483   O527    1.269   .     A
C484   C489    1.393   .     A
C484   H507    1.083   .     S
C484   C1024   1.387   .     S
C485   C488    1.455   .     S
C485   O513    1.274   .     A
C485   O515    1.276   .     A
C486   O514    1.279   .     A
C486   O516    1.293   .     A
C487   C1028   1.425   1_554 S
C487   Cl1032  1.771   1_554 S
C489   C491    1.486   .     S
C490   H509    1.085   .     S
C490   O517    1.221   .     D
C490   C498    1.485   .     S
C491   O518    1.221   .     D
C491   H510    1.084   .     S
C492   C499    1.496   .     S
C492   O519    1.221   .     D
C492   H511    1.084   .     S
C493   Cl502   1.769   .     S
C493   C1015   1.387   1_554 S
C493   C1025   1.423   1_554 S
C494   C495    1.421   .     A
C494   C1024   1.423   .     S
C494   C1027   1.415   .     S
C495   C499    1.426   .     A
C496   C1025   1.415   1_554 S
C496   C1028   1.418   1_554 S
C497   C498    1.420   .     A
C497   C1027   1.418   .     S
C497   C1018   1.425   .     S
C498   C499    1.417   .     A
Cl501  C1018   1.771   .     S
H503   C361    1.086   1_655 S
H505   C127    1.086   1_565 S
O512   Zn530   1.935   .     S
O512   Zn531   1.928   .     S
O512   Zn529   1.941   .     S
O512   Zn528   1.956   .     S
O513   Zn529   1.925   .     S
O514   Zn531   1.934   .     S
O515   Zn530   1.928   .     S
O516   Zn528   1.920   .     S
O520   Zn528   1.928   .     S
O521   Zn531   1.933   .     S
O522   Zn529   1.927   .     S
O523   Zn530   1.936   .     S
O524   Zn531   1.933   .     S
O525   Zn528   1.926   .     S
O526   Zn529   1.936   .     S
O527   Zn530   1.929   .     S
C532   O581    1.268   .     A
C532   O583    1.268   .     A
C532   C538    1.437   .     S
C533   C547    1.386   .     A
C533   H565    1.082   .     S
C533   C555    1.401   .     A
C534   Cl559   1.767   .     S
C534   C546    1.406   .     A
C534   C547    1.401   .     A
C535   O584    1.277   .     A
C535   C537    1.454   .     S
C535   O582    1.280   .     A
C536   C545    1.492   .     S
C536   C548    1.421   .     A
C536   C554    1.427   .     A
C537   C597    1.334   .     S
C537   H626    1.088   .     S
C538   C655    1.334   1_455 S
C538   H680    1.086   1_455 S
C539   C542    1.451   .     S
C539   C717    1.331   .     S
C539   H740    1.088   .     S
C540   C541    1.435   .     S
C540   C893    1.331   1_545 S
C540   H918    1.086   1_545 S
C541   O579    1.275   .     A
C541   O585    1.275   .     A
C542   O580    1.270   .     A
C542   O586    1.269   .     A
C543   C548    1.393   .     A
C543   H566    1.083   .     S
C543   C21     1.387   1_556 S
C544   C547    1.455   .     S
C544   O572    1.274   .     A
C544   O574    1.276   .     A
C545   O573    1.279   .     A
C545   O575    1.293   .     A
C548   C550    1.486   .     S
C549   H568    1.085   .     S
C549   O576    1.221   .     D
C549   C557    1.485   .     S
C550   O577    1.221   .     D
C550   H569    1.084   .     S
C551   C558    1.496   .     S
C551   O578    1.221   .     D
C551   H570    1.084   .     S
C552   Cl561   1.769   .     S
C553   C554    1.421   .     A
C553   C21     1.423   1_556 S
C553   C24     1.415   1_556 S
C554   C558    1.426   .     A
C556   C557    1.420   .     A
C556   C24     1.418   1_556 S
C556   C15     1.425   1_556 S
C557   C558    1.417   .     A
Cl560  C15     1.771   1_556 S
H562   C597    1.086   .     S
H563   C893    1.088   1_545 S
H564   C717    1.086   .     S
H567   C655    1.088   1_455 S
O571   Zn589   1.935   .     S
O571   Zn590   1.928   .     S
O571   Zn588   1.941   .     S
O571   Zn587   1.956   .     S
O572   Zn588   1.925   .     S
O573   Zn590   1.934   .     S
O574   Zn589   1.928   .     S
O575   Zn587   1.920   .     S
O579   Zn587   1.928   .     S
O580   Zn590   1.933   .     S
O581   Zn588   1.927   .     S
O582   Zn589   1.936   .     S
O583   Zn590   1.933   .     S
O584   Zn587   1.926   .     S
O585   Zn588   1.936   .     S
O586   Zn589   1.929   .     S
C591   O640    1.268   .     A
C591   O642    1.268   .     A
C591   C597    1.437   .     S
C592   C606    1.386   .     A
C592   H624    1.082   .     S
C592   C614    1.401   .     A
C593   Cl618   1.767   .     S
C593   C605    1.406   .     A
C593   C606    1.401   .     A
C594   O643    1.277   .     A
C594   C596    1.454   .     S
C594   O641    1.280   .     A
C595   C604    1.492   .     S
C595   C607    1.421   .     A
C595   C613    1.427   .     A
C596   C656    1.334   .     S
C596   H685    1.088   .     S
C598   C601    1.451   .     S
C598   C776    1.331   .     S
C598   H799    1.088   .     S
C599   C600    1.435   .     S
C599   C952    1.331   1_545 S
C599   H977    1.086   1_545 S
C600   O638    1.275   .     A
C600   O644    1.275   .     A
C601   O639    1.270   .     A
C601   O645    1.269   .     A
C602   C607    1.393   .     A
C602   H625    1.083   .     S
C602   C80     1.387   1_556 S
C603   C606    1.455   .     S
C603   O631    1.274   .     A
C603   O633    1.276   .     A
C604   O632    1.279   .     A
C604   O634    1.293   .     A
C607   C609    1.486   .     S
C608   H627    1.085   .     S
C608   O635    1.221   .     D
C608   C616    1.485   .     S
C609   O636    1.221   .     D
C609   H628    1.084   .     S
C610   C617    1.496   .     S
C610   O637    1.221   .     D
C610   H629    1.084   .     S
C611   Cl620   1.769   .     S
C612   C613    1.421   .     A
C612   C80     1.423   1_556 S
C612   C83     1.415   1_556 S
C613   C617    1.426   .     A
C615   C616    1.420   .     A
C615   C83     1.418   1_556 S
C615   C74     1.425   1_556 S
C616   C617    1.417   .     A
Cl619  C74     1.771   1_556 S
H621   C656    1.086   .     S
H622   C952    1.088   1_545 S
H623   C776    1.086   .     S
O630   Zn648   1.935   .     S
O630   Zn649   1.928   .     S
O630   Zn647   1.941   .     S
O630   Zn646   1.956   .     S
O631   Zn647   1.925   .     S
O632   Zn649   1.934   .     S
O633   Zn648   1.928   .     S
O634   Zn646   1.920   .     S
O638   Zn646   1.928   .     S
O639   Zn649   1.933   .     S
O640   Zn647   1.927   .     S
O641   Zn648   1.936   .     S
O642   Zn649   1.933   .     S
O643   Zn646   1.926   .     S
O644   Zn647   1.936   .     S
O645   Zn648   1.929   .     S
C650   O699    1.268   .     A
C650   O701    1.268   .     A
C650   C656    1.437   .     S
C651   C665    1.386   .     A
C651   H683    1.082   .     S
C651   C673    1.401   .     A
C652   Cl677   1.767   .     S
C652   C664    1.406   .     A
C652   C665    1.401   .     A
C653   O702    1.277   .     A
C653   C655    1.454   .     S
C653   O700    1.280   .     A
C654   C663    1.492   .     S
C654   C666    1.421   .     A
C654   C672    1.427   .     A
C655   C538    1.334   1_655 S
C655   H567    1.088   1_655 S
C657   C660    1.451   .     S
C657   C835    1.331   .     S
C657   H858    1.088   .     S
C658   C659    1.435   .     S
C658   C1011   1.331   1_545 S
C658   H1036   1.086   1_545 S
C659   O697    1.275   .     A
C659   O703    1.275   .     A
C660   O698    1.270   .     A
C660   O704    1.269   .     A
C661   C666    1.393   .     A
C661   H684    1.083   .     S
C661   C139    1.387   1_556 S
C662   C665    1.455   .     S
C662   O690    1.274   .     A
C662   O692    1.276   .     A
C663   O691    1.279   .     A
C663   O693    1.293   .     A
C666   C668    1.486   .     S
C667   H686    1.085   .     S
C667   O694    1.221   .     D
C667   C675    1.485   .     S
C668   O695    1.221   .     D
C668   H687    1.084   .     S
C669   C676    1.496   .     S
C669   O696    1.221   .     D
C669   H688    1.084   .     S
C670   Cl679   1.769   .     S
C671   C672    1.421   .     A
C671   C139    1.423   1_556 S
C671   C142    1.415   1_556 S
C672   C676    1.426   .     A
C674   C675    1.420   .     A
C674   C142    1.418   1_556 S
C674   C133    1.425   1_556 S
C675   C676    1.417   .     A
Cl678  C133    1.771   1_556 S
H680   C538    1.086   1_655 S
H681   C1011   1.088   1_545 S
H682   C835    1.086   .     S
O689   Zn707   1.935   .     S
O689   Zn708   1.928   .     S
O689   Zn706   1.941   .     S
O689   Zn705   1.956   .     S
O690   Zn706   1.925   .     S
O691   Zn708   1.934   .     S
O692   Zn707   1.928   .     S
O693   Zn705   1.920   .     S
O697   Zn705   1.928   .     S
O698   Zn708   1.933   .     S
O699   Zn706   1.927   .     S
O700   Zn707   1.936   .     S
O701   Zn708   1.933   .     S
O702   Zn705   1.926   .     S
O703   Zn706   1.936   .     S
O704   Zn707   1.929   .     S
C709   O758    1.268   .     A
C709   O760    1.268   .     A
C709   C715    1.437   .     S
C710   C724    1.386   .     A
C710   H742    1.082   .     S
C710   C732    1.401   .     A
C711   Cl736   1.767   .     S
C711   C723    1.406   .     A
C711   C724    1.401   .     A
C712   O761    1.277   .     A
C712   C714    1.454   .     S
C712   O759    1.280   .     A
C713   C722    1.492   .     S
C713   C725    1.421   .     A
C713   C731    1.427   .     A
C714   C774    1.334   .     S
C714   H803    1.088   .     S
C715   C832    1.334   1_455 S
C715   H857    1.086   1_455 S
C716   C719    1.451   .     S
C716   C894    1.331   .     S
C716   H917    1.088   .     S
C717   C718    1.435   .     S
C718   O756    1.275   .     A
C718   O762    1.275   .     A
C719   O757    1.270   .     A
C719   O763    1.269   .     A
C720   C725    1.393   .     A
C720   H743    1.083   .     S
C720   C198    1.387   1_556 S
C721   C724    1.455   .     S
C721   O749    1.274   .     A
C721   O751    1.276   .     A
C722   O750    1.279   .     A
C722   O752    1.293   .     A
C725   C727    1.486   .     S
C726   H745    1.085   .     S
C726   O753    1.221   .     D
C726   C734    1.485   .     S
C727   O754    1.221   .     D
C727   H746    1.084   .     S
C728   C735    1.496   .     S
C728   O755    1.221   .     D
C728   H747    1.084   .     S
C729   Cl738   1.769   .     S
C730   C731    1.421   .     A
C730   C198    1.423   1_556 S
C730   C201    1.415   1_556 S
C731   C735    1.426   .     A
C733   C734    1.420   .     A
C733   C201    1.418   1_556 S
C733   C192    1.425   1_556 S
C734   C735    1.417   .     A
Cl737  C192    1.771   1_556 S
H739   C774    1.086   .     S
H741   C894    1.086   .     S
H744   C832    1.088   1_455 S
O748   Zn766   1.935   .     S
O748   Zn767   1.928   .     S
O748   Zn765   1.941   .     S
O748   Zn764   1.956   .     S
O749   Zn765   1.925   .     S
O750   Zn767   1.934   .     S
O751   Zn766   1.928   .     S
O752   Zn764   1.920   .     S
O756   Zn764   1.928   .     S
O757   Zn767   1.933   .     S
O758   Zn765   1.927   .     S
O759   Zn766   1.936   .     S
O760   Zn767   1.933   .     S
O761   Zn764   1.926   .     S
O762   Zn765   1.936   .     S
O763   Zn766   1.929   .     S
C768   O817    1.268   .     A
C768   O819    1.268   .     A
C768   C774    1.437   .     S
C769   C783    1.386   .     A
C769   H801    1.082   .     S
C769   C791    1.401   .     A
C770   Cl795   1.767   .     S
C770   C782    1.406   .     A
C770   C783    1.401   .     A
C771   O820    1.277   .     A
C771   C773    1.454   .     S
C771   O818    1.280   .     A
C772   C781    1.492   .     S
C772   C784    1.421   .     A
C772   C790    1.427   .     A
C773   C833    1.334   .     S
C773   H862    1.088   .     S
C775   C778    1.451   .     S
C775   C953    1.331   .     S
C775   H976    1.088   .     S
C776   C777    1.435   .     S
C777   O815    1.275   .     A
C777   O821    1.275   .     A
C778   O816    1.270   .     A
C778   O822    1.269   .     A
C779   C784    1.393   .     A
C779   H802    1.083   .     S
C779   C257    1.387   1_556 S
C780   C783    1.455   .     S
C780   O808    1.274   .     A
C780   O810    1.276   .     A
C781   O809    1.279   .     A
C781   O811    1.293   .     A
C784   C786    1.486   .     S
C785   H804    1.085   .     S
C785   O812    1.221   .     D
C785   C793    1.485   .     S
C786   O813    1.221   .     D
C786   H805    1.084   .     S
C787   C794    1.496   .     S
C787   O814    1.221   .     D
C787   H806    1.084   .     S
C788   Cl797   1.769   .     S
C789   C790    1.421   .     A
C789   C257    1.423   1_556 S
C789   C260    1.415   1_556 S
C790   C794    1.426   .     A
C792   C793    1.420   .     A
C792   C260    1.418   1_556 S
C792   C251    1.425   1_556 S
C793   C794    1.417   .     A
Cl796  C251    1.771   1_556 S
H798   C833    1.086   .     S
H800   C953    1.086   .     S
O807   Zn825   1.935   .     S
O807   Zn826   1.928   .     S
O807   Zn824   1.941   .     S
O807   Zn823   1.956   .     S
O808   Zn824   1.925   .     S
O809   Zn826   1.934   .     S
O810   Zn825   1.928   .     S
O811   Zn823   1.920   .     S
O815   Zn823   1.928   .     S
O816   Zn826   1.933   .     S
O817   Zn824   1.927   .     S
O818   Zn825   1.936   .     S
O819   Zn826   1.933   .     S
O820   Zn823   1.926   .     S
O821   Zn824   1.936   .     S
O822   Zn825   1.929   .     S
C827   O876    1.268   .     A
C827   O878    1.268   .     A
C827   C833    1.437   .     S
C828   C842    1.386   .     A
C828   H860    1.082   .     S
C828   C850    1.401   .     A
C829   Cl854   1.767   .     S
C829   C841    1.406   .     A
C829   C842    1.401   .     A
C830   O879    1.277   .     A
C830   C832    1.454   .     S
C830   O877    1.280   .     A
C831   C840    1.492   .     S
C831   C843    1.421   .     A
C831   C849    1.427   .     A
C832   C715    1.334   1_655 S
C832   H744    1.088   1_655 S
C834   C837    1.451   .     S
C834   C1012   1.331   .     S
C834   H1035   1.088   .     S
C835   C836    1.435   .     S
C836   O874    1.275   .     A
C836   O880    1.275   .     A
C837   O875    1.270   .     A
C837   O881    1.269   .     A
C838   C843    1.393   .     A
C838   H861    1.083   .     S
C838   C316    1.387   1_556 S
C839   C842    1.455   .     S
C839   O867    1.274   .     A
C839   O869    1.276   .     A
C840   O868    1.279   .     A
C840   O870    1.293   .     A
C843   C845    1.486   .     S
C844   H863    1.085   .     S
C844   O871    1.221   .     D
C844   C852    1.485   .     S
C845   O872    1.221   .     D
C845   H864    1.084   .     S
C846   C853    1.496   .     S
C846   O873    1.221   .     D
C846   H865    1.084   .     S
C847   Cl856   1.769   .     S
C848   C849    1.421   .     A
C848   C316    1.423   1_556 S
C848   C319    1.415   1_556 S
C849   C853    1.426   .     A
C851   C852    1.420   .     A
C851   C319    1.418   1_556 S
C851   C310    1.425   1_556 S
C852   C853    1.417   .     A
Cl855  C310    1.771   1_556 S
H857   C715    1.086   1_655 S
H859   C1012   1.086   .     S
O866   Zn884   1.935   .     S
O866   Zn885   1.928   .     S
O866   Zn883   1.941   .     S
O866   Zn882   1.956   .     S
O867   Zn883   1.925   .     S
O868   Zn885   1.934   .     S
O869   Zn884   1.928   .     S
O870   Zn882   1.920   .     S
O874   Zn882   1.928   .     S
O875   Zn885   1.933   .     S
O876   Zn883   1.927   .     S
O877   Zn884   1.936   .     S
O878   Zn885   1.933   .     S
O879   Zn882   1.926   .     S
O880   Zn883   1.936   .     S
O881   Zn884   1.929   .     S
C886   O935    1.268   .     A
C886   O937    1.268   .     A
C886   C892    1.437   .     S
C887   C901    1.386   .     A
C887   H919    1.082   .     S
C887   C909    1.401   .     A
C888   Cl913   1.767   .     S
C888   C900    1.406   .     A
C888   C901    1.401   .     A
C889   O938    1.277   .     A
C889   C891    1.454   .     S
C889   O936    1.280   .     A
C890   C899    1.492   .     S
C890   C902    1.421   .     A
C890   C908    1.427   .     A
C891   C951    1.334   .     S
C891   H980    1.088   .     S
C892   C1009   1.334   1_455 S
C892   H1034   1.086   1_455 S
C893   C896    1.451   .     S
C893   C540    1.331   1_565 S
C893   H563    1.088   1_565 S
C894   C895    1.435   .     S
C895   O933    1.275   .     A
C895   O939    1.275   .     A
C896   O934    1.270   .     A
C896   O940    1.269   .     A
C897   C902    1.393   .     A
C897   H920    1.083   .     S
C897   C375    1.387   1_556 S
C898   C901    1.455   .     S
C898   O926    1.274   .     A
C898   O928    1.276   .     A
C899   O927    1.279   .     A
C899   O929    1.293   .     A
C902   C904    1.486   .     S
C903   H922    1.085   .     S
C903   O930    1.221   .     D
C903   C911    1.485   .     S
C904   O931    1.221   .     D
C904   H923    1.084   .     S
C905   C912    1.496   .     S
C905   O932    1.221   .     D
C905   H924    1.084   .     S
C906   Cl915   1.769   .     S
C907   C908    1.421   .     A
C907   C375    1.423   1_556 S
C907   C378    1.415   1_556 S
C908   C912    1.426   .     A
C910   C911    1.420   .     A
C910   C378    1.418   1_556 S
C910   C369    1.425   1_556 S
C911   C912    1.417   .     A
Cl914  C369    1.771   1_556 S
H916   C951    1.086   .     S
H918   C540    1.086   1_565 S
H921   C1009   1.088   1_455 S
O925   Zn943   1.935   .     S
O925   Zn944   1.928   .     S
O925   Zn942   1.941   .     S
O925   Zn941   1.956   .     S
O926   Zn942   1.925   .     S
O927   Zn944   1.934   .     S
O928   Zn943   1.928   .     S
O929   Zn941   1.920   .     S
O933   Zn941   1.928   .     S
O934   Zn944   1.933   .     S
O935   Zn942   1.927   .     S
O936   Zn943   1.936   .     S
O937   Zn944   1.933   .     S
O938   Zn941   1.926   .     S
O939   Zn942   1.936   .     S
O940   Zn943   1.929   .     S
C945   O994    1.268   .     A
C945   O996    1.268   .     A
C945   C951    1.437   .     S
C946   C960    1.386   .     A
C946   H978    1.082   .     S
C946   C968    1.401   .     A
C947   Cl972   1.767   .     S
C947   C959    1.406   .     A
C947   C960    1.401   .     A
C948   O997    1.277   .     A
C948   C950    1.454   .     S
C948   O995    1.280   .     A
C949   C958    1.492   .     S
C949   C961    1.421   .     A
C949   C967    1.427   .     A
C950   C1010   1.334   .     S
C950   H1039   1.088   .     S
C952   C955    1.451   .     S
C952   C599    1.331   1_565 S
C952   H622    1.088   1_565 S
C953   C954    1.435   .     S
C954   O992    1.275   .     A
C954   O998    1.275   .     A
C955   O993    1.270   .     A
C955   O999    1.269   .     A
C956   C961    1.393   .     A
C956   H979    1.083   .     S
C956   C434    1.387   1_556 S
C957   C960    1.455   .     S
C957   O985    1.274   .     A
C957   O987    1.276   .     A
C958   O986    1.279   .     A
C958   O988    1.293   .     A
C961   C963    1.486   .     S
C962   H981    1.085   .     S
C962   O989    1.221   .     D
C962   C970    1.485   .     S
C963   O990    1.221   .     D
C963   H982    1.084   .     S
C964   C971    1.496   .     S
C964   O991    1.221   .     D
C964   H983    1.084   .     S
C965   Cl974   1.769   .     S
C966   C967    1.421   .     A
C966   C434    1.423   1_556 S
C966   C437    1.415   1_556 S
C967   C971    1.426   .     A
C969   C970    1.420   .     A
C969   C437    1.418   1_556 S
C969   C428    1.425   1_556 S
C970   C971    1.417   .     A
Cl973  C428    1.771   1_556 S
H975   C1010   1.086   .     S
H977   C599    1.086   1_565 S
O984   Zn1002  1.935   .     S
O984   Zn1003  1.928   .     S
O984   Zn1001  1.941   .     S
O984   Zn1000  1.956   .     S
O985   Zn1001  1.925   .     S
O986   Zn1003  1.934   .     S
O987   Zn1002  1.928   .     S
O988   Zn1000  1.920   .     S
O992   Zn1000  1.928   .     S
O993   Zn1003  1.933   .     S
O994   Zn1001  1.927   .     S
O995   Zn1002  1.936   .     S
O996   Zn1003  1.933   .     S
O997   Zn1000  1.926   .     S
O998   Zn1001  1.936   .     S
O999   Zn1002  1.929   .     S
C1004  O1053   1.268   .     A
C1004  O1055   1.268   .     A
C1004  C1010   1.437   .     S
C1005  C1019   1.386   .     A
C1005  H1037   1.082   .     S
C1005  C1027   1.401   .     A
C1006  Cl1031  1.767   .     S
C1006  C1018   1.406   .     A
C1006  C1019   1.401   .     A
C1007  O1056   1.277   .     A
C1007  C1009   1.454   .     S
C1007  O1054   1.280   .     A
C1008  C1017   1.492   .     S
C1008  C1020   1.421   .     A
C1008  C1026   1.427   .     A
C1009  C892    1.334   1_655 S
C1009  H921    1.088   1_655 S
C1011  C1014   1.451   .     S
C1011  C658    1.331   1_565 S
C1011  H681    1.088   1_565 S
C1012  C1013   1.435   .     S
C1013  O1051   1.275   .     A
C1013  O1057   1.275   .     A
C1014  O1052   1.270   .     A
C1014  O1058   1.269   .     A
C1015  C1020   1.393   .     A
C1015  H1038   1.083   .     S
C1015  C493    1.387   1_556 S
C1016  C1019   1.455   .     S
C1016  O1044   1.274   .     A
C1016  O1046   1.276   .     A
C1017  O1045   1.279   .     A
C1017  O1047   1.293   .     A
C1020  C1022   1.486   .     S
C1021  H1040   1.085   .     S
C1021  O1048   1.221   .     D
C1021  C1029   1.485   .     S
C1022  O1049   1.221   .     D
C1022  H1041   1.084   .     S
C1023  C1030   1.496   .     S
C1023  O1050   1.221   .     D
C1023  H1042   1.084   .     S
C1024  Cl1033  1.769   .     S
C1025  C1026   1.421   .     A
C1025  C493    1.423   1_556 S
C1025  C496    1.415   1_556 S
C1026  C1030   1.426   .     A
C1028  C1029   1.420   .     A
C1028  C496    1.418   1_556 S
C1028  C487    1.425   1_556 S
C1029  C1030   1.417   .     A
Cl1032 C487    1.771   1_556 S
H1034  C892    1.086   1_655 S
H1036  C658    1.086   1_565 S
O1043  Zn1061  1.935   .     S
O1043  Zn1062  1.928   .     S
O1043  Zn1060  1.941   .     S
O1043  Zn1059  1.956   .     S
O1044  Zn1060  1.925   .     S
O1045  Zn1062  1.934   .     S
O1046  Zn1061  1.928   .     S
O1047  Zn1059  1.920   .     S
O1051  Zn1059  1.928   .     S
O1052  Zn1062  1.933   .     S
O1053  Zn1060  1.927   .     S
O1054  Zn1061  1.936   .     S
O1055  Zn1062  1.933   .     S
O1056  Zn1059  1.926   .     S
O1057  Zn1060  1.936   .     S
O1058  Zn1061  1.929   .     S
