data_str_m1_o10_o16_pcu_sym.77
_audit_creation_date              2020-01-03
_audit_creation_method            'Materials Studio'
_symmetry_space_group_name_H-M    'P1'
_symmetry_Int_Tables_number       1
_symmetry_cell_setting            triclinic
loop_
_symmetry_equiv_pos_as_xyz
  x,y,z
_cell_length_a                    32.4359
_cell_length_b                    32.5157
_cell_length_c                    31.2663
_cell_angle_alpha                 96.8593
_cell_angle_beta                  74.3675
_cell_angle_gamma                 98.9158
loop_
_atom_site_label
_atom_site_type_symbol
_atom_site_fract_x
_atom_site_fract_y
_atom_site_fract_z
_atom_site_U_iso_or_equiv
_atom_site_adp_type
_atom_site_occupancy
Br1    Br    0.26542   0.10474   0.08423   0.00000  Uiso   1.00
Br2    Br    0.22866   0.01423   0.19118   0.00000  Uiso   1.00
Br3    Br    0.29224   0.16072   0.41393   0.00000  Uiso   1.00
Br4    Br    0.01686   0.19260   0.01513   0.00000  Uiso   1.00
Br5    Br    0.03177   0.21937   0.19946   0.00000  Uiso   1.00
C6     C     0.05268   0.15947   0.26008   0.00000  Uiso   1.00
C7     C     0.16105   0.15459   0.06096   0.00000  Uiso   1.00
C8     C     0.22772   0.12572   0.05598   0.00000  Uiso   1.00
C9     C     0.28081   0.17438   0.24021   0.00000  Uiso   1.00
C10    C     0.13611   0.18947   0.42008   0.00000  Uiso   1.00
C11    C     0.32678   0.17956   0.23764   0.00000  Uiso   1.00
C12    C     0.00754   0.15710   0.26274   0.00000  Uiso   1.00
C13    C     0.18091   0.32258   0.23594   0.00000  Uiso   1.00
C14    C     0.15182   0.01172   0.26319   0.00000  Uiso   1.00
C15    C     0.15562   0.05595   0.26046   0.00000  Uiso   1.00
C16    C     0.17664   0.27797   0.24005   0.00000  Uiso   1.00
C17    C     0.07647   0.18857   0.48619   0.00000  Uiso   1.00
C18    C     0.18410   0.14916   0.12943   0.00000  Uiso   1.00
C19    C     0.14867   0.18519   0.37082   0.00000  Uiso   1.00
C20    C     0.23861   0.12543   0.00975   0.00000  Uiso   1.00
C21    C     0.19063   0.14235   0.08139   0.00000  Uiso   1.00
C22    C     0.09388   0.19836   0.44234   0.00000  Uiso   1.00
C23    C     0.26160   0.06912   0.46235   0.00000  Uiso   1.00
C24    C     0.25518   0.03215   0.49065   0.00000  Uiso   1.00
C25    C     0.24609   0.32400   0.46422   0.00000  Uiso   1.00
C26    C     0.09228   0.14813   0.11341   0.00000  Uiso   1.00
C27    C     0.08665   0.10121   0.09682   0.00000  Uiso   1.00
C28    C     0.10131   0.17284   0.00862   0.00000  Uiso   1.00
C29    C     0.04569   0.07825   0.12532   0.00000  Uiso   1.00
C30    C     0.07068   0.25469   0.42418   0.00000  Uiso   1.00
C31    C     0.04213   0.26861   0.39833   0.00000  Uiso   1.00
C32    C     0.04468   0.31611   0.40165   0.00000  Uiso   1.00
C33    C     0.14568   0.16976   0.49001   0.00000  Uiso   1.00
C34    C     0.16304   0.17855   0.44485   0.00000  Uiso   1.00
C35    C     0.17279   0.15623   0.01370   0.00000  Uiso   1.00
C36    C     0.21463   0.14617   0.48918   0.00000  Uiso   1.00
C37    C     0.23224   0.15922   0.44576   0.00000  Uiso   1.00
C38    C     0.20702   0.17653   0.42517   0.00000  Uiso   1.00
H39    H     0.31923   0.13424   0.28367   0.00000  Uiso   1.00
H40    H     0.24142   0.29792   0.48568   0.00000  Uiso   1.00
H41    H     0.27367   0.31936   0.43481   0.00000  Uiso   1.00
H42    H     0.06192   0.16053   0.11461   0.00000  Uiso   1.00
H43    H     0.09377   0.15238   0.14857   0.00000  Uiso   1.00
H44    H     0.08458   0.09746   0.06168   0.00000  Uiso   1.00
H45    H     0.11446   0.08602   0.09852   0.00000  Uiso   1.00
H46    H     0.04719   0.08071   0.16063   0.00000  Uiso   1.00
H47    H     0.04244   0.04472   0.11306   0.00000  Uiso   1.00
H48    H     0.01682   0.09165   0.12336   0.00000  Uiso   1.00
H49    H     0.10468   0.26870   0.41045   0.00000  Uiso   1.00
H50    H     0.12481   0.33096   0.28820   0.00000  Uiso   1.00
H51    H     0.05970   0.26638   0.45986   0.00000  Uiso   1.00
H52    H     0.05259   0.25693   0.36268   0.00000  Uiso   1.00
H53    H     0.00807   0.25506   0.41188   0.00000  Uiso   1.00
H54    H     0.03343   0.32840   0.43696   0.00000  Uiso   1.00
H55    H     0.02372   0.32510   0.38243   0.00000  Uiso   1.00
H56    H     0.07837   0.33037   0.38766   0.00000  Uiso   1.00
H57    H     0.08369   0.16146   0.03958   0.00000  Uiso   1.00
H58    H     0.22257   0.18870   0.39323   0.00000  Uiso   1.00
H59    H     0.28802   0.06419   0.43186   0.00000  Uiso   1.00
H60    H     0.23208   0.06986   0.45074   0.00000  Uiso   1.00
H61    H     0.28473   0.03188   0.00211   0.00000  Uiso   1.00
H62    H     0.22757   0.03552   0.02036   0.00000  Uiso   1.00
H63    H     0.21633   0.32330   0.45286   0.00000  Uiso   1.00
O64    O     0.16667   0.16667   0.25000   0.00000  Uiso   1.00
O65    O     0.15451   0.12637   0.15458   0.00000  Uiso   1.00
O66    O     0.12940   0.20391   0.34968   0.00000  Uiso   1.00
O67    O     0.20824   0.17759   0.14606   0.00000  Uiso   1.00
O68    O     0.17451   0.15880   0.34968   0.00000  Uiso   1.00
O69    O     0.27451   0.10697   0.48569   0.00000  Uiso   1.00
O70    O     0.12677   0.17469   0.08709   0.00000  Uiso   1.00
O71    O     0.06721   0.21061   0.41970   0.00000  Uiso   1.00
O72    O     0.17930   0.08019   0.28213   0.00000  Uiso   1.00
O73    O     0.14632   0.26085   0.27013   0.00000  Uiso   1.00
O74    O     0.07412   0.13291   0.23413   0.00000  Uiso   1.00
O75    O     0.26693   0.19272   0.21360   0.00000  Uiso   1.00
O76    O     0.07071   0.18878   0.28213   0.00000  Uiso   1.00
O77    O     0.25491   0.15226   0.27013   0.00000  Uiso   1.00
O78    O     0.13760   0.06944   0.23413   0.00000  Uiso   1.00
O79    O     0.20345   0.25620   0.21360   0.00000  Uiso   1.00
Zn80   Zn    0.19338   0.13994   0.28734   0.00000  Uiso   1.00
Zn81   Zn    0.13379   0.12458   0.21875   0.00000  Uiso   1.00
Zn82   Zn    0.21056   0.19775   0.20657   0.00000  Uiso   1.00
Zn83   Zn    0.12893   0.20439   0.28733   0.00000  Uiso   1.00
Br84   Br    0.59875   0.10474   0.08423   0.00000  Uiso   1.00
Br85   Br    0.56200   0.01423   0.19118   0.00000  Uiso   1.00
Br86   Br    0.62558   0.16072   0.41393   0.00000  Uiso   1.00
Br87   Br    0.35019   0.19260   0.01513   0.00000  Uiso   1.00
Br88   Br    0.36511   0.21937   0.19946   0.00000  Uiso   1.00
C89    C     0.38601   0.15947   0.26008   0.00000  Uiso   1.00
C90    C     0.49438   0.15459   0.06096   0.00000  Uiso   1.00
C91    C     0.56105   0.12572   0.05598   0.00000  Uiso   1.00
C92    C     0.61414   0.17438   0.24021   0.00000  Uiso   1.00
C93    C     0.46944   0.18947   0.42008   0.00000  Uiso   1.00
C94    C     0.66011   0.17956   0.23764   0.00000  Uiso   1.00
C95    C     0.34087   0.15710   0.26274   0.00000  Uiso   1.00
C96    C     0.51425   0.32258   0.23594   0.00000  Uiso   1.00
C97    C     0.48515   0.01172   0.26319   0.00000  Uiso   1.00
C98    C     0.48895   0.05595   0.26046   0.00000  Uiso   1.00
C99    C     0.50998   0.27797   0.24005   0.00000  Uiso   1.00
C100   C     0.40981   0.18857   0.48619   0.00000  Uiso   1.00
C101   C     0.51743   0.14916   0.12943   0.00000  Uiso   1.00
C102   C     0.48201   0.18519   0.37082   0.00000  Uiso   1.00
C103   C     0.57194   0.12543   0.00975   0.00000  Uiso   1.00
C104   C     0.52396   0.14235   0.08139   0.00000  Uiso   1.00
C105   C     0.42722   0.19836   0.44234   0.00000  Uiso   1.00
C106   C     0.59493   0.06912   0.46235   0.00000  Uiso   1.00
C107   C     0.58851   0.03215   0.49065   0.00000  Uiso   1.00
C108   C     0.57942   0.32400   0.46422   0.00000  Uiso   1.00
C109   C     0.42562   0.14813   0.11341   0.00000  Uiso   1.00
C110   C     0.41998   0.10121   0.09682   0.00000  Uiso   1.00
C111   C     0.43464   0.17284   0.00862   0.00000  Uiso   1.00
C112   C     0.37902   0.07825   0.12532   0.00000  Uiso   1.00
C113   C     0.40401   0.25469   0.42418   0.00000  Uiso   1.00
C114   C     0.37547   0.26861   0.39833   0.00000  Uiso   1.00
C115   C     0.37802   0.31611   0.40165   0.00000  Uiso   1.00
C116   C     0.47901   0.16976   0.49001   0.00000  Uiso   1.00
C117   C     0.49637   0.17855   0.44485   0.00000  Uiso   1.00
C118   C     0.50612   0.15623   0.01370   0.00000  Uiso   1.00
C119   C     0.54797   0.14617   0.48918   0.00000  Uiso   1.00
C120   C     0.56557   0.15922   0.44576   0.00000  Uiso   1.00
C121   C     0.54035   0.17653   0.42517   0.00000  Uiso   1.00
H122   H     0.65256   0.13424   0.28367   0.00000  Uiso   1.00
H123   H     0.57475   0.29792   0.48568   0.00000  Uiso   1.00
H124   H     0.60700   0.31936   0.43481   0.00000  Uiso   1.00
H125   H     0.39525   0.16053   0.11461   0.00000  Uiso   1.00
H126   H     0.42710   0.15238   0.14857   0.00000  Uiso   1.00
H127   H     0.41791   0.09746   0.06168   0.00000  Uiso   1.00
H128   H     0.44779   0.08602   0.09852   0.00000  Uiso   1.00
H129   H     0.38053   0.08071   0.16063   0.00000  Uiso   1.00
H130   H     0.37577   0.04472   0.11306   0.00000  Uiso   1.00
H131   H     0.35015   0.09165   0.12336   0.00000  Uiso   1.00
H132   H     0.43801   0.26870   0.41045   0.00000  Uiso   1.00
H133   H     0.45814   0.33096   0.28820   0.00000  Uiso   1.00
H134   H     0.39303   0.26638   0.45986   0.00000  Uiso   1.00
H135   H     0.38592   0.25693   0.36268   0.00000  Uiso   1.00
H136   H     0.34140   0.25506   0.41188   0.00000  Uiso   1.00
H137   H     0.36677   0.32840   0.43696   0.00000  Uiso   1.00
H138   H     0.35705   0.32510   0.38243   0.00000  Uiso   1.00
H139   H     0.41170   0.33037   0.38766   0.00000  Uiso   1.00
H140   H     0.41703   0.16146   0.03958   0.00000  Uiso   1.00
H141   H     0.55590   0.18870   0.39323   0.00000  Uiso   1.00
H142   H     0.62135   0.06419   0.43186   0.00000  Uiso   1.00
H143   H     0.56541   0.06986   0.45074   0.00000  Uiso   1.00
H144   H     0.61806   0.03188   0.00211   0.00000  Uiso   1.00
H145   H     0.56091   0.03552   0.02036   0.00000  Uiso   1.00
H146   H     0.54967   0.32330   0.45286   0.00000  Uiso   1.00
O147   O     0.50000   0.16667   0.25000   0.00000  Uiso   1.00
O148   O     0.48784   0.12637   0.15458   0.00000  Uiso   1.00
O149   O     0.46274   0.20391   0.34968   0.00000  Uiso   1.00
O150   O     0.54157   0.17759   0.14606   0.00000  Uiso   1.00
O151   O     0.50785   0.15880   0.34968   0.00000  Uiso   1.00
O152   O     0.60785   0.10697   0.48569   0.00000  Uiso   1.00
O153   O     0.46010   0.17469   0.08709   0.00000  Uiso   1.00
O154   O     0.40054   0.21061   0.41970   0.00000  Uiso   1.00
O155   O     0.51264   0.08019   0.28213   0.00000  Uiso   1.00
O156   O     0.47965   0.26085   0.27013   0.00000  Uiso   1.00
O157   O     0.40745   0.13291   0.23413   0.00000  Uiso   1.00
O158   O     0.60026   0.19272   0.21360   0.00000  Uiso   1.00
O159   O     0.40405   0.18878   0.28213   0.00000  Uiso   1.00
O160   O     0.58824   0.15226   0.27013   0.00000  Uiso   1.00
O161   O     0.47093   0.06944   0.23413   0.00000  Uiso   1.00
O162   O     0.53678   0.25620   0.21360   0.00000  Uiso   1.00
Zn163  Zn    0.52672   0.13994   0.28734   0.00000  Uiso   1.00
Zn164  Zn    0.46713   0.12458   0.21875   0.00000  Uiso   1.00
Zn165  Zn    0.54389   0.19775   0.20657   0.00000  Uiso   1.00
Zn166  Zn    0.46226   0.20439   0.28733   0.00000  Uiso   1.00
Br167  Br    0.93209   0.10474   0.08423   0.00000  Uiso   1.00
Br168  Br    0.89533   0.01423   0.19118   0.00000  Uiso   1.00
Br169  Br    0.95891   0.16072   0.41393   0.00000  Uiso   1.00
Br170  Br    0.68352   0.19260   0.01513   0.00000  Uiso   1.00
Br171  Br    0.69844   0.21937   0.19946   0.00000  Uiso   1.00
C172   C     0.71935   0.15947   0.26008   0.00000  Uiso   1.00
C173   C     0.82771   0.15459   0.06096   0.00000  Uiso   1.00
C174   C     0.89439   0.12572   0.05598   0.00000  Uiso   1.00
C175   C     0.94747   0.17438   0.24021   0.00000  Uiso   1.00
C176   C     0.80278   0.18947   0.42008   0.00000  Uiso   1.00
C177   C     0.99344   0.17956   0.23764   0.00000  Uiso   1.00
C178   C     0.67420   0.15710   0.26274   0.00000  Uiso   1.00
C179   C     0.84758   0.32258   0.23594   0.00000  Uiso   1.00
C180   C     0.81849   0.01172   0.26319   0.00000  Uiso   1.00
C181   C     0.82228   0.05595   0.26046   0.00000  Uiso   1.00
C182   C     0.84331   0.27797   0.24005   0.00000  Uiso   1.00
C183   C     0.74314   0.18857   0.48619   0.00000  Uiso   1.00
C184   C     0.85076   0.14916   0.12943   0.00000  Uiso   1.00
C185   C     0.81534   0.18519   0.37082   0.00000  Uiso   1.00
C186   C     0.90527   0.12543   0.00975   0.00000  Uiso   1.00
C187   C     0.85730   0.14235   0.08139   0.00000  Uiso   1.00
C188   C     0.76055   0.19836   0.44234   0.00000  Uiso   1.00
C189   C     0.92827   0.06912   0.46235   0.00000  Uiso   1.00
C190   C     0.92184   0.03215   0.49065   0.00000  Uiso   1.00
C191   C     0.91276   0.32400   0.46422   0.00000  Uiso   1.00
C192   C     0.75895   0.14813   0.11341   0.00000  Uiso   1.00
C193   C     0.75331   0.10121   0.09682   0.00000  Uiso   1.00
C194   C     0.76798   0.17284   0.00862   0.00000  Uiso   1.00
C195   C     0.71235   0.07825   0.12532   0.00000  Uiso   1.00
C196   C     0.73734   0.25469   0.42418   0.00000  Uiso   1.00
C197   C     0.70880   0.26861   0.39833   0.00000  Uiso   1.00
C198   C     0.71135   0.31611   0.40165   0.00000  Uiso   1.00
C199   C     0.81235   0.16976   0.49001   0.00000  Uiso   1.00
C200   C     0.82971   0.17855   0.44485   0.00000  Uiso   1.00
C201   C     0.83946   0.15623   0.01370   0.00000  Uiso   1.00
C202   C     0.88130   0.14617   0.48918   0.00000  Uiso   1.00
C203   C     0.89890   0.15922   0.44576   0.00000  Uiso   1.00
C204   C     0.87368   0.17653   0.42517   0.00000  Uiso   1.00
H205   H     0.98590   0.13424   0.28367   0.00000  Uiso   1.00
H206   H     0.90808   0.29792   0.48568   0.00000  Uiso   1.00
H207   H     0.94034   0.31936   0.43481   0.00000  Uiso   1.00
H208   H     0.72858   0.16053   0.11461   0.00000  Uiso   1.00
H209   H     0.76043   0.15238   0.14857   0.00000  Uiso   1.00
H210   H     0.75124   0.09746   0.06168   0.00000  Uiso   1.00
H211   H     0.78112   0.08602   0.09852   0.00000  Uiso   1.00
H212   H     0.71386   0.08071   0.16063   0.00000  Uiso   1.00
H213   H     0.70911   0.04472   0.11306   0.00000  Uiso   1.00
H214   H     0.68349   0.09165   0.12336   0.00000  Uiso   1.00
H215   H     0.77135   0.26870   0.41045   0.00000  Uiso   1.00
H216   H     0.79148   0.33096   0.28820   0.00000  Uiso   1.00
H217   H     0.72637   0.26638   0.45986   0.00000  Uiso   1.00
H218   H     0.71925   0.25693   0.36268   0.00000  Uiso   1.00
H219   H     0.67474   0.25506   0.41188   0.00000  Uiso   1.00
H220   H     0.70010   0.32840   0.43696   0.00000  Uiso   1.00
H221   H     0.69039   0.32510   0.38243   0.00000  Uiso   1.00
H222   H     0.74504   0.33037   0.38766   0.00000  Uiso   1.00
H223   H     0.75036   0.16146   0.03958   0.00000  Uiso   1.00
H224   H     0.88924   0.18870   0.39323   0.00000  Uiso   1.00
H225   H     0.95468   0.06419   0.43186   0.00000  Uiso   1.00
H226   H     0.89874   0.06986   0.45074   0.00000  Uiso   1.00
H227   H     0.95139   0.03188   0.00211   0.00000  Uiso   1.00
H228   H     0.89424   0.03552   0.02036   0.00000  Uiso   1.00
H229   H     0.88300   0.32330   0.45286   0.00000  Uiso   1.00
O230   O     0.83333   0.16667   0.25000   0.00000  Uiso   1.00
O231   O     0.82118   0.12637   0.15458   0.00000  Uiso   1.00
O232   O     0.79607   0.20391   0.34968   0.00000  Uiso   1.00
O233   O     0.87491   0.17759   0.14606   0.00000  Uiso   1.00
O234   O     0.84118   0.15880   0.34968   0.00000  Uiso   1.00
O235   O     0.94118   0.10697   0.48569   0.00000  Uiso   1.00
O236   O     0.79344   0.17469   0.08709   0.00000  Uiso   1.00
O237   O     0.73387   0.21061   0.41970   0.00000  Uiso   1.00
O238   O     0.84597   0.08019   0.28213   0.00000  Uiso   1.00
O239   O     0.81298   0.26085   0.27013   0.00000  Uiso   1.00
O240   O     0.74078   0.13291   0.23413   0.00000  Uiso   1.00
O241   O     0.93360   0.19272   0.21360   0.00000  Uiso   1.00
O242   O     0.73738   0.18878   0.28213   0.00000  Uiso   1.00
O243   O     0.92158   0.15226   0.27013   0.00000  Uiso   1.00
O244   O     0.80426   0.06944   0.23413   0.00000  Uiso   1.00
O245   O     0.87012   0.25620   0.21360   0.00000  Uiso   1.00
Zn246  Zn    0.86005   0.13994   0.28734   0.00000  Uiso   1.00
Zn247  Zn    0.80046   0.12458   0.21875   0.00000  Uiso   1.00
Zn248  Zn    0.87723   0.19775   0.20657   0.00000  Uiso   1.00
Zn249  Zn    0.79560   0.20439   0.28733   0.00000  Uiso   1.00
Br250  Br    0.26542   0.43807   0.08423   0.00000  Uiso   1.00
Br251  Br    0.22866   0.34756   0.19118   0.00000  Uiso   1.00
Br252  Br    0.29224   0.49405   0.41393   0.00000  Uiso   1.00
Br253  Br    0.01686   0.52593   0.01513   0.00000  Uiso   1.00
Br254  Br    0.03177   0.55270   0.19946   0.00000  Uiso   1.00
C255   C     0.05268   0.49281   0.26008   0.00000  Uiso   1.00
C256   C     0.16105   0.48792   0.06096   0.00000  Uiso   1.00
C257   C     0.22772   0.45906   0.05598   0.00000  Uiso   1.00
C258   C     0.28081   0.50771   0.24021   0.00000  Uiso   1.00
C259   C     0.13611   0.52280   0.42008   0.00000  Uiso   1.00
C260   C     0.32678   0.51289   0.23764   0.00000  Uiso   1.00
C261   C     0.00754   0.49043   0.26274   0.00000  Uiso   1.00
C262   C     0.18091   0.65591   0.23594   0.00000  Uiso   1.00
C263   C     0.15182   0.34506   0.26319   0.00000  Uiso   1.00
C264   C     0.15562   0.38928   0.26046   0.00000  Uiso   1.00
C265   C     0.17664   0.61130   0.24005   0.00000  Uiso   1.00
C266   C     0.07647   0.52190   0.48619   0.00000  Uiso   1.00
C267   C     0.18410   0.48250   0.12943   0.00000  Uiso   1.00
C268   C     0.14867   0.51852   0.37082   0.00000  Uiso   1.00
C269   C     0.23861   0.45876   0.00975   0.00000  Uiso   1.00
C270   C     0.19063   0.47568   0.08139   0.00000  Uiso   1.00
C271   C     0.09388   0.53169   0.44234   0.00000  Uiso   1.00
C272   C     0.26160   0.40246   0.46235   0.00000  Uiso   1.00
C273   C     0.25518   0.36548   0.49065   0.00000  Uiso   1.00
C274   C     0.24609   0.65733   0.46422   0.00000  Uiso   1.00
C275   C     0.09228   0.48146   0.11341   0.00000  Uiso   1.00
C276   C     0.08665   0.43454   0.09682   0.00000  Uiso   1.00
C277   C     0.10131   0.50618   0.00862   0.00000  Uiso   1.00
C278   C     0.04569   0.41158   0.12532   0.00000  Uiso   1.00
C279   C     0.07068   0.58802   0.42418   0.00000  Uiso   1.00
C280   C     0.04213   0.60194   0.39833   0.00000  Uiso   1.00
C281   C     0.04468   0.64944   0.40165   0.00000  Uiso   1.00
C282   C     0.14568   0.50309   0.49001   0.00000  Uiso   1.00
C283   C     0.16304   0.51188   0.44485   0.00000  Uiso   1.00
C284   C     0.17279   0.48957   0.01370   0.00000  Uiso   1.00
C285   C     0.21463   0.47950   0.48918   0.00000  Uiso   1.00
C286   C     0.23224   0.49256   0.44576   0.00000  Uiso   1.00
C287   C     0.20702   0.50986   0.42517   0.00000  Uiso   1.00
H288   H     0.31923   0.46758   0.28367   0.00000  Uiso   1.00
H289   H     0.24142   0.63125   0.48568   0.00000  Uiso   1.00
H290   H     0.27367   0.65269   0.43481   0.00000  Uiso   1.00
H291   H     0.06192   0.49386   0.11461   0.00000  Uiso   1.00
H292   H     0.09377   0.48571   0.14857   0.00000  Uiso   1.00
H293   H     0.08458   0.43080   0.06168   0.00000  Uiso   1.00
H294   H     0.11446   0.41935   0.09852   0.00000  Uiso   1.00
H295   H     0.04719   0.41404   0.16063   0.00000  Uiso   1.00
H296   H     0.04244   0.37805   0.11306   0.00000  Uiso   1.00
H297   H     0.01682   0.42498   0.12336   0.00000  Uiso   1.00
H298   H     0.10468   0.60203   0.41045   0.00000  Uiso   1.00
H299   H     0.12481   0.66430   0.28820   0.00000  Uiso   1.00
H300   H     0.05970   0.59971   0.45986   0.00000  Uiso   1.00
H301   H     0.05259   0.59027   0.36268   0.00000  Uiso   1.00
H302   H     0.00807   0.58840   0.41188   0.00000  Uiso   1.00
H303   H     0.03343   0.66173   0.43696   0.00000  Uiso   1.00
H304   H     0.02372   0.65844   0.38243   0.00000  Uiso   1.00
H305   H     0.07837   0.66371   0.38766   0.00000  Uiso   1.00
H306   H     0.08369   0.49480   0.03958   0.00000  Uiso   1.00
H307   H     0.22257   0.52203   0.39323   0.00000  Uiso   1.00
H308   H     0.28802   0.39752   0.43186   0.00000  Uiso   1.00
H309   H     0.23208   0.40319   0.45074   0.00000  Uiso   1.00
H310   H     0.28473   0.36521   0.00211   0.00000  Uiso   1.00
H311   H     0.22757   0.36885   0.02036   0.00000  Uiso   1.00
H312   H     0.21633   0.65663   0.45286   0.00000  Uiso   1.00
O313   O     0.16667   0.50000   0.25000   0.00000  Uiso   1.00
O314   O     0.15451   0.45970   0.15458   0.00000  Uiso   1.00
O315   O     0.12940   0.53724   0.34968   0.00000  Uiso   1.00
O316   O     0.20824   0.51092   0.14606   0.00000  Uiso   1.00
O317   O     0.17451   0.49213   0.34968   0.00000  Uiso   1.00
O318   O     0.27451   0.44030   0.48569   0.00000  Uiso   1.00
O319   O     0.12677   0.50802   0.08709   0.00000  Uiso   1.00
O320   O     0.06721   0.54395   0.41970   0.00000  Uiso   1.00
O321   O     0.17930   0.41352   0.28213   0.00000  Uiso   1.00
O322   O     0.14632   0.59418   0.27013   0.00000  Uiso   1.00
O323   O     0.07412   0.46625   0.23413   0.00000  Uiso   1.00
O324   O     0.26693   0.52605   0.21360   0.00000  Uiso   1.00
O325   O     0.07071   0.52211   0.28213   0.00000  Uiso   1.00
O326   O     0.25491   0.48559   0.27013   0.00000  Uiso   1.00
O327   O     0.13760   0.40277   0.23413   0.00000  Uiso   1.00
O328   O     0.20345   0.58953   0.21360   0.00000  Uiso   1.00
Zn329  Zn    0.19338   0.47327   0.28734   0.00000  Uiso   1.00
Zn330  Zn    0.13379   0.45791   0.21875   0.00000  Uiso   1.00
Zn331  Zn    0.21056   0.53109   0.20657   0.00000  Uiso   1.00
Zn332  Zn    0.12893   0.53773   0.28733   0.00000  Uiso   1.00
Br333  Br    0.59875   0.43807   0.08423   0.00000  Uiso   1.00
Br334  Br    0.56200   0.34756   0.19118   0.00000  Uiso   1.00
Br335  Br    0.62558   0.49405   0.41393   0.00000  Uiso   1.00
Br336  Br    0.35019   0.52593   0.01513   0.00000  Uiso   1.00
Br337  Br    0.36511   0.55270   0.19946   0.00000  Uiso   1.00
C338   C     0.38601   0.49281   0.26008   0.00000  Uiso   1.00
C339   C     0.49438   0.48792   0.06096   0.00000  Uiso   1.00
C340   C     0.56105   0.45906   0.05598   0.00000  Uiso   1.00
C341   C     0.61414   0.50771   0.24021   0.00000  Uiso   1.00
C342   C     0.46944   0.52280   0.42008   0.00000  Uiso   1.00
C343   C     0.66011   0.51289   0.23764   0.00000  Uiso   1.00
C344   C     0.34087   0.49043   0.26274   0.00000  Uiso   1.00
C345   C     0.51425   0.65591   0.23594   0.00000  Uiso   1.00
C346   C     0.48515   0.34506   0.26319   0.00000  Uiso   1.00
C347   C     0.48895   0.38928   0.26046   0.00000  Uiso   1.00
C348   C     0.50998   0.61130   0.24005   0.00000  Uiso   1.00
C349   C     0.40981   0.52190   0.48619   0.00000  Uiso   1.00
C350   C     0.51743   0.48250   0.12943   0.00000  Uiso   1.00
C351   C     0.48201   0.51852   0.37082   0.00000  Uiso   1.00
C352   C     0.57194   0.45876   0.00975   0.00000  Uiso   1.00
C353   C     0.52396   0.47568   0.08139   0.00000  Uiso   1.00
C354   C     0.42722   0.53169   0.44234   0.00000  Uiso   1.00
C355   C     0.59493   0.40246   0.46235   0.00000  Uiso   1.00
C356   C     0.58851   0.36548   0.49065   0.00000  Uiso   1.00
C357   C     0.57942   0.65733   0.46422   0.00000  Uiso   1.00
C358   C     0.42562   0.48146   0.11341   0.00000  Uiso   1.00
C359   C     0.41998   0.43454   0.09682   0.00000  Uiso   1.00
C360   C     0.43464   0.50618   0.00862   0.00000  Uiso   1.00
C361   C     0.37902   0.41158   0.12532   0.00000  Uiso   1.00
C362   C     0.40401   0.58802   0.42418   0.00000  Uiso   1.00
C363   C     0.37547   0.60194   0.39833   0.00000  Uiso   1.00
C364   C     0.37802   0.64944   0.40165   0.00000  Uiso   1.00
C365   C     0.47901   0.50309   0.49001   0.00000  Uiso   1.00
C366   C     0.49637   0.51188   0.44485   0.00000  Uiso   1.00
C367   C     0.50612   0.48957   0.01370   0.00000  Uiso   1.00
C368   C     0.54797   0.47950   0.48918   0.00000  Uiso   1.00
C369   C     0.56557   0.49256   0.44576   0.00000  Uiso   1.00
C370   C     0.54035   0.50986   0.42517   0.00000  Uiso   1.00
H371   H     0.65256   0.46758   0.28367   0.00000  Uiso   1.00
H372   H     0.57475   0.63125   0.48568   0.00000  Uiso   1.00
H373   H     0.60700   0.65269   0.43481   0.00000  Uiso   1.00
H374   H     0.39525   0.49386   0.11461   0.00000  Uiso   1.00
H375   H     0.42710   0.48571   0.14857   0.00000  Uiso   1.00
H376   H     0.41791   0.43080   0.06168   0.00000  Uiso   1.00
H377   H     0.44779   0.41935   0.09852   0.00000  Uiso   1.00
H378   H     0.38053   0.41404   0.16063   0.00000  Uiso   1.00
H379   H     0.37577   0.37805   0.11306   0.00000  Uiso   1.00
H380   H     0.35015   0.42498   0.12336   0.00000  Uiso   1.00
H381   H     0.43801   0.60203   0.41045   0.00000  Uiso   1.00
H382   H     0.45814   0.66430   0.28820   0.00000  Uiso   1.00
H383   H     0.39303   0.59971   0.45986   0.00000  Uiso   1.00
H384   H     0.38592   0.59027   0.36268   0.00000  Uiso   1.00
H385   H     0.34140   0.58840   0.41188   0.00000  Uiso   1.00
H386   H     0.36677   0.66173   0.43696   0.00000  Uiso   1.00
H387   H     0.35705   0.65844   0.38243   0.00000  Uiso   1.00
H388   H     0.41170   0.66371   0.38766   0.00000  Uiso   1.00
H389   H     0.41703   0.49480   0.03958   0.00000  Uiso   1.00
H390   H     0.55590   0.52203   0.39323   0.00000  Uiso   1.00
H391   H     0.62135   0.39752   0.43186   0.00000  Uiso   1.00
H392   H     0.56541   0.40319   0.45074   0.00000  Uiso   1.00
H393   H     0.61806   0.36521   0.00211   0.00000  Uiso   1.00
H394   H     0.56091   0.36885   0.02036   0.00000  Uiso   1.00
H395   H     0.54967   0.65663   0.45286   0.00000  Uiso   1.00
O396   O     0.50000   0.50000   0.25000   0.00000  Uiso   1.00
O397   O     0.48784   0.45970   0.15458   0.00000  Uiso   1.00
O398   O     0.46274   0.53724   0.34968   0.00000  Uiso   1.00
O399   O     0.54157   0.51092   0.14606   0.00000  Uiso   1.00
O400   O     0.50785   0.49213   0.34968   0.00000  Uiso   1.00
O401   O     0.60785   0.44030   0.48569   0.00000  Uiso   1.00
O402   O     0.46010   0.50802   0.08709   0.00000  Uiso   1.00
O403   O     0.40054   0.54395   0.41970   0.00000  Uiso   1.00
O404   O     0.51264   0.41352   0.28213   0.00000  Uiso   1.00
O405   O     0.47965   0.59418   0.27013   0.00000  Uiso   1.00
O406   O     0.40745   0.46625   0.23413   0.00000  Uiso   1.00
O407   O     0.60026   0.52605   0.21360   0.00000  Uiso   1.00
O408   O     0.40405   0.52211   0.28213   0.00000  Uiso   1.00
O409   O     0.58824   0.48559   0.27013   0.00000  Uiso   1.00
O410   O     0.47093   0.40277   0.23413   0.00000  Uiso   1.00
O411   O     0.53678   0.58953   0.21360   0.00000  Uiso   1.00
Zn412  Zn    0.52672   0.47327   0.28734   0.00000  Uiso   1.00
Zn413  Zn    0.46713   0.45791   0.21875   0.00000  Uiso   1.00
Zn414  Zn    0.54389   0.53109   0.20657   0.00000  Uiso   1.00
Zn415  Zn    0.46226   0.53773   0.28733   0.00000  Uiso   1.00
Br416  Br    0.93209   0.43807   0.08423   0.00000  Uiso   1.00
Br417  Br    0.89533   0.34756   0.19118   0.00000  Uiso   1.00
Br418  Br    0.95891   0.49405   0.41393   0.00000  Uiso   1.00
Br419  Br    0.68352   0.52593   0.01513   0.00000  Uiso   1.00
Br420  Br    0.69844   0.55270   0.19946   0.00000  Uiso   1.00
C421   C     0.71935   0.49281   0.26008   0.00000  Uiso   1.00
C422   C     0.82771   0.48792   0.06096   0.00000  Uiso   1.00
C423   C     0.89439   0.45906   0.05598   0.00000  Uiso   1.00
C424   C     0.94747   0.50771   0.24021   0.00000  Uiso   1.00
C425   C     0.80278   0.52280   0.42008   0.00000  Uiso   1.00
C426   C     0.99344   0.51289   0.23764   0.00000  Uiso   1.00
C427   C     0.67420   0.49043   0.26274   0.00000  Uiso   1.00
C428   C     0.84758   0.65591   0.23594   0.00000  Uiso   1.00
C429   C     0.81849   0.34506   0.26319   0.00000  Uiso   1.00
C430   C     0.82228   0.38928   0.26046   0.00000  Uiso   1.00
C431   C     0.84331   0.61130   0.24005   0.00000  Uiso   1.00
C432   C     0.74314   0.52190   0.48619   0.00000  Uiso   1.00
C433   C     0.85076   0.48250   0.12943   0.00000  Uiso   1.00
C434   C     0.81534   0.51852   0.37082   0.00000  Uiso   1.00
C435   C     0.90527   0.45876   0.00975   0.00000  Uiso   1.00
C436   C     0.85730   0.47568   0.08139   0.00000  Uiso   1.00
C437   C     0.76055   0.53169   0.44234   0.00000  Uiso   1.00
C438   C     0.92827   0.40246   0.46235   0.00000  Uiso   1.00
C439   C     0.92184   0.36548   0.49065   0.00000  Uiso   1.00
C440   C     0.91276   0.65733   0.46422   0.00000  Uiso   1.00
C441   C     0.75895   0.48146   0.11341   0.00000  Uiso   1.00
C442   C     0.75331   0.43454   0.09682   0.00000  Uiso   1.00
C443   C     0.76798   0.50618   0.00862   0.00000  Uiso   1.00
C444   C     0.71235   0.41158   0.12532   0.00000  Uiso   1.00
C445   C     0.73734   0.58802   0.42418   0.00000  Uiso   1.00
C446   C     0.70880   0.60194   0.39833   0.00000  Uiso   1.00
C447   C     0.71135   0.64944   0.40165   0.00000  Uiso   1.00
C448   C     0.81235   0.50309   0.49001   0.00000  Uiso   1.00
C449   C     0.82971   0.51188   0.44485   0.00000  Uiso   1.00
C450   C     0.83946   0.48957   0.01370   0.00000  Uiso   1.00
C451   C     0.88130   0.47950   0.48918   0.00000  Uiso   1.00
C452   C     0.89890   0.49256   0.44576   0.00000  Uiso   1.00
C453   C     0.87368   0.50986   0.42517   0.00000  Uiso   1.00
H454   H     0.98590   0.46758   0.28367   0.00000  Uiso   1.00
H455   H     0.90808   0.63125   0.48568   0.00000  Uiso   1.00
H456   H     0.94034   0.65269   0.43481   0.00000  Uiso   1.00
H457   H     0.72858   0.49386   0.11461   0.00000  Uiso   1.00
H458   H     0.76043   0.48571   0.14857   0.00000  Uiso   1.00
H459   H     0.75124   0.43080   0.06168   0.00000  Uiso   1.00
H460   H     0.78112   0.41935   0.09852   0.00000  Uiso   1.00
H461   H     0.71386   0.41404   0.16063   0.00000  Uiso   1.00
H462   H     0.70911   0.37805   0.11306   0.00000  Uiso   1.00
H463   H     0.68349   0.42498   0.12336   0.00000  Uiso   1.00
H464   H     0.77135   0.60203   0.41045   0.00000  Uiso   1.00
H465   H     0.79148   0.66430   0.28820   0.00000  Uiso   1.00
H466   H     0.72637   0.59971   0.45986   0.00000  Uiso   1.00
H467   H     0.71925   0.59027   0.36268   0.00000  Uiso   1.00
H468   H     0.67474   0.58840   0.41188   0.00000  Uiso   1.00
H469   H     0.70010   0.66173   0.43696   0.00000  Uiso   1.00
H470   H     0.69039   0.65844   0.38243   0.00000  Uiso   1.00
H471   H     0.74504   0.66371   0.38766   0.00000  Uiso   1.00
H472   H     0.75036   0.49480   0.03958   0.00000  Uiso   1.00
H473   H     0.88924   0.52203   0.39323   0.00000  Uiso   1.00
H474   H     0.95468   0.39752   0.43186   0.00000  Uiso   1.00
H475   H     0.89874   0.40319   0.45074   0.00000  Uiso   1.00
H476   H     0.95139   0.36521   0.00211   0.00000  Uiso   1.00
H477   H     0.89424   0.36885   0.02036   0.00000  Uiso   1.00
H478   H     0.88300   0.65663   0.45286   0.00000  Uiso   1.00
O479   O     0.83333   0.50000   0.25000   0.00000  Uiso   1.00
O480   O     0.82118   0.45970   0.15458   0.00000  Uiso   1.00
O481   O     0.79607   0.53724   0.34968   0.00000  Uiso   1.00
O482   O     0.87491   0.51092   0.14606   0.00000  Uiso   1.00
O483   O     0.84118   0.49213   0.34968   0.00000  Uiso   1.00
O484   O     0.94118   0.44030   0.48569   0.00000  Uiso   1.00
O485   O     0.79344   0.50802   0.08709   0.00000  Uiso   1.00
O486   O     0.73387   0.54395   0.41970   0.00000  Uiso   1.00
O487   O     0.84597   0.41352   0.28213   0.00000  Uiso   1.00
O488   O     0.81298   0.59418   0.27013   0.00000  Uiso   1.00
O489   O     0.74078   0.46625   0.23413   0.00000  Uiso   1.00
O490   O     0.93360   0.52605   0.21360   0.00000  Uiso   1.00
O491   O     0.73738   0.52211   0.28213   0.00000  Uiso   1.00
O492   O     0.92158   0.48559   0.27013   0.00000  Uiso   1.00
O493   O     0.80426   0.40277   0.23413   0.00000  Uiso   1.00
O494   O     0.87012   0.58953   0.21360   0.00000  Uiso   1.00
Zn495  Zn    0.86005   0.47327   0.28734   0.00000  Uiso   1.00
Zn496  Zn    0.80046   0.45791   0.21875   0.00000  Uiso   1.00
Zn497  Zn    0.87723   0.53109   0.20657   0.00000  Uiso   1.00
Zn498  Zn    0.79560   0.53773   0.28733   0.00000  Uiso   1.00
Br499  Br    0.26542   0.77141   0.08423   0.00000  Uiso   1.00
Br500  Br    0.22866   0.68090   0.19118   0.00000  Uiso   1.00
Br501  Br    0.29224   0.82738   0.41393   0.00000  Uiso   1.00
Br502  Br    0.01686   0.85927   0.01513   0.00000  Uiso   1.00
Br503  Br    0.03177   0.88604   0.19946   0.00000  Uiso   1.00
C504   C     0.05268   0.82614   0.26008   0.00000  Uiso   1.00
C505   C     0.16105   0.82125   0.06096   0.00000  Uiso   1.00
C506   C     0.22772   0.79239   0.05598   0.00000  Uiso   1.00
C507   C     0.28081   0.84105   0.24021   0.00000  Uiso   1.00
C508   C     0.13611   0.85613   0.42008   0.00000  Uiso   1.00
C509   C     0.32678   0.84623   0.23764   0.00000  Uiso   1.00
C510   C     0.00754   0.82376   0.26274   0.00000  Uiso   1.00
C511   C     0.18091   0.98925   0.23594   0.00000  Uiso   1.00
C512   C     0.15182   0.67839   0.26319   0.00000  Uiso   1.00
C513   C     0.15562   0.72262   0.26046   0.00000  Uiso   1.00
C514   C     0.17664   0.94464   0.24005   0.00000  Uiso   1.00
C515   C     0.07647   0.85523   0.48619   0.00000  Uiso   1.00
C516   C     0.18410   0.81583   0.12943   0.00000  Uiso   1.00
C517   C     0.14867   0.85186   0.37082   0.00000  Uiso   1.00
C518   C     0.23861   0.79209   0.00975   0.00000  Uiso   1.00
C519   C     0.19063   0.80901   0.08139   0.00000  Uiso   1.00
C520   C     0.09388   0.86502   0.44234   0.00000  Uiso   1.00
C521   C     0.26160   0.73579   0.46235   0.00000  Uiso   1.00
C522   C     0.25518   0.69882   0.49065   0.00000  Uiso   1.00
C523   C     0.24609   0.99066   0.46422   0.00000  Uiso   1.00
C524   C     0.09228   0.81479   0.11341   0.00000  Uiso   1.00
C525   C     0.08665   0.76787   0.09682   0.00000  Uiso   1.00
C526   C     0.10131   0.83951   0.00862   0.00000  Uiso   1.00
C527   C     0.04569   0.74492   0.12532   0.00000  Uiso   1.00
C528   C     0.07068   0.92135   0.42418   0.00000  Uiso   1.00
C529   C     0.04213   0.93528   0.39833   0.00000  Uiso   1.00
C530   C     0.04468   0.98278   0.40165   0.00000  Uiso   1.00
C531   C     0.14568   0.83643   0.49001   0.00000  Uiso   1.00
C532   C     0.16304   0.84521   0.44485   0.00000  Uiso   1.00
C533   C     0.17279   0.82290   0.01370   0.00000  Uiso   1.00
C534   C     0.21463   0.81283   0.48918   0.00000  Uiso   1.00
C535   C     0.23224   0.82589   0.44576   0.00000  Uiso   1.00
C536   C     0.20702   0.84319   0.42517   0.00000  Uiso   1.00
H537   H     0.31923   0.80091   0.28367   0.00000  Uiso   1.00
H538   H     0.24142   0.96459   0.48568   0.00000  Uiso   1.00
H539   H     0.27367   0.98602   0.43481   0.00000  Uiso   1.00
H540   H     0.06192   0.82720   0.11461   0.00000  Uiso   1.00
H541   H     0.09377   0.81904   0.14857   0.00000  Uiso   1.00
H542   H     0.08458   0.76413   0.06168   0.00000  Uiso   1.00
H543   H     0.11446   0.75269   0.09852   0.00000  Uiso   1.00
H544   H     0.04719   0.74738   0.16063   0.00000  Uiso   1.00
H545   H     0.04244   0.71139   0.11306   0.00000  Uiso   1.00
H546   H     0.01682   0.75831   0.12336   0.00000  Uiso   1.00
H547   H     0.10468   0.93536   0.41045   0.00000  Uiso   1.00
H548   H     0.12481   0.99763   0.28820   0.00000  Uiso   1.00
H549   H     0.05970   0.93304   0.45986   0.00000  Uiso   1.00
H550   H     0.05259   0.92360   0.36268   0.00000  Uiso   1.00
H551   H     0.00807   0.92173   0.41188   0.00000  Uiso   1.00
H552   H     0.03343   0.99506   0.43696   0.00000  Uiso   1.00
H553   H     0.02372   0.99177   0.38243   0.00000  Uiso   1.00
H554   H     0.07837   0.99704   0.38766   0.00000  Uiso   1.00
H555   H     0.08369   0.82813   0.03958   0.00000  Uiso   1.00
H556   H     0.22257   0.85536   0.39323   0.00000  Uiso   1.00
H557   H     0.28802   0.73086   0.43186   0.00000  Uiso   1.00
H558   H     0.23208   0.73653   0.45074   0.00000  Uiso   1.00
H559   H     0.28473   0.69855   0.00211   0.00000  Uiso   1.00
H560   H     0.22757   0.70219   0.02036   0.00000  Uiso   1.00
H561   H     0.21633   0.98997   0.45286   0.00000  Uiso   1.00
O562   O     0.16667   0.83333   0.25000   0.00000  Uiso   1.00
O563   O     0.15451   0.79304   0.15458   0.00000  Uiso   1.00
O564   O     0.12940   0.87058   0.34968   0.00000  Uiso   1.00
O565   O     0.20824   0.84425   0.14606   0.00000  Uiso   1.00
O566   O     0.17451   0.82546   0.34968   0.00000  Uiso   1.00
O567   O     0.27451   0.77364   0.48569   0.00000  Uiso   1.00
O568   O     0.12677   0.84136   0.08709   0.00000  Uiso   1.00
O569   O     0.06721   0.87728   0.41970   0.00000  Uiso   1.00
O570   O     0.17930   0.74686   0.28213   0.00000  Uiso   1.00
O571   O     0.14632   0.92751   0.27013   0.00000  Uiso   1.00
O572   O     0.07412   0.79958   0.23413   0.00000  Uiso   1.00
O573   O     0.26693   0.85939   0.21360   0.00000  Uiso   1.00
O574   O     0.07071   0.85544   0.28213   0.00000  Uiso   1.00
O575   O     0.25491   0.81892   0.27013   0.00000  Uiso   1.00
O576   O     0.13760   0.73610   0.23413   0.00000  Uiso   1.00
O577   O     0.20345   0.92286   0.21360   0.00000  Uiso   1.00
Zn578  Zn    0.19338   0.80661   0.28734   0.00000  Uiso   1.00
Zn579  Zn    0.13379   0.79124   0.21875   0.00000  Uiso   1.00
Zn580  Zn    0.21056   0.86442   0.20657   0.00000  Uiso   1.00
Zn581  Zn    0.12893   0.87106   0.28733   0.00000  Uiso   1.00
Br582  Br    0.59875   0.77141   0.08423   0.00000  Uiso   1.00
Br583  Br    0.56200   0.68090   0.19118   0.00000  Uiso   1.00
Br584  Br    0.62558   0.82738   0.41393   0.00000  Uiso   1.00
Br585  Br    0.35019   0.85927   0.01513   0.00000  Uiso   1.00
Br586  Br    0.36511   0.88604   0.19946   0.00000  Uiso   1.00
C587   C     0.38601   0.82614   0.26008   0.00000  Uiso   1.00
C588   C     0.49438   0.82125   0.06096   0.00000  Uiso   1.00
C589   C     0.56105   0.79239   0.05598   0.00000  Uiso   1.00
C590   C     0.61414   0.84105   0.24021   0.00000  Uiso   1.00
C591   C     0.46944   0.85613   0.42008   0.00000  Uiso   1.00
C592   C     0.66011   0.84623   0.23764   0.00000  Uiso   1.00
C593   C     0.34087   0.82376   0.26274   0.00000  Uiso   1.00
C594   C     0.51425   0.98925   0.23594   0.00000  Uiso   1.00
C595   C     0.48515   0.67839   0.26319   0.00000  Uiso   1.00
C596   C     0.48895   0.72262   0.26046   0.00000  Uiso   1.00
C597   C     0.50998   0.94464   0.24005   0.00000  Uiso   1.00
C598   C     0.40981   0.85523   0.48619   0.00000  Uiso   1.00
C599   C     0.51743   0.81583   0.12943   0.00000  Uiso   1.00
C600   C     0.48201   0.85186   0.37082   0.00000  Uiso   1.00
C601   C     0.57194   0.79209   0.00975   0.00000  Uiso   1.00
C602   C     0.52396   0.80901   0.08139   0.00000  Uiso   1.00
C603   C     0.42722   0.86502   0.44234   0.00000  Uiso   1.00
C604   C     0.59493   0.73579   0.46235   0.00000  Uiso   1.00
C605   C     0.58851   0.69882   0.49065   0.00000  Uiso   1.00
C606   C     0.57942   0.99066   0.46422   0.00000  Uiso   1.00
C607   C     0.42562   0.81479   0.11341   0.00000  Uiso   1.00
C608   C     0.41998   0.76787   0.09682   0.00000  Uiso   1.00
C609   C     0.43464   0.83951   0.00862   0.00000  Uiso   1.00
C610   C     0.37902   0.74492   0.12532   0.00000  Uiso   1.00
C611   C     0.40401   0.92135   0.42418   0.00000  Uiso   1.00
C612   C     0.37547   0.93528   0.39833   0.00000  Uiso   1.00
C613   C     0.37802   0.98278   0.40165   0.00000  Uiso   1.00
C614   C     0.47901   0.83643   0.49001   0.00000  Uiso   1.00
C615   C     0.49637   0.84521   0.44485   0.00000  Uiso   1.00
C616   C     0.50612   0.82290   0.01370   0.00000  Uiso   1.00
C617   C     0.54797   0.81283   0.48918   0.00000  Uiso   1.00
C618   C     0.56557   0.82589   0.44576   0.00000  Uiso   1.00
C619   C     0.54035   0.84319   0.42517   0.00000  Uiso   1.00
H620   H     0.65256   0.80091   0.28367   0.00000  Uiso   1.00
H621   H     0.57475   0.96459   0.48568   0.00000  Uiso   1.00
H622   H     0.60700   0.98602   0.43481   0.00000  Uiso   1.00
H623   H     0.39525   0.82720   0.11461   0.00000  Uiso   1.00
H624   H     0.42710   0.81904   0.14857   0.00000  Uiso   1.00
H625   H     0.41791   0.76413   0.06168   0.00000  Uiso   1.00
H626   H     0.44779   0.75269   0.09852   0.00000  Uiso   1.00
H627   H     0.38053   0.74738   0.16063   0.00000  Uiso   1.00
H628   H     0.37577   0.71139   0.11306   0.00000  Uiso   1.00
H629   H     0.35015   0.75831   0.12336   0.00000  Uiso   1.00
H630   H     0.43801   0.93536   0.41045   0.00000  Uiso   1.00
H631   H     0.45814   0.99763   0.28820   0.00000  Uiso   1.00
H632   H     0.39303   0.93304   0.45986   0.00000  Uiso   1.00
H633   H     0.38592   0.92360   0.36268   0.00000  Uiso   1.00
H634   H     0.34140   0.92173   0.41188   0.00000  Uiso   1.00
H635   H     0.36677   0.99506   0.43696   0.00000  Uiso   1.00
H636   H     0.35705   0.99177   0.38243   0.00000  Uiso   1.00
H637   H     0.41170   0.99704   0.38766   0.00000  Uiso   1.00
H638   H     0.41703   0.82813   0.03958   0.00000  Uiso   1.00
H639   H     0.55590   0.85536   0.39323   0.00000  Uiso   1.00
H640   H     0.62135   0.73086   0.43186   0.00000  Uiso   1.00
H641   H     0.56541   0.73653   0.45074   0.00000  Uiso   1.00
H642   H     0.61806   0.69855   0.00211   0.00000  Uiso   1.00
H643   H     0.56091   0.70219   0.02036   0.00000  Uiso   1.00
H644   H     0.54967   0.98997   0.45286   0.00000  Uiso   1.00
O645   O     0.50000   0.83333   0.25000   0.00000  Uiso   1.00
O646   O     0.48784   0.79304   0.15458   0.00000  Uiso   1.00
O647   O     0.46274   0.87058   0.34968   0.00000  Uiso   1.00
O648   O     0.54157   0.84425   0.14606   0.00000  Uiso   1.00
O649   O     0.50785   0.82546   0.34968   0.00000  Uiso   1.00
O650   O     0.60785   0.77364   0.48569   0.00000  Uiso   1.00
O651   O     0.46010   0.84136   0.08709   0.00000  Uiso   1.00
O652   O     0.40054   0.87728   0.41970   0.00000  Uiso   1.00
O653   O     0.51264   0.74686   0.28213   0.00000  Uiso   1.00
O654   O     0.47965   0.92751   0.27013   0.00000  Uiso   1.00
O655   O     0.40745   0.79958   0.23413   0.00000  Uiso   1.00
O656   O     0.60026   0.85939   0.21360   0.00000  Uiso   1.00
O657   O     0.40405   0.85544   0.28213   0.00000  Uiso   1.00
O658   O     0.58824   0.81892   0.27013   0.00000  Uiso   1.00
O659   O     0.47093   0.73610   0.23413   0.00000  Uiso   1.00
O660   O     0.53678   0.92286   0.21360   0.00000  Uiso   1.00
Zn661  Zn    0.52672   0.80661   0.28734   0.00000  Uiso   1.00
Zn662  Zn    0.46713   0.79124   0.21875   0.00000  Uiso   1.00
Zn663  Zn    0.54389   0.86442   0.20657   0.00000  Uiso   1.00
Zn664  Zn    0.46226   0.87106   0.28733   0.00000  Uiso   1.00
Br665  Br    0.93209   0.77141   0.08423   0.00000  Uiso   1.00
Br666  Br    0.89533   0.68090   0.19118   0.00000  Uiso   1.00
Br667  Br    0.95891   0.82738   0.41393   0.00000  Uiso   1.00
Br668  Br    0.68352   0.85927   0.01513   0.00000  Uiso   1.00
Br669  Br    0.69844   0.88604   0.19946   0.00000  Uiso   1.00
C670   C     0.71935   0.82614   0.26008   0.00000  Uiso   1.00
C671   C     0.82771   0.82125   0.06096   0.00000  Uiso   1.00
C672   C     0.89439   0.79239   0.05598   0.00000  Uiso   1.00
C673   C     0.94747   0.84105   0.24021   0.00000  Uiso   1.00
C674   C     0.80278   0.85613   0.42008   0.00000  Uiso   1.00
C675   C     0.99344   0.84623   0.23764   0.00000  Uiso   1.00
C676   C     0.67420   0.82376   0.26274   0.00000  Uiso   1.00
C677   C     0.84758   0.98925   0.23594   0.00000  Uiso   1.00
C678   C     0.81849   0.67839   0.26319   0.00000  Uiso   1.00
C679   C     0.82228   0.72262   0.26046   0.00000  Uiso   1.00
C680   C     0.84331   0.94464   0.24005   0.00000  Uiso   1.00
C681   C     0.74314   0.85523   0.48619   0.00000  Uiso   1.00
C682   C     0.85076   0.81583   0.12943   0.00000  Uiso   1.00
C683   C     0.81534   0.85186   0.37082   0.00000  Uiso   1.00
C684   C     0.90527   0.79209   0.00975   0.00000  Uiso   1.00
C685   C     0.85730   0.80901   0.08139   0.00000  Uiso   1.00
C686   C     0.76055   0.86502   0.44234   0.00000  Uiso   1.00
C687   C     0.92827   0.73579   0.46235   0.00000  Uiso   1.00
C688   C     0.92184   0.69882   0.49065   0.00000  Uiso   1.00
C689   C     0.91276   0.99066   0.46422   0.00000  Uiso   1.00
C690   C     0.75895   0.81479   0.11341   0.00000  Uiso   1.00
C691   C     0.75331   0.76787   0.09682   0.00000  Uiso   1.00
C692   C     0.76798   0.83951   0.00862   0.00000  Uiso   1.00
C693   C     0.71235   0.74492   0.12532   0.00000  Uiso   1.00
C694   C     0.73734   0.92135   0.42418   0.00000  Uiso   1.00
C695   C     0.70880   0.93528   0.39833   0.00000  Uiso   1.00
C696   C     0.71135   0.98278   0.40165   0.00000  Uiso   1.00
C697   C     0.81235   0.83643   0.49001   0.00000  Uiso   1.00
C698   C     0.82971   0.84521   0.44485   0.00000  Uiso   1.00
C699   C     0.83946   0.82290   0.01370   0.00000  Uiso   1.00
C700   C     0.88130   0.81283   0.48918   0.00000  Uiso   1.00
C701   C     0.89890   0.82589   0.44576   0.00000  Uiso   1.00
C702   C     0.87368   0.84319   0.42517   0.00000  Uiso   1.00
H703   H     0.98590   0.80091   0.28367   0.00000  Uiso   1.00
H704   H     0.90808   0.96459   0.48568   0.00000  Uiso   1.00
H705   H     0.94034   0.98602   0.43481   0.00000  Uiso   1.00
H706   H     0.72858   0.82720   0.11461   0.00000  Uiso   1.00
H707   H     0.76043   0.81904   0.14857   0.00000  Uiso   1.00
H708   H     0.75124   0.76413   0.06168   0.00000  Uiso   1.00
H709   H     0.78112   0.75269   0.09852   0.00000  Uiso   1.00
H710   H     0.71386   0.74738   0.16063   0.00000  Uiso   1.00
H711   H     0.70911   0.71139   0.11306   0.00000  Uiso   1.00
H712   H     0.68349   0.75831   0.12336   0.00000  Uiso   1.00
H713   H     0.77135   0.93536   0.41045   0.00000  Uiso   1.00
H714   H     0.79148   0.99763   0.28820   0.00000  Uiso   1.00
H715   H     0.72637   0.93304   0.45986   0.00000  Uiso   1.00
H716   H     0.71925   0.92360   0.36268   0.00000  Uiso   1.00
H717   H     0.67474   0.92173   0.41188   0.00000  Uiso   1.00
H718   H     0.70010   0.99506   0.43696   0.00000  Uiso   1.00
H719   H     0.69039   0.99177   0.38243   0.00000  Uiso   1.00
H720   H     0.74504   0.99704   0.38766   0.00000  Uiso   1.00
H721   H     0.75036   0.82813   0.03958   0.00000  Uiso   1.00
H722   H     0.88924   0.85536   0.39323   0.00000  Uiso   1.00
H723   H     0.95468   0.73086   0.43186   0.00000  Uiso   1.00
H724   H     0.89874   0.73653   0.45074   0.00000  Uiso   1.00
H725   H     0.95139   0.69855   0.00211   0.00000  Uiso   1.00
H726   H     0.89424   0.70219   0.02036   0.00000  Uiso   1.00
H727   H     0.88300   0.98997   0.45286   0.00000  Uiso   1.00
O728   O     0.83333   0.83333   0.25000   0.00000  Uiso   1.00
O729   O     0.82118   0.79304   0.15458   0.00000  Uiso   1.00
O730   O     0.79607   0.87058   0.34968   0.00000  Uiso   1.00
O731   O     0.87491   0.84425   0.14606   0.00000  Uiso   1.00
O732   O     0.84118   0.82546   0.34968   0.00000  Uiso   1.00
O733   O     0.94118   0.77364   0.48569   0.00000  Uiso   1.00
O734   O     0.79344   0.84136   0.08709   0.00000  Uiso   1.00
O735   O     0.73387   0.87728   0.41970   0.00000  Uiso   1.00
O736   O     0.84597   0.74686   0.28213   0.00000  Uiso   1.00
O737   O     0.81298   0.92751   0.27013   0.00000  Uiso   1.00
O738   O     0.74078   0.79958   0.23413   0.00000  Uiso   1.00
O739   O     0.93360   0.85939   0.21360   0.00000  Uiso   1.00
O740   O     0.73738   0.85544   0.28213   0.00000  Uiso   1.00
O741   O     0.92158   0.81892   0.27013   0.00000  Uiso   1.00
O742   O     0.80426   0.73610   0.23413   0.00000  Uiso   1.00
O743   O     0.87012   0.92286   0.21360   0.00000  Uiso   1.00
Zn744  Zn    0.86005   0.80661   0.28734   0.00000  Uiso   1.00
Zn745  Zn    0.80046   0.79124   0.21875   0.00000  Uiso   1.00
Zn746  Zn    0.87723   0.86442   0.20657   0.00000  Uiso   1.00
Zn747  Zn    0.79560   0.87106   0.28733   0.00000  Uiso   1.00
Br748  Br    0.26542   0.10474   0.58423   0.00000  Uiso   1.00
Br749  Br    0.22866   0.01423   0.69118   0.00000  Uiso   1.00
Br750  Br    0.29224   0.16072   0.91393   0.00000  Uiso   1.00
Br751  Br    0.01686   0.19260   0.51513   0.00000  Uiso   1.00
Br752  Br    0.03177   0.21937   0.69946   0.00000  Uiso   1.00
C753   C     0.05268   0.15947   0.76008   0.00000  Uiso   1.00
C754   C     0.16105   0.15459   0.56096   0.00000  Uiso   1.00
C755   C     0.22772   0.12572   0.55598   0.00000  Uiso   1.00
C756   C     0.28081   0.17438   0.74021   0.00000  Uiso   1.00
C757   C     0.13611   0.18947   0.92008   0.00000  Uiso   1.00
C758   C     0.32678   0.17956   0.73764   0.00000  Uiso   1.00
C759   C     0.00754   0.15710   0.76274   0.00000  Uiso   1.00
C760   C     0.18091   0.32258   0.73594   0.00000  Uiso   1.00
C761   C     0.15182   0.01172   0.76319   0.00000  Uiso   1.00
C762   C     0.15562   0.05595   0.76046   0.00000  Uiso   1.00
C763   C     0.17664   0.27797   0.74005   0.00000  Uiso   1.00
C764   C     0.07647   0.18857   0.98619   0.00000  Uiso   1.00
C765   C     0.18410   0.14916   0.62943   0.00000  Uiso   1.00
C766   C     0.14867   0.18519   0.87082   0.00000  Uiso   1.00
C767   C     0.23861   0.12543   0.50975   0.00000  Uiso   1.00
C768   C     0.19063   0.14235   0.58139   0.00000  Uiso   1.00
C769   C     0.09388   0.19836   0.94234   0.00000  Uiso   1.00
C770   C     0.26160   0.06912   0.96235   0.00000  Uiso   1.00
C771   C     0.25518   0.03215   0.99065   0.00000  Uiso   1.00
C772   C     0.24609   0.32400   0.96422   0.00000  Uiso   1.00
C773   C     0.09228   0.14813   0.61341   0.00000  Uiso   1.00
C774   C     0.08665   0.10121   0.59682   0.00000  Uiso   1.00
C775   C     0.10131   0.17284   0.50862   0.00000  Uiso   1.00
C776   C     0.04569   0.07825   0.62532   0.00000  Uiso   1.00
C777   C     0.07068   0.25469   0.92418   0.00000  Uiso   1.00
C778   C     0.04213   0.26861   0.89833   0.00000  Uiso   1.00
C779   C     0.04468   0.31611   0.90165   0.00000  Uiso   1.00
C780   C     0.14568   0.16976   0.99001   0.00000  Uiso   1.00
C781   C     0.16304   0.17855   0.94485   0.00000  Uiso   1.00
C782   C     0.17279   0.15623   0.51370   0.00000  Uiso   1.00
C783   C     0.21463   0.14617   0.98918   0.00000  Uiso   1.00
C784   C     0.23224   0.15922   0.94576   0.00000  Uiso   1.00
C785   C     0.20702   0.17653   0.92517   0.00000  Uiso   1.00
H786   H     0.31923   0.13424   0.78367   0.00000  Uiso   1.00
H787   H     0.24142   0.29792   0.98568   0.00000  Uiso   1.00
H788   H     0.27367   0.31936   0.93481   0.00000  Uiso   1.00
H789   H     0.06192   0.16053   0.61461   0.00000  Uiso   1.00
H790   H     0.09377   0.15238   0.64857   0.00000  Uiso   1.00
H791   H     0.08458   0.09746   0.56168   0.00000  Uiso   1.00
H792   H     0.11446   0.08602   0.59852   0.00000  Uiso   1.00
H793   H     0.04719   0.08071   0.66063   0.00000  Uiso   1.00
H794   H     0.04244   0.04472   0.61306   0.00000  Uiso   1.00
H795   H     0.01682   0.09165   0.62336   0.00000  Uiso   1.00
H796   H     0.10468   0.26870   0.91045   0.00000  Uiso   1.00
H797   H     0.12481   0.33096   0.78820   0.00000  Uiso   1.00
H798   H     0.05970   0.26638   0.95986   0.00000  Uiso   1.00
H799   H     0.05259   0.25693   0.86268   0.00000  Uiso   1.00
H800   H     0.00807   0.25506   0.91188   0.00000  Uiso   1.00
H801   H     0.03343   0.32840   0.93696   0.00000  Uiso   1.00
H802   H     0.02372   0.32510   0.88243   0.00000  Uiso   1.00
H803   H     0.07837   0.33037   0.88766   0.00000  Uiso   1.00
H804   H     0.08369   0.16146   0.53958   0.00000  Uiso   1.00
H805   H     0.22257   0.18870   0.89323   0.00000  Uiso   1.00
H806   H     0.28802   0.06419   0.93186   0.00000  Uiso   1.00
H807   H     0.23208   0.06986   0.95074   0.00000  Uiso   1.00
H808   H     0.28473   0.03188   0.50211   0.00000  Uiso   1.00
H809   H     0.22757   0.03552   0.52036   0.00000  Uiso   1.00
H810   H     0.21633   0.32330   0.95286   0.00000  Uiso   1.00
O811   O     0.16667   0.16667   0.75000   0.00000  Uiso   1.00
O812   O     0.15451   0.12637   0.65458   0.00000  Uiso   1.00
O813   O     0.12940   0.20391   0.84968   0.00000  Uiso   1.00
O814   O     0.20824   0.17759   0.64606   0.00000  Uiso   1.00
O815   O     0.17451   0.15880   0.84968   0.00000  Uiso   1.00
O816   O     0.27451   0.10697   0.98569   0.00000  Uiso   1.00
O817   O     0.12677   0.17469   0.58709   0.00000  Uiso   1.00
O818   O     0.06721   0.21061   0.91970   0.00000  Uiso   1.00
O819   O     0.17930   0.08019   0.78213   0.00000  Uiso   1.00
O820   O     0.14632   0.26085   0.77013   0.00000  Uiso   1.00
O821   O     0.07412   0.13291   0.73413   0.00000  Uiso   1.00
O822   O     0.26693   0.19272   0.71360   0.00000  Uiso   1.00
O823   O     0.07071   0.18878   0.78213   0.00000  Uiso   1.00
O824   O     0.25491   0.15226   0.77013   0.00000  Uiso   1.00
O825   O     0.13760   0.06944   0.73413   0.00000  Uiso   1.00
O826   O     0.20345   0.25620   0.71360   0.00000  Uiso   1.00
Zn827  Zn    0.19338   0.13994   0.78734   0.00000  Uiso   1.00
Zn828  Zn    0.13379   0.12458   0.71875   0.00000  Uiso   1.00
Zn829  Zn    0.21056   0.19775   0.70657   0.00000  Uiso   1.00
Zn830  Zn    0.12893   0.20439   0.78733   0.00000  Uiso   1.00
Br831  Br    0.59875   0.10474   0.58423   0.00000  Uiso   1.00
Br832  Br    0.56200   0.01423   0.69118   0.00000  Uiso   1.00
Br833  Br    0.62558   0.16072   0.91393   0.00000  Uiso   1.00
Br834  Br    0.35019   0.19260   0.51513   0.00000  Uiso   1.00
Br835  Br    0.36511   0.21937   0.69946   0.00000  Uiso   1.00
C836   C     0.38601   0.15947   0.76008   0.00000  Uiso   1.00
C837   C     0.49438   0.15459   0.56096   0.00000  Uiso   1.00
C838   C     0.56105   0.12572   0.55598   0.00000  Uiso   1.00
C839   C     0.61414   0.17438   0.74021   0.00000  Uiso   1.00
C840   C     0.46944   0.18947   0.92008   0.00000  Uiso   1.00
C841   C     0.66011   0.17956   0.73764   0.00000  Uiso   1.00
C842   C     0.34087   0.15710   0.76274   0.00000  Uiso   1.00
C843   C     0.51425   0.32258   0.73594   0.00000  Uiso   1.00
C844   C     0.48515   0.01172   0.76319   0.00000  Uiso   1.00
C845   C     0.48895   0.05595   0.76046   0.00000  Uiso   1.00
C846   C     0.50998   0.27797   0.74005   0.00000  Uiso   1.00
C847   C     0.40981   0.18857   0.98619   0.00000  Uiso   1.00
C848   C     0.51743   0.14916   0.62943   0.00000  Uiso   1.00
C849   C     0.48201   0.18519   0.87082   0.00000  Uiso   1.00
C850   C     0.57194   0.12543   0.50975   0.00000  Uiso   1.00
C851   C     0.52396   0.14235   0.58139   0.00000  Uiso   1.00
C852   C     0.42722   0.19836   0.94234   0.00000  Uiso   1.00
C853   C     0.59493   0.06912   0.96235   0.00000  Uiso   1.00
C854   C     0.58851   0.03215   0.99065   0.00000  Uiso   1.00
C855   C     0.57942   0.32400   0.96422   0.00000  Uiso   1.00
C856   C     0.42562   0.14813   0.61341   0.00000  Uiso   1.00
C857   C     0.41998   0.10121   0.59682   0.00000  Uiso   1.00
C858   C     0.43464   0.17284   0.50862   0.00000  Uiso   1.00
C859   C     0.37902   0.07825   0.62532   0.00000  Uiso   1.00
C860   C     0.40401   0.25469   0.92418   0.00000  Uiso   1.00
C861   C     0.37547   0.26861   0.89833   0.00000  Uiso   1.00
C862   C     0.37802   0.31611   0.90165   0.00000  Uiso   1.00
C863   C     0.47901   0.16976   0.99001   0.00000  Uiso   1.00
C864   C     0.49637   0.17855   0.94485   0.00000  Uiso   1.00
C865   C     0.50612   0.15623   0.51370   0.00000  Uiso   1.00
C866   C     0.54797   0.14617   0.98918   0.00000  Uiso   1.00
C867   C     0.56557   0.15922   0.94576   0.00000  Uiso   1.00
C868   C     0.54035   0.17653   0.92517   0.00000  Uiso   1.00
H869   H     0.65256   0.13424   0.78367   0.00000  Uiso   1.00
H870   H     0.57475   0.29792   0.98568   0.00000  Uiso   1.00
H871   H     0.60700   0.31936   0.93481   0.00000  Uiso   1.00
H872   H     0.39525   0.16053   0.61461   0.00000  Uiso   1.00
H873   H     0.42710   0.15238   0.64857   0.00000  Uiso   1.00
H874   H     0.41791   0.09746   0.56168   0.00000  Uiso   1.00
H875   H     0.44779   0.08602   0.59852   0.00000  Uiso   1.00
H876   H     0.38053   0.08071   0.66063   0.00000  Uiso   1.00
H877   H     0.37577   0.04472   0.61306   0.00000  Uiso   1.00
H878   H     0.35015   0.09165   0.62336   0.00000  Uiso   1.00
H879   H     0.43801   0.26870   0.91045   0.00000  Uiso   1.00
H880   H     0.45814   0.33096   0.78820   0.00000  Uiso   1.00
H881   H     0.39303   0.26638   0.95986   0.00000  Uiso   1.00
H882   H     0.38592   0.25693   0.86268   0.00000  Uiso   1.00
H883   H     0.34140   0.25506   0.91188   0.00000  Uiso   1.00
H884   H     0.36677   0.32840   0.93696   0.00000  Uiso   1.00
H885   H     0.35705   0.32510   0.88243   0.00000  Uiso   1.00
H886   H     0.41170   0.33037   0.88766   0.00000  Uiso   1.00
H887   H     0.41703   0.16146   0.53958   0.00000  Uiso   1.00
H888   H     0.55590   0.18870   0.89323   0.00000  Uiso   1.00
H889   H     0.62135   0.06419   0.93186   0.00000  Uiso   1.00
H890   H     0.56541   0.06986   0.95074   0.00000  Uiso   1.00
H891   H     0.61806   0.03188   0.50211   0.00000  Uiso   1.00
H892   H     0.56091   0.03552   0.52036   0.00000  Uiso   1.00
H893   H     0.54967   0.32330   0.95286   0.00000  Uiso   1.00
O894   O     0.50000   0.16667   0.75000   0.00000  Uiso   1.00
O895   O     0.48784   0.12637   0.65458   0.00000  Uiso   1.00
O896   O     0.46274   0.20391   0.84968   0.00000  Uiso   1.00
O897   O     0.54157   0.17759   0.64606   0.00000  Uiso   1.00
O898   O     0.50785   0.15880   0.84968   0.00000  Uiso   1.00
O899   O     0.60785   0.10697   0.98569   0.00000  Uiso   1.00
O900   O     0.46010   0.17469   0.58709   0.00000  Uiso   1.00
O901   O     0.40054   0.21061   0.91970   0.00000  Uiso   1.00
O902   O     0.51264   0.08019   0.78213   0.00000  Uiso   1.00
O903   O     0.47965   0.26085   0.77013   0.00000  Uiso   1.00
O904   O     0.40745   0.13291   0.73413   0.00000  Uiso   1.00
O905   O     0.60026   0.19272   0.71360   0.00000  Uiso   1.00
O906   O     0.40405   0.18878   0.78213   0.00000  Uiso   1.00
O907   O     0.58824   0.15226   0.77013   0.00000  Uiso   1.00
O908   O     0.47093   0.06944   0.73413   0.00000  Uiso   1.00
O909   O     0.53678   0.25620   0.71360   0.00000  Uiso   1.00
Zn910  Zn    0.52672   0.13994   0.78734   0.00000  Uiso   1.00
Zn911  Zn    0.46713   0.12458   0.71875   0.00000  Uiso   1.00
Zn912  Zn    0.54389   0.19775   0.70657   0.00000  Uiso   1.00
Zn913  Zn    0.46226   0.20439   0.78733   0.00000  Uiso   1.00
Br914  Br    0.93209   0.10474   0.58423   0.00000  Uiso   1.00
Br915  Br    0.89533   0.01423   0.69118   0.00000  Uiso   1.00
Br916  Br    0.95891   0.16072   0.91393   0.00000  Uiso   1.00
Br917  Br    0.68352   0.19260   0.51513   0.00000  Uiso   1.00
Br918  Br    0.69844   0.21937   0.69946   0.00000  Uiso   1.00
C919   C     0.71935   0.15947   0.76008   0.00000  Uiso   1.00
C920   C     0.82771   0.15459   0.56096   0.00000  Uiso   1.00
C921   C     0.89439   0.12572   0.55598   0.00000  Uiso   1.00
C922   C     0.94747   0.17438   0.74021   0.00000  Uiso   1.00
C923   C     0.80278   0.18947   0.92008   0.00000  Uiso   1.00
C924   C     0.99344   0.17956   0.73764   0.00000  Uiso   1.00
C925   C     0.67420   0.15710   0.76274   0.00000  Uiso   1.00
C926   C     0.84758   0.32258   0.73594   0.00000  Uiso   1.00
C927   C     0.81849   0.01172   0.76319   0.00000  Uiso   1.00
C928   C     0.82228   0.05595   0.76046   0.00000  Uiso   1.00
C929   C     0.84331   0.27797   0.74005   0.00000  Uiso   1.00
C930   C     0.74314   0.18857   0.98619   0.00000  Uiso   1.00
C931   C     0.85076   0.14916   0.62943   0.00000  Uiso   1.00
C932   C     0.81534   0.18519   0.87082   0.00000  Uiso   1.00
C933   C     0.90527   0.12543   0.50975   0.00000  Uiso   1.00
C934   C     0.85730   0.14235   0.58139   0.00000  Uiso   1.00
C935   C     0.76055   0.19836   0.94234   0.00000  Uiso   1.00
C936   C     0.92827   0.06912   0.96235   0.00000  Uiso   1.00
C937   C     0.92184   0.03215   0.99065   0.00000  Uiso   1.00
C938   C     0.91276   0.32400   0.96422   0.00000  Uiso   1.00
C939   C     0.75895   0.14813   0.61341   0.00000  Uiso   1.00
C940   C     0.75331   0.10121   0.59682   0.00000  Uiso   1.00
C941   C     0.76798   0.17284   0.50862   0.00000  Uiso   1.00
C942   C     0.71235   0.07825   0.62532   0.00000  Uiso   1.00
C943   C     0.73734   0.25469   0.92418   0.00000  Uiso   1.00
C944   C     0.70880   0.26861   0.89833   0.00000  Uiso   1.00
C945   C     0.71135   0.31611   0.90165   0.00000  Uiso   1.00
C946   C     0.81235   0.16976   0.99001   0.00000  Uiso   1.00
C947   C     0.82971   0.17855   0.94485   0.00000  Uiso   1.00
C948   C     0.83946   0.15623   0.51370   0.00000  Uiso   1.00
C949   C     0.88130   0.14617   0.98918   0.00000  Uiso   1.00
C950   C     0.89890   0.15922   0.94576   0.00000  Uiso   1.00
C951   C     0.87368   0.17653   0.92517   0.00000  Uiso   1.00
H952   H     0.98590   0.13424   0.78367   0.00000  Uiso   1.00
H953   H     0.90808   0.29792   0.98568   0.00000  Uiso   1.00
H954   H     0.94034   0.31936   0.93481   0.00000  Uiso   1.00
H955   H     0.72858   0.16053   0.61461   0.00000  Uiso   1.00
H956   H     0.76043   0.15238   0.64857   0.00000  Uiso   1.00
H957   H     0.75124   0.09746   0.56168   0.00000  Uiso   1.00
H958   H     0.78112   0.08602   0.59852   0.00000  Uiso   1.00
H959   H     0.71386   0.08071   0.66063   0.00000  Uiso   1.00
H960   H     0.70911   0.04472   0.61306   0.00000  Uiso   1.00
H961   H     0.68349   0.09165   0.62336   0.00000  Uiso   1.00
H962   H     0.77135   0.26870   0.91045   0.00000  Uiso   1.00
H963   H     0.79148   0.33096   0.78820   0.00000  Uiso   1.00
H964   H     0.72637   0.26638   0.95986   0.00000  Uiso   1.00
H965   H     0.71925   0.25693   0.86268   0.00000  Uiso   1.00
H966   H     0.67474   0.25506   0.91188   0.00000  Uiso   1.00
H967   H     0.70010   0.32840   0.93696   0.00000  Uiso   1.00
H968   H     0.69039   0.32510   0.88243   0.00000  Uiso   1.00
H969   H     0.74504   0.33037   0.88766   0.00000  Uiso   1.00
H970   H     0.75036   0.16146   0.53958   0.00000  Uiso   1.00
H971   H     0.88924   0.18870   0.89323   0.00000  Uiso   1.00
H972   H     0.95468   0.06419   0.93186   0.00000  Uiso   1.00
H973   H     0.89874   0.06986   0.95074   0.00000  Uiso   1.00
H974   H     0.95139   0.03188   0.50211   0.00000  Uiso   1.00
H975   H     0.89424   0.03552   0.52036   0.00000  Uiso   1.00
H976   H     0.88300   0.32330   0.95286   0.00000  Uiso   1.00
O977   O     0.83333   0.16667   0.75000   0.00000  Uiso   1.00
O978   O     0.82118   0.12637   0.65458   0.00000  Uiso   1.00
O979   O     0.79607   0.20391   0.84968   0.00000  Uiso   1.00
O980   O     0.87491   0.17759   0.64606   0.00000  Uiso   1.00
O981   O     0.84118   0.15880   0.84968   0.00000  Uiso   1.00
O982   O     0.94118   0.10697   0.98569   0.00000  Uiso   1.00
O983   O     0.79344   0.17469   0.58709   0.00000  Uiso   1.00
O984   O     0.73387   0.21061   0.91970   0.00000  Uiso   1.00
O985   O     0.84597   0.08019   0.78213   0.00000  Uiso   1.00
O986   O     0.81298   0.26085   0.77013   0.00000  Uiso   1.00
O987   O     0.74078   0.13291   0.73413   0.00000  Uiso   1.00
O988   O     0.93360   0.19272   0.71360   0.00000  Uiso   1.00
O989   O     0.73738   0.18878   0.78213   0.00000  Uiso   1.00
O990   O     0.92158   0.15226   0.77013   0.00000  Uiso   1.00
O991   O     0.80426   0.06944   0.73413   0.00000  Uiso   1.00
O992   O     0.87012   0.25620   0.71360   0.00000  Uiso   1.00
Zn993  Zn    0.86005   0.13994   0.78734   0.00000  Uiso   1.00
Zn994  Zn    0.80046   0.12458   0.71875   0.00000  Uiso   1.00
Zn995  Zn    0.87723   0.19775   0.70657   0.00000  Uiso   1.00
Zn996  Zn    0.79560   0.20439   0.78733   0.00000  Uiso   1.00
Br997  Br    0.26542   0.43807   0.58423   0.00000  Uiso   1.00
Br998  Br    0.22866   0.34756   0.69118   0.00000  Uiso   1.00
Br999  Br    0.29224   0.49405   0.91393   0.00000  Uiso   1.00
Br1000 Br    0.01686   0.52593   0.51513   0.00000  Uiso   1.00
Br1001 Br    0.03177   0.55270   0.69946   0.00000  Uiso   1.00
C1002  C     0.05268   0.49281   0.76008   0.00000  Uiso   1.00
C1003  C     0.16105   0.48792   0.56096   0.00000  Uiso   1.00
C1004  C     0.22772   0.45906   0.55598   0.00000  Uiso   1.00
C1005  C     0.28081   0.50771   0.74021   0.00000  Uiso   1.00
C1006  C     0.13611   0.52280   0.92008   0.00000  Uiso   1.00
C1007  C     0.32678   0.51289   0.73764   0.00000  Uiso   1.00
C1008  C     0.00754   0.49043   0.76274   0.00000  Uiso   1.00
C1009  C     0.18091   0.65591   0.73594   0.00000  Uiso   1.00
C1010  C     0.15182   0.34506   0.76319   0.00000  Uiso   1.00
C1011  C     0.15562   0.38928   0.76046   0.00000  Uiso   1.00
C1012  C     0.17664   0.61130   0.74005   0.00000  Uiso   1.00
C1013  C     0.07647   0.52190   0.98619   0.00000  Uiso   1.00
C1014  C     0.18410   0.48250   0.62943   0.00000  Uiso   1.00
C1015  C     0.14867   0.51852   0.87082   0.00000  Uiso   1.00
C1016  C     0.23861   0.45876   0.50975   0.00000  Uiso   1.00
C1017  C     0.19063   0.47568   0.58139   0.00000  Uiso   1.00
C1018  C     0.09388   0.53169   0.94234   0.00000  Uiso   1.00
C1019  C     0.26160   0.40246   0.96235   0.00000  Uiso   1.00
C1020  C     0.25518   0.36548   0.99065   0.00000  Uiso   1.00
C1021  C     0.24609   0.65733   0.96422   0.00000  Uiso   1.00
C1022  C     0.09228   0.48146   0.61341   0.00000  Uiso   1.00
C1023  C     0.08665   0.43454   0.59682   0.00000  Uiso   1.00
C1024  C     0.10131   0.50618   0.50862   0.00000  Uiso   1.00
C1025  C     0.04569   0.41158   0.62532   0.00000  Uiso   1.00
C1026  C     0.07068   0.58802   0.92418   0.00000  Uiso   1.00
C1027  C     0.04213   0.60194   0.89833   0.00000  Uiso   1.00
C1028  C     0.04468   0.64944   0.90165   0.00000  Uiso   1.00
C1029  C     0.14568   0.50309   0.99001   0.00000  Uiso   1.00
C1030  C     0.16304   0.51188   0.94485   0.00000  Uiso   1.00
C1031  C     0.17279   0.48957   0.51370   0.00000  Uiso   1.00
C1032  C     0.21463   0.47950   0.98918   0.00000  Uiso   1.00
C1033  C     0.23224   0.49256   0.94576   0.00000  Uiso   1.00
C1034  C     0.20702   0.50986   0.92517   0.00000  Uiso   1.00
H1035  H     0.31923   0.46758   0.78367   0.00000  Uiso   1.00
H1036  H     0.24142   0.63125   0.98568   0.00000  Uiso   1.00
H1037  H     0.27367   0.65269   0.93481   0.00000  Uiso   1.00
H1038  H     0.06192   0.49386   0.61461   0.00000  Uiso   1.00
H1039  H     0.09377   0.48571   0.64857   0.00000  Uiso   1.00
H1040  H     0.08458   0.43080   0.56168   0.00000  Uiso   1.00
H1041  H     0.11446   0.41935   0.59852   0.00000  Uiso   1.00
H1042  H     0.04719   0.41404   0.66063   0.00000  Uiso   1.00
H1043  H     0.04244   0.37805   0.61306   0.00000  Uiso   1.00
H1044  H     0.01682   0.42498   0.62336   0.00000  Uiso   1.00
H1045  H     0.10468   0.60203   0.91045   0.00000  Uiso   1.00
H1046  H     0.12481   0.66430   0.78820   0.00000  Uiso   1.00
H1047  H     0.05970   0.59971   0.95986   0.00000  Uiso   1.00
H1048  H     0.05259   0.59027   0.86268   0.00000  Uiso   1.00
H1049  H     0.00807   0.58840   0.91188   0.00000  Uiso   1.00
H1050  H     0.03343   0.66173   0.93696   0.00000  Uiso   1.00
H1051  H     0.02372   0.65844   0.88243   0.00000  Uiso   1.00
H1052  H     0.07837   0.66371   0.88766   0.00000  Uiso   1.00
H1053  H     0.08369   0.49480   0.53958   0.00000  Uiso   1.00
H1054  H     0.22257   0.52203   0.89323   0.00000  Uiso   1.00
H1055  H     0.28802   0.39752   0.93186   0.00000  Uiso   1.00
H1056  H     0.23208   0.40319   0.95074   0.00000  Uiso   1.00
H1057  H     0.28473   0.36521   0.50211   0.00000  Uiso   1.00
H1058  H     0.22757   0.36885   0.52036   0.00000  Uiso   1.00
H1059  H     0.21633   0.65663   0.95286   0.00000  Uiso   1.00
O1060  O     0.16667   0.50000   0.75000   0.00000  Uiso   1.00
O1061  O     0.15451   0.45970   0.65458   0.00000  Uiso   1.00
O1062  O     0.12940   0.53724   0.84968   0.00000  Uiso   1.00
O1063  O     0.20824   0.51092   0.64606   0.00000  Uiso   1.00
O1064  O     0.17451   0.49213   0.84968   0.00000  Uiso   1.00
O1065  O     0.27451   0.44030   0.98569   0.00000  Uiso   1.00
O1066  O     0.12677   0.50802   0.58709   0.00000  Uiso   1.00
O1067  O     0.06721   0.54395   0.91970   0.00000  Uiso   1.00
O1068  O     0.17930   0.41352   0.78213   0.00000  Uiso   1.00
O1069  O     0.14632   0.59418   0.77013   0.00000  Uiso   1.00
O1070  O     0.07412   0.46625   0.73413   0.00000  Uiso   1.00
O1071  O     0.26693   0.52605   0.71360   0.00000  Uiso   1.00
O1072  O     0.07071   0.52211   0.78213   0.00000  Uiso   1.00
O1073  O     0.25491   0.48559   0.77013   0.00000  Uiso   1.00
O1074  O     0.13760   0.40277   0.73413   0.00000  Uiso   1.00
O1075  O     0.20345   0.58953   0.71360   0.00000  Uiso   1.00
Zn1076 Zn    0.19338   0.47327   0.78734   0.00000  Uiso   1.00
Zn1077 Zn    0.13379   0.45791   0.71875   0.00000  Uiso   1.00
Zn1078 Zn    0.21056   0.53109   0.70657   0.00000  Uiso   1.00
Zn1079 Zn    0.12893   0.53773   0.78733   0.00000  Uiso   1.00
Br1080 Br    0.59875   0.43807   0.58423   0.00000  Uiso   1.00
Br1081 Br    0.56200   0.34756   0.69118   0.00000  Uiso   1.00
Br1082 Br    0.62558   0.49405   0.91393   0.00000  Uiso   1.00
Br1083 Br    0.35019   0.52593   0.51513   0.00000  Uiso   1.00
Br1084 Br    0.36511   0.55270   0.69946   0.00000  Uiso   1.00
C1085  C     0.38601   0.49281   0.76008   0.00000  Uiso   1.00
C1086  C     0.49438   0.48792   0.56096   0.00000  Uiso   1.00
C1087  C     0.56105   0.45906   0.55598   0.00000  Uiso   1.00
C1088  C     0.61414   0.50771   0.74021   0.00000  Uiso   1.00
C1089  C     0.46944   0.52280   0.92008   0.00000  Uiso   1.00
C1090  C     0.66011   0.51289   0.73764   0.00000  Uiso   1.00
C1091  C     0.34087   0.49043   0.76274   0.00000  Uiso   1.00
C1092  C     0.51425   0.65591   0.73594   0.00000  Uiso   1.00
C1093  C     0.48515   0.34506   0.76319   0.00000  Uiso   1.00
C1094  C     0.48895   0.38928   0.76046   0.00000  Uiso   1.00
C1095  C     0.50998   0.61130   0.74005   0.00000  Uiso   1.00
C1096  C     0.40981   0.52190   0.98619   0.00000  Uiso   1.00
C1097  C     0.51743   0.48250   0.62943   0.00000  Uiso   1.00
C1098  C     0.48201   0.51852   0.87082   0.00000  Uiso   1.00
C1099  C     0.57194   0.45876   0.50975   0.00000  Uiso   1.00
C1100  C     0.52396   0.47568   0.58139   0.00000  Uiso   1.00
C1101  C     0.42722   0.53169   0.94234   0.00000  Uiso   1.00
C1102  C     0.59493   0.40246   0.96235   0.00000  Uiso   1.00
C1103  C     0.58851   0.36548   0.99065   0.00000  Uiso   1.00
C1104  C     0.57942   0.65733   0.96422   0.00000  Uiso   1.00
C1105  C     0.42562   0.48146   0.61341   0.00000  Uiso   1.00
C1106  C     0.41998   0.43454   0.59682   0.00000  Uiso   1.00
C1107  C     0.43464   0.50618   0.50862   0.00000  Uiso   1.00
C1108  C     0.37902   0.41158   0.62532   0.00000  Uiso   1.00
C1109  C     0.40401   0.58802   0.92418   0.00000  Uiso   1.00
C1110  C     0.37547   0.60194   0.89833   0.00000  Uiso   1.00
C1111  C     0.37802   0.64944   0.90165   0.00000  Uiso   1.00
C1112  C     0.47901   0.50309   0.99001   0.00000  Uiso   1.00
C1113  C     0.49637   0.51188   0.94485   0.00000  Uiso   1.00
C1114  C     0.50612   0.48957   0.51370   0.00000  Uiso   1.00
C1115  C     0.54797   0.47950   0.98918   0.00000  Uiso   1.00
C1116  C     0.56557   0.49256   0.94576   0.00000  Uiso   1.00
C1117  C     0.54035   0.50986   0.92517   0.00000  Uiso   1.00
H1118  H     0.65256   0.46758   0.78367   0.00000  Uiso   1.00
H1119  H     0.57475   0.63125   0.98568   0.00000  Uiso   1.00
H1120  H     0.60700   0.65269   0.93481   0.00000  Uiso   1.00
H1121  H     0.39525   0.49386   0.61461   0.00000  Uiso   1.00
H1122  H     0.42710   0.48571   0.64857   0.00000  Uiso   1.00
H1123  H     0.41791   0.43080   0.56168   0.00000  Uiso   1.00
H1124  H     0.44779   0.41935   0.59852   0.00000  Uiso   1.00
H1125  H     0.38053   0.41404   0.66063   0.00000  Uiso   1.00
H1126  H     0.37577   0.37805   0.61306   0.00000  Uiso   1.00
H1127  H     0.35015   0.42498   0.62336   0.00000  Uiso   1.00
H1128  H     0.43801   0.60203   0.91045   0.00000  Uiso   1.00
H1129  H     0.45814   0.66430   0.78820   0.00000  Uiso   1.00
H1130  H     0.39303   0.59971   0.95986   0.00000  Uiso   1.00
H1131  H     0.38592   0.59027   0.86268   0.00000  Uiso   1.00
H1132  H     0.34140   0.58840   0.91188   0.00000  Uiso   1.00
H1133  H     0.36677   0.66173   0.93696   0.00000  Uiso   1.00
H1134  H     0.35705   0.65844   0.88243   0.00000  Uiso   1.00
H1135  H     0.41170   0.66371   0.88766   0.00000  Uiso   1.00
H1136  H     0.41703   0.49480   0.53958   0.00000  Uiso   1.00
H1137  H     0.55590   0.52203   0.89323   0.00000  Uiso   1.00
H1138  H     0.62135   0.39752   0.93186   0.00000  Uiso   1.00
H1139  H     0.56541   0.40319   0.95074   0.00000  Uiso   1.00
H1140  H     0.61806   0.36521   0.50211   0.00000  Uiso   1.00
H1141  H     0.56091   0.36885   0.52036   0.00000  Uiso   1.00
H1142  H     0.54967   0.65663   0.95286   0.00000  Uiso   1.00
O1143  O     0.50000   0.50000   0.75000   0.00000  Uiso   1.00
O1144  O     0.48784   0.45970   0.65458   0.00000  Uiso   1.00
O1145  O     0.46274   0.53724   0.84968   0.00000  Uiso   1.00
O1146  O     0.54157   0.51092   0.64606   0.00000  Uiso   1.00
O1147  O     0.50785   0.49213   0.84968   0.00000  Uiso   1.00
O1148  O     0.60785   0.44030   0.98569   0.00000  Uiso   1.00
O1149  O     0.46010   0.50802   0.58709   0.00000  Uiso   1.00
O1150  O     0.40054   0.54395   0.91970   0.00000  Uiso   1.00
O1151  O     0.51264   0.41352   0.78213   0.00000  Uiso   1.00
O1152  O     0.47965   0.59418   0.77013   0.00000  Uiso   1.00
O1153  O     0.40745   0.46625   0.73413   0.00000  Uiso   1.00
O1154  O     0.60026   0.52605   0.71360   0.00000  Uiso   1.00
O1155  O     0.40405   0.52211   0.78213   0.00000  Uiso   1.00
O1156  O     0.58824   0.48559   0.77013   0.00000  Uiso   1.00
O1157  O     0.47093   0.40277   0.73413   0.00000  Uiso   1.00
O1158  O     0.53678   0.58953   0.71360   0.00000  Uiso   1.00
Zn1159 Zn    0.52672   0.47327   0.78734   0.00000  Uiso   1.00
Zn1160 Zn    0.46713   0.45791   0.71875   0.00000  Uiso   1.00
Zn1161 Zn    0.54389   0.53109   0.70657   0.00000  Uiso   1.00
Zn1162 Zn    0.46226   0.53773   0.78733   0.00000  Uiso   1.00
Br1163 Br    0.93209   0.43807   0.58423   0.00000  Uiso   1.00
Br1164 Br    0.89533   0.34756   0.69118   0.00000  Uiso   1.00
Br1165 Br    0.95891   0.49405   0.91393   0.00000  Uiso   1.00
Br1166 Br    0.68352   0.52593   0.51513   0.00000  Uiso   1.00
Br1167 Br    0.69844   0.55270   0.69946   0.00000  Uiso   1.00
C1168  C     0.71935   0.49281   0.76008   0.00000  Uiso   1.00
C1169  C     0.82771   0.48792   0.56096   0.00000  Uiso   1.00
C1170  C     0.89439   0.45906   0.55598   0.00000  Uiso   1.00
C1171  C     0.94747   0.50771   0.74021   0.00000  Uiso   1.00
C1172  C     0.80278   0.52280   0.92008   0.00000  Uiso   1.00
C1173  C     0.99344   0.51289   0.73764   0.00000  Uiso   1.00
C1174  C     0.67420   0.49043   0.76274   0.00000  Uiso   1.00
C1175  C     0.84758   0.65591   0.73594   0.00000  Uiso   1.00
C1176  C     0.81849   0.34506   0.76319   0.00000  Uiso   1.00
C1177  C     0.82228   0.38928   0.76046   0.00000  Uiso   1.00
C1178  C     0.84331   0.61130   0.74005   0.00000  Uiso   1.00
C1179  C     0.74314   0.52190   0.98619   0.00000  Uiso   1.00
C1180  C     0.85076   0.48250   0.62943   0.00000  Uiso   1.00
C1181  C     0.81534   0.51852   0.87082   0.00000  Uiso   1.00
C1182  C     0.90527   0.45876   0.50975   0.00000  Uiso   1.00
C1183  C     0.85730   0.47568   0.58139   0.00000  Uiso   1.00
C1184  C     0.76055   0.53169   0.94234   0.00000  Uiso   1.00
C1185  C     0.92827   0.40246   0.96235   0.00000  Uiso   1.00
C1186  C     0.92184   0.36548   0.99065   0.00000  Uiso   1.00
C1187  C     0.91276   0.65733   0.96422   0.00000  Uiso   1.00
C1188  C     0.75895   0.48146   0.61341   0.00000  Uiso   1.00
C1189  C     0.75331   0.43454   0.59682   0.00000  Uiso   1.00
C1190  C     0.76798   0.50618   0.50862   0.00000  Uiso   1.00
C1191  C     0.71235   0.41158   0.62532   0.00000  Uiso   1.00
C1192  C     0.73734   0.58802   0.92418   0.00000  Uiso   1.00
C1193  C     0.70880   0.60194   0.89833   0.00000  Uiso   1.00
C1194  C     0.71135   0.64944   0.90165   0.00000  Uiso   1.00
C1195  C     0.81235   0.50309   0.99001   0.00000  Uiso   1.00
C1196  C     0.82971   0.51188   0.94485   0.00000  Uiso   1.00
C1197  C     0.83946   0.48957   0.51370   0.00000  Uiso   1.00
C1198  C     0.88130   0.47950   0.98918   0.00000  Uiso   1.00
C1199  C     0.89890   0.49256   0.94576   0.00000  Uiso   1.00
C1200  C     0.87368   0.50986   0.92517   0.00000  Uiso   1.00
H1201  H     0.98590   0.46758   0.78367   0.00000  Uiso   1.00
H1202  H     0.90808   0.63125   0.98568   0.00000  Uiso   1.00
H1203  H     0.94034   0.65269   0.93481   0.00000  Uiso   1.00
H1204  H     0.72858   0.49386   0.61461   0.00000  Uiso   1.00
H1205  H     0.76043   0.48571   0.64857   0.00000  Uiso   1.00
H1206  H     0.75124   0.43080   0.56168   0.00000  Uiso   1.00
H1207  H     0.78112   0.41935   0.59852   0.00000  Uiso   1.00
H1208  H     0.71386   0.41404   0.66063   0.00000  Uiso   1.00
H1209  H     0.70911   0.37805   0.61306   0.00000  Uiso   1.00
H1210  H     0.68349   0.42498   0.62336   0.00000  Uiso   1.00
H1211  H     0.77135   0.60203   0.91045   0.00000  Uiso   1.00
H1212  H     0.79148   0.66430   0.78820   0.00000  Uiso   1.00
H1213  H     0.72637   0.59971   0.95986   0.00000  Uiso   1.00
H1214  H     0.71925   0.59027   0.86268   0.00000  Uiso   1.00
H1215  H     0.67474   0.58840   0.91188   0.00000  Uiso   1.00
H1216  H     0.70010   0.66173   0.93696   0.00000  Uiso   1.00
H1217  H     0.69039   0.65844   0.88243   0.00000  Uiso   1.00
H1218  H     0.74504   0.66371   0.88766   0.00000  Uiso   1.00
H1219  H     0.75036   0.49480   0.53958   0.00000  Uiso   1.00
H1220  H     0.88924   0.52203   0.89323   0.00000  Uiso   1.00
H1221  H     0.95468   0.39752   0.93186   0.00000  Uiso   1.00
H1222  H     0.89874   0.40319   0.95074   0.00000  Uiso   1.00
H1223  H     0.95139   0.36521   0.50211   0.00000  Uiso   1.00
H1224  H     0.89424   0.36885   0.52036   0.00000  Uiso   1.00
H1225  H     0.88300   0.65663   0.95286   0.00000  Uiso   1.00
O1226  O     0.83333   0.50000   0.75000   0.00000  Uiso   1.00
O1227  O     0.82118   0.45970   0.65458   0.00000  Uiso   1.00
O1228  O     0.79607   0.53724   0.84968   0.00000  Uiso   1.00
O1229  O     0.87491   0.51092   0.64606   0.00000  Uiso   1.00
O1230  O     0.84118   0.49213   0.84968   0.00000  Uiso   1.00
O1231  O     0.94118   0.44030   0.98569   0.00000  Uiso   1.00
O1232  O     0.79344   0.50802   0.58709   0.00000  Uiso   1.00
O1233  O     0.73387   0.54395   0.91970   0.00000  Uiso   1.00
O1234  O     0.84597   0.41352   0.78213   0.00000  Uiso   1.00
O1235  O     0.81298   0.59418   0.77013   0.00000  Uiso   1.00
O1236  O     0.74078   0.46625   0.73413   0.00000  Uiso   1.00
O1237  O     0.93360   0.52605   0.71360   0.00000  Uiso   1.00
O1238  O     0.73738   0.52211   0.78213   0.00000  Uiso   1.00
O1239  O     0.92158   0.48559   0.77013   0.00000  Uiso   1.00
O1240  O     0.80426   0.40277   0.73413   0.00000  Uiso   1.00
O1241  O     0.87012   0.58953   0.71360   0.00000  Uiso   1.00
Zn1242 Zn    0.86005   0.47327   0.78734   0.00000  Uiso   1.00
Zn1243 Zn    0.80046   0.45791   0.71875   0.00000  Uiso   1.00
Zn1244 Zn    0.87723   0.53109   0.70657   0.00000  Uiso   1.00
Zn1245 Zn    0.79560   0.53773   0.78733   0.00000  Uiso   1.00
Br1246 Br    0.26542   0.77141   0.58423   0.00000  Uiso   1.00
Br1247 Br    0.22866   0.68090   0.69118   0.00000  Uiso   1.00
Br1248 Br    0.29224   0.82738   0.91393   0.00000  Uiso   1.00
Br1249 Br    0.01686   0.85927   0.51513   0.00000  Uiso   1.00
Br1250 Br    0.03177   0.88604   0.69946   0.00000  Uiso   1.00
C1251  C     0.05268   0.82614   0.76008   0.00000  Uiso   1.00
C1252  C     0.16105   0.82125   0.56096   0.00000  Uiso   1.00
C1253  C     0.22772   0.79239   0.55598   0.00000  Uiso   1.00
C1254  C     0.28081   0.84105   0.74021   0.00000  Uiso   1.00
C1255  C     0.13611   0.85613   0.92008   0.00000  Uiso   1.00
C1256  C     0.32678   0.84623   0.73764   0.00000  Uiso   1.00
C1257  C     0.00754   0.82376   0.76274   0.00000  Uiso   1.00
C1258  C     0.18091   0.98925   0.73594   0.00000  Uiso   1.00
C1259  C     0.15182   0.67839   0.76319   0.00000  Uiso   1.00
C1260  C     0.15562   0.72262   0.76046   0.00000  Uiso   1.00
C1261  C     0.17664   0.94464   0.74005   0.00000  Uiso   1.00
C1262  C     0.07647   0.85523   0.98619   0.00000  Uiso   1.00
C1263  C     0.18410   0.81583   0.62943   0.00000  Uiso   1.00
C1264  C     0.14867   0.85186   0.87082   0.00000  Uiso   1.00
C1265  C     0.23861   0.79209   0.50975   0.00000  Uiso   1.00
C1266  C     0.19063   0.80901   0.58139   0.00000  Uiso   1.00
C1267  C     0.09388   0.86502   0.94234   0.00000  Uiso   1.00
C1268  C     0.26160   0.73579   0.96235   0.00000  Uiso   1.00
C1269  C     0.25518   0.69882   0.99065   0.00000  Uiso   1.00
C1270  C     0.24609   0.99066   0.96422   0.00000  Uiso   1.00
C1271  C     0.09228   0.81479   0.61341   0.00000  Uiso   1.00
C1272  C     0.08665   0.76787   0.59682   0.00000  Uiso   1.00
C1273  C     0.10131   0.83951   0.50862   0.00000  Uiso   1.00
C1274  C     0.04569   0.74492   0.62532   0.00000  Uiso   1.00
C1275  C     0.07068   0.92135   0.92418   0.00000  Uiso   1.00
C1276  C     0.04213   0.93528   0.89833   0.00000  Uiso   1.00
C1277  C     0.04468   0.98278   0.90165   0.00000  Uiso   1.00
C1278  C     0.14568   0.83643   0.99001   0.00000  Uiso   1.00
C1279  C     0.16304   0.84521   0.94485   0.00000  Uiso   1.00
C1280  C     0.17279   0.82290   0.51370   0.00000  Uiso   1.00
C1281  C     0.21463   0.81283   0.98918   0.00000  Uiso   1.00
C1282  C     0.23224   0.82589   0.94576   0.00000  Uiso   1.00
C1283  C     0.20702   0.84319   0.92517   0.00000  Uiso   1.00
H1284  H     0.31923   0.80091   0.78367   0.00000  Uiso   1.00
H1285  H     0.24142   0.96459   0.98568   0.00000  Uiso   1.00
H1286  H     0.27367   0.98602   0.93481   0.00000  Uiso   1.00
H1287  H     0.06192   0.82720   0.61461   0.00000  Uiso   1.00
H1288  H     0.09377   0.81904   0.64857   0.00000  Uiso   1.00
H1289  H     0.08458   0.76413   0.56168   0.00000  Uiso   1.00
H1290  H     0.11446   0.75269   0.59852   0.00000  Uiso   1.00
H1291  H     0.04719   0.74738   0.66063   0.00000  Uiso   1.00
H1292  H     0.04244   0.71139   0.61306   0.00000  Uiso   1.00
H1293  H     0.01682   0.75831   0.62336   0.00000  Uiso   1.00
H1294  H     0.10468   0.93536   0.91045   0.00000  Uiso   1.00
H1295  H     0.12481   0.99763   0.78820   0.00000  Uiso   1.00
H1296  H     0.05970   0.93304   0.95986   0.00000  Uiso   1.00
H1297  H     0.05259   0.92360   0.86268   0.00000  Uiso   1.00
H1298  H     0.00807   0.92173   0.91188   0.00000  Uiso   1.00
H1299  H     0.03343   0.99506   0.93696   0.00000  Uiso   1.00
H1300  H     0.02372   0.99177   0.88243   0.00000  Uiso   1.00
H1301  H     0.07837   0.99704   0.88766   0.00000  Uiso   1.00
H1302  H     0.08369   0.82813   0.53958   0.00000  Uiso   1.00
H1303  H     0.22257   0.85536   0.89323   0.00000  Uiso   1.00
H1304  H     0.28802   0.73086   0.93186   0.00000  Uiso   1.00
H1305  H     0.23208   0.73653   0.95074   0.00000  Uiso   1.00
H1306  H     0.28473   0.69855   0.50211   0.00000  Uiso   1.00
H1307  H     0.22757   0.70219   0.52036   0.00000  Uiso   1.00
H1308  H     0.21633   0.98997   0.95286   0.00000  Uiso   1.00
O1309  O     0.16667   0.83333   0.75000   0.00000  Uiso   1.00
O1310  O     0.15451   0.79304   0.65458   0.00000  Uiso   1.00
O1311  O     0.12940   0.87058   0.84968   0.00000  Uiso   1.00
O1312  O     0.20824   0.84425   0.64606   0.00000  Uiso   1.00
O1313  O     0.17451   0.82546   0.84968   0.00000  Uiso   1.00
O1314  O     0.27451   0.77364   0.98569   0.00000  Uiso   1.00
O1315  O     0.12677   0.84136   0.58709   0.00000  Uiso   1.00
O1316  O     0.06721   0.87728   0.91970   0.00000  Uiso   1.00
O1317  O     0.17930   0.74686   0.78213   0.00000  Uiso   1.00
O1318  O     0.14632   0.92751   0.77013   0.00000  Uiso   1.00
O1319  O     0.07412   0.79958   0.73413   0.00000  Uiso   1.00
O1320  O     0.26693   0.85939   0.71360   0.00000  Uiso   1.00
O1321  O     0.07071   0.85544   0.78213   0.00000  Uiso   1.00
O1322  O     0.25491   0.81892   0.77013   0.00000  Uiso   1.00
O1323  O     0.13760   0.73610   0.73413   0.00000  Uiso   1.00
O1324  O     0.20345   0.92286   0.71360   0.00000  Uiso   1.00
Zn1325 Zn    0.19338   0.80661   0.78734   0.00000  Uiso   1.00
Zn1326 Zn    0.13379   0.79124   0.71875   0.00000  Uiso   1.00
Zn1327 Zn    0.21056   0.86442   0.70657   0.00000  Uiso   1.00
Zn1328 Zn    0.12893   0.87106   0.78733   0.00000  Uiso   1.00
Br1329 Br    0.59875   0.77141   0.58423   0.00000  Uiso   1.00
Br1330 Br    0.56200   0.68090   0.69118   0.00000  Uiso   1.00
Br1331 Br    0.62558   0.82738   0.91393   0.00000  Uiso   1.00
Br1332 Br    0.35019   0.85927   0.51513   0.00000  Uiso   1.00
Br1333 Br    0.36511   0.88604   0.69946   0.00000  Uiso   1.00
C1334  C     0.38601   0.82614   0.76008   0.00000  Uiso   1.00
C1335  C     0.49438   0.82125   0.56096   0.00000  Uiso   1.00
C1336  C     0.56105   0.79239   0.55598   0.00000  Uiso   1.00
C1337  C     0.61414   0.84105   0.74021   0.00000  Uiso   1.00
C1338  C     0.46944   0.85613   0.92008   0.00000  Uiso   1.00
C1339  C     0.66011   0.84623   0.73764   0.00000  Uiso   1.00
C1340  C     0.34087   0.82376   0.76274   0.00000  Uiso   1.00
C1341  C     0.51425   0.98925   0.73594   0.00000  Uiso   1.00
C1342  C     0.48515   0.67839   0.76319   0.00000  Uiso   1.00
C1343  C     0.48895   0.72262   0.76046   0.00000  Uiso   1.00
C1344  C     0.50998   0.94464   0.74005   0.00000  Uiso   1.00
C1345  C     0.40981   0.85523   0.98619   0.00000  Uiso   1.00
C1346  C     0.51743   0.81583   0.62943   0.00000  Uiso   1.00
C1347  C     0.48201   0.85186   0.87082   0.00000  Uiso   1.00
C1348  C     0.57194   0.79209   0.50975   0.00000  Uiso   1.00
C1349  C     0.52396   0.80901   0.58139   0.00000  Uiso   1.00
C1350  C     0.42722   0.86502   0.94234   0.00000  Uiso   1.00
C1351  C     0.59493   0.73579   0.96235   0.00000  Uiso   1.00
C1352  C     0.58851   0.69882   0.99065   0.00000  Uiso   1.00
C1353  C     0.57942   0.99066   0.96422   0.00000  Uiso   1.00
C1354  C     0.42562   0.81479   0.61341   0.00000  Uiso   1.00
C1355  C     0.41998   0.76787   0.59682   0.00000  Uiso   1.00
C1356  C     0.43464   0.83951   0.50862   0.00000  Uiso   1.00
C1357  C     0.37902   0.74492   0.62532   0.00000  Uiso   1.00
C1358  C     0.40401   0.92135   0.92418   0.00000  Uiso   1.00
C1359  C     0.37547   0.93528   0.89833   0.00000  Uiso   1.00
C1360  C     0.37802   0.98278   0.90165   0.00000  Uiso   1.00
C1361  C     0.47901   0.83643   0.99001   0.00000  Uiso   1.00
C1362  C     0.49637   0.84521   0.94485   0.00000  Uiso   1.00
C1363  C     0.50612   0.82290   0.51370   0.00000  Uiso   1.00
C1364  C     0.54797   0.81283   0.98918   0.00000  Uiso   1.00
C1365  C     0.56557   0.82589   0.94576   0.00000  Uiso   1.00
C1366  C     0.54035   0.84319   0.92517   0.00000  Uiso   1.00
H1367  H     0.65256   0.80091   0.78367   0.00000  Uiso   1.00
H1368  H     0.57475   0.96459   0.98568   0.00000  Uiso   1.00
H1369  H     0.60700   0.98602   0.93481   0.00000  Uiso   1.00
H1370  H     0.39525   0.82720   0.61461   0.00000  Uiso   1.00
H1371  H     0.42710   0.81904   0.64857   0.00000  Uiso   1.00
H1372  H     0.41791   0.76413   0.56168   0.00000  Uiso   1.00
H1373  H     0.44779   0.75269   0.59852   0.00000  Uiso   1.00
H1374  H     0.38053   0.74738   0.66063   0.00000  Uiso   1.00
H1375  H     0.37577   0.71139   0.61306   0.00000  Uiso   1.00
H1376  H     0.35015   0.75831   0.62336   0.00000  Uiso   1.00
H1377  H     0.43801   0.93536   0.91045   0.00000  Uiso   1.00
H1378  H     0.45814   0.99763   0.78820   0.00000  Uiso   1.00
H1379  H     0.39303   0.93304   0.95986   0.00000  Uiso   1.00
H1380  H     0.38592   0.92360   0.86268   0.00000  Uiso   1.00
H1381  H     0.34140   0.92173   0.91188   0.00000  Uiso   1.00
H1382  H     0.36677   0.99506   0.93696   0.00000  Uiso   1.00
H1383  H     0.35705   0.99177   0.88243   0.00000  Uiso   1.00
H1384  H     0.41170   0.99704   0.88766   0.00000  Uiso   1.00
H1385  H     0.41703   0.82813   0.53958   0.00000  Uiso   1.00
H1386  H     0.55590   0.85536   0.89323   0.00000  Uiso   1.00
H1387  H     0.62135   0.73086   0.93186   0.00000  Uiso   1.00
H1388  H     0.56541   0.73653   0.95074   0.00000  Uiso   1.00
H1389  H     0.61806   0.69855   0.50211   0.00000  Uiso   1.00
H1390  H     0.56091   0.70219   0.52036   0.00000  Uiso   1.00
H1391  H     0.54967   0.98997   0.95286   0.00000  Uiso   1.00
O1392  O     0.50000   0.83333   0.75000   0.00000  Uiso   1.00
O1393  O     0.48784   0.79304   0.65458   0.00000  Uiso   1.00
O1394  O     0.46274   0.87058   0.84968   0.00000  Uiso   1.00
O1395  O     0.54157   0.84425   0.64606   0.00000  Uiso   1.00
O1396  O     0.50785   0.82546   0.84968   0.00000  Uiso   1.00
O1397  O     0.60785   0.77364   0.98569   0.00000  Uiso   1.00
O1398  O     0.46010   0.84136   0.58709   0.00000  Uiso   1.00
O1399  O     0.40054   0.87728   0.91970   0.00000  Uiso   1.00
O1400  O     0.51264   0.74686   0.78213   0.00000  Uiso   1.00
O1401  O     0.47965   0.92751   0.77013   0.00000  Uiso   1.00
O1402  O     0.40745   0.79958   0.73413   0.00000  Uiso   1.00
O1403  O     0.60026   0.85939   0.71360   0.00000  Uiso   1.00
O1404  O     0.40405   0.85544   0.78213   0.00000  Uiso   1.00
O1405  O     0.58824   0.81892   0.77013   0.00000  Uiso   1.00
O1406  O     0.47093   0.73610   0.73413   0.00000  Uiso   1.00
O1407  O     0.53678   0.92286   0.71360   0.00000  Uiso   1.00
Zn1408 Zn    0.52672   0.80661   0.78734   0.00000  Uiso   1.00
Zn1409 Zn    0.46713   0.79124   0.71875   0.00000  Uiso   1.00
Zn1410 Zn    0.54389   0.86442   0.70657   0.00000  Uiso   1.00
Zn1411 Zn    0.46226   0.87106   0.78733   0.00000  Uiso   1.00
Br1412 Br    0.93209   0.77141   0.58423   0.00000  Uiso   1.00
Br1413 Br    0.89533   0.68090   0.69118   0.00000  Uiso   1.00
Br1414 Br    0.95891   0.82738   0.91393   0.00000  Uiso   1.00
Br1415 Br    0.68352   0.85927   0.51513   0.00000  Uiso   1.00
Br1416 Br    0.69844   0.88604   0.69946   0.00000  Uiso   1.00
C1417  C     0.71935   0.82614   0.76008   0.00000  Uiso   1.00
C1418  C     0.82771   0.82125   0.56096   0.00000  Uiso   1.00
C1419  C     0.89439   0.79239   0.55598   0.00000  Uiso   1.00
C1420  C     0.94747   0.84105   0.74021   0.00000  Uiso   1.00
C1421  C     0.80278   0.85613   0.92008   0.00000  Uiso   1.00
C1422  C     0.99344   0.84623   0.73764   0.00000  Uiso   1.00
C1423  C     0.67420   0.82376   0.76274   0.00000  Uiso   1.00
C1424  C     0.84758   0.98925   0.73594   0.00000  Uiso   1.00
C1425  C     0.81849   0.67839   0.76319   0.00000  Uiso   1.00
C1426  C     0.82228   0.72262   0.76046   0.00000  Uiso   1.00
C1427  C     0.84331   0.94464   0.74005   0.00000  Uiso   1.00
C1428  C     0.74314   0.85523   0.98619   0.00000  Uiso   1.00
C1429  C     0.85076   0.81583   0.62943   0.00000  Uiso   1.00
C1430  C     0.81534   0.85186   0.87082   0.00000  Uiso   1.00
C1431  C     0.90527   0.79209   0.50975   0.00000  Uiso   1.00
C1432  C     0.85730   0.80901   0.58139   0.00000  Uiso   1.00
C1433  C     0.76055   0.86502   0.94234   0.00000  Uiso   1.00
C1434  C     0.92827   0.73579   0.96235   0.00000  Uiso   1.00
C1435  C     0.92184   0.69882   0.99065   0.00000  Uiso   1.00
C1436  C     0.91276   0.99066   0.96422   0.00000  Uiso   1.00
C1437  C     0.75895   0.81479   0.61341   0.00000  Uiso   1.00
C1438  C     0.75331   0.76787   0.59682   0.00000  Uiso   1.00
C1439  C     0.76798   0.83951   0.50862   0.00000  Uiso   1.00
C1440  C     0.71235   0.74492   0.62532   0.00000  Uiso   1.00
C1441  C     0.73734   0.92135   0.92418   0.00000  Uiso   1.00
C1442  C     0.70880   0.93528   0.89833   0.00000  Uiso   1.00
C1443  C     0.71135   0.98278   0.90165   0.00000  Uiso   1.00
C1444  C     0.81235   0.83643   0.99001   0.00000  Uiso   1.00
C1445  C     0.82971   0.84521   0.94485   0.00000  Uiso   1.00
C1446  C     0.83946   0.82290   0.51370   0.00000  Uiso   1.00
C1447  C     0.88130   0.81283   0.98918   0.00000  Uiso   1.00
C1448  C     0.89890   0.82589   0.94576   0.00000  Uiso   1.00
C1449  C     0.87368   0.84319   0.92517   0.00000  Uiso   1.00
H1450  H     0.98590   0.80091   0.78367   0.00000  Uiso   1.00
H1451  H     0.90808   0.96459   0.98568   0.00000  Uiso   1.00
H1452  H     0.94034   0.98602   0.93481   0.00000  Uiso   1.00
H1453  H     0.72858   0.82720   0.61461   0.00000  Uiso   1.00
H1454  H     0.76043   0.81904   0.64857   0.00000  Uiso   1.00
H1455  H     0.75124   0.76413   0.56168   0.00000  Uiso   1.00
H1456  H     0.78112   0.75269   0.59852   0.00000  Uiso   1.00
H1457  H     0.71386   0.74738   0.66063   0.00000  Uiso   1.00
H1458  H     0.70911   0.71139   0.61306   0.00000  Uiso   1.00
H1459  H     0.68349   0.75831   0.62336   0.00000  Uiso   1.00
H1460  H     0.77135   0.93536   0.91045   0.00000  Uiso   1.00
H1461  H     0.79148   0.99763   0.78820   0.00000  Uiso   1.00
H1462  H     0.72637   0.93304   0.95986   0.00000  Uiso   1.00
H1463  H     0.71925   0.92360   0.86268   0.00000  Uiso   1.00
H1464  H     0.67474   0.92173   0.91188   0.00000  Uiso   1.00
H1465  H     0.70010   0.99506   0.93696   0.00000  Uiso   1.00
H1466  H     0.69039   0.99177   0.88243   0.00000  Uiso   1.00
H1467  H     0.74504   0.99704   0.88766   0.00000  Uiso   1.00
H1468  H     0.75036   0.82813   0.53958   0.00000  Uiso   1.00
H1469  H     0.88924   0.85536   0.89323   0.00000  Uiso   1.00
H1470  H     0.95468   0.73086   0.93186   0.00000  Uiso   1.00
H1471  H     0.89874   0.73653   0.95074   0.00000  Uiso   1.00
H1472  H     0.95139   0.69855   0.50211   0.00000  Uiso   1.00
H1473  H     0.89424   0.70219   0.52036   0.00000  Uiso   1.00
H1474  H     0.88300   0.98997   0.95286   0.00000  Uiso   1.00
O1475  O     0.83333   0.83333   0.75000   0.00000  Uiso   1.00
O1476  O     0.82118   0.79304   0.65458   0.00000  Uiso   1.00
O1477  O     0.79607   0.87058   0.84968   0.00000  Uiso   1.00
O1478  O     0.87491   0.84425   0.64606   0.00000  Uiso   1.00
O1479  O     0.84118   0.82546   0.84968   0.00000  Uiso   1.00
O1480  O     0.94118   0.77364   0.98569   0.00000  Uiso   1.00
O1481  O     0.79344   0.84136   0.58709   0.00000  Uiso   1.00
O1482  O     0.73387   0.87728   0.91970   0.00000  Uiso   1.00
O1483  O     0.84597   0.74686   0.78213   0.00000  Uiso   1.00
O1484  O     0.81298   0.92751   0.77013   0.00000  Uiso   1.00
O1485  O     0.74078   0.79958   0.73413   0.00000  Uiso   1.00
O1486  O     0.93360   0.85939   0.71360   0.00000  Uiso   1.00
O1487  O     0.73738   0.85544   0.78213   0.00000  Uiso   1.00
O1488  O     0.92158   0.81892   0.77013   0.00000  Uiso   1.00
O1489  O     0.80426   0.73610   0.73413   0.00000  Uiso   1.00
O1490  O     0.87012   0.92286   0.71360   0.00000  Uiso   1.00
Zn1491 Zn    0.86005   0.80661   0.78734   0.00000  Uiso   1.00
Zn1492 Zn    0.80046   0.79124   0.71875   0.00000  Uiso   1.00
Zn1493 Zn    0.87723   0.86442   0.70657   0.00000  Uiso   1.00
Zn1494 Zn    0.79560   0.87106   0.78733   0.00000  Uiso   1.00
loop_
_geom_bond_atom_site_label_1
_geom_bond_atom_site_label_2
_geom_bond_distance
_geom_bond_site_symmetry_2
_ccdc_geom_bond_type
Br1    C8      1.930   .     S
Br2    C511    1.932   1_545 S
Br3    C37     1.929   .     S
Br4    C764    1.919   1_554 S
Br5    C177    1.928   1_455 S
C6     C12     1.434   .     S
C6     O74     1.266   .     A
C6     O76     1.270   .     A
C7     O70     1.392   .     S
C7     C21     1.413   .     A
C7     C35     1.428   .     A
C8     C20     1.392   .     A
C8     C21     1.398   .     A
C9     O77     1.284   .     A
C9     C11     1.456   .     S
C9     O75     1.286   .     A
C10    C22     1.416   .     A
C10    C19     1.478   .     S
C10    C34     1.420   .     A
C11    Br88    1.928   .     S
C11    C95     1.339   .     S
C12    C177    1.339   1_455 S
C12    H205    1.086   1_455 S
C13    C16     1.453   .     S
C13    Br251   1.932   .     S
C13    C263    1.335   .     S
C14    C15     1.435   .     S
C14    C511    1.335   1_545 S
C14    H548    1.087   1_545 S
C15    O72     1.279   .     A
C15    O78     1.279   .     A
C16    O73     1.272   .     A
C16    O79     1.267   .     A
C17    C22     1.390   .     A
C17    Br751   1.919   .     S
C17    C775    1.386   .     S
C18    C21     1.454   .     S
C18    O65     1.265   .     A
C18    O67     1.272   .     A
C19    O66     1.278   .     A
C19    O68     1.290   .     A
C20    C783    1.417   1_554 S
C20    O816    1.385   1_554 S
C22    O71     1.383   .     S
C23    O69     1.419   .     S
C23    H59     1.111   .     S
C23    C24     1.532   .     S
C23    H60     1.116   .     S
C24    C523    1.527   1_545 S
C24    H808    1.112   .     S
C24    H809    1.111   .     S
C25    H40     1.111   .     S
C25    H63     1.111   .     S
C25    H41     1.111   .     S
C25    C273    1.527   .     S
C26    C27     1.551   .     S
C26    H43     1.105   .     S
C26    O70     1.431   .     S
C26    H42     1.111   .     S
C27    C29     1.526   .     S
C27    H44     1.110   .     S
C27    H45     1.109   .     S
C28    H57     1.059   .     S
C28    C764    1.386   1_554 S
C28    C780    1.414   1_554 S
C29    H47     1.110   .     S
C29    H48     1.111   .     S
C29    H46     1.111   .     S
C30    H51     1.115   .     S
C30    O71     1.413   .     S
C30    C31     1.529   .     S
C30    H49     1.115   .     S
C31    H52     1.112   .     S
C31    C32     1.526   .     S
C31    H53     1.112   .     S
C32    H55     1.110   .     S
C32    H54     1.111   .     S
C32    H56     1.111   .     S
C33    C34     1.418   .     A
C33    C775    1.414   .     S
C33    C782    1.437   .     S
C34    C38     1.401   .     A
C35    C780    1.437   1_554 S
C35    C783    1.433   1_554 S
C36    C37     1.412   .     A
C36    C767    1.417   .     S
C36    C782    1.433   .     S
C37    C38     1.383   .     A
C38    H58     1.081   .     S
H39    C95     1.086   .     S
H50    C263    1.087   .     S
H61    C771    1.112   1_554 S
H62    C771    1.111   1_554 S
O64    Zn80    1.972   .     S
O64    Zn83    1.928   .     S
O64    Zn82    1.932   .     S
O64    Zn81    1.938   .     S
O65    Zn81    1.942   .     S
O66    Zn83    1.955   .     S
O67    Zn82    1.944   .     S
O68    Zn80    1.933   .     S
O69    C767    1.385   .     S
O72    Zn80    1.923   .     S
O73    Zn83    1.931   .     S
O74    Zn81    1.919   .     S
O75    Zn82    1.933   .     S
O76    Zn83    1.923   .     S
O77    Zn80    1.912   .     S
O78    Zn81    1.941   .     S
O79    Zn82    1.929   .     S
Br84   C91     1.930   .     S
Br85   C594    1.932   1_545 S
Br86   C120    1.929   .     S
Br87   C847    1.919   1_554 S
C89    C95     1.434   .     S
C89    O157    1.266   .     A
C89    O159    1.270   .     A
C90    O153    1.392   .     S
C90    C104    1.413   .     A
C90    C118    1.428   .     A
C91    C103    1.392   .     A
C91    C104    1.398   .     A
C92    O160    1.284   .     A
C92    C94     1.456   .     S
C92    O158    1.286   .     A
C93    C105    1.416   .     A
C93    C102    1.478   .     S
C93    C117    1.420   .     A
C94    Br171   1.928   .     S
C94    C178    1.339   .     S
C96    C99     1.453   .     S
C96    Br334   1.932   .     S
C96    C346    1.335   .     S
C97    C98     1.435   .     S
C97    C594    1.335   1_545 S
C97    H631    1.087   1_545 S
C98    O155    1.279   .     A
C98    O161    1.279   .     A
C99    O156    1.272   .     A
C99    O162    1.267   .     A
C100   C105    1.390   .     A
C100   Br834   1.919   .     S
C100   C858    1.386   .     S
C101   C104    1.454   .     S
C101   O148    1.265   .     A
C101   O150    1.272   .     A
C102   O149    1.278   .     A
C102   O151    1.290   .     A
C103   C866    1.417   1_554 S
C103   O899    1.385   1_554 S
C105   O154    1.383   .     S
C106   O152    1.419   .     S
C106   H142    1.111   .     S
C106   C107    1.532   .     S
C106   H143    1.116   .     S
C107   C606    1.527   1_545 S
C107   H891    1.112   .     S
C107   H892    1.111   .     S
C108   H123    1.111   .     S
C108   H146    1.111   .     S
C108   H124    1.111   .     S
C108   C356    1.527   .     S
C109   C110    1.551   .     S
C109   H126    1.105   .     S
C109   O153    1.431   .     S
C109   H125    1.111   .     S
C110   C112    1.526   .     S
C110   H127    1.110   .     S
C110   H128    1.109   .     S
C111   H140    1.059   .     S
C111   C847    1.386   1_554 S
C111   C863    1.414   1_554 S
C112   H130    1.110   .     S
C112   H131    1.111   .     S
C112   H129    1.111   .     S
C113   H134    1.115   .     S
C113   O154    1.413   .     S
C113   C114    1.529   .     S
C113   H132    1.115   .     S
C114   H135    1.112   .     S
C114   C115    1.526   .     S
C114   H136    1.112   .     S
C115   H138    1.110   .     S
C115   H137    1.111   .     S
C115   H139    1.111   .     S
C116   C117    1.418   .     A
C116   C858    1.414   .     S
C116   C865    1.437   .     S
C117   C121    1.401   .     A
C118   C863    1.437   1_554 S
C118   C866    1.433   1_554 S
C119   C120    1.412   .     A
C119   C850    1.417   .     S
C119   C865    1.433   .     S
C120   C121    1.383   .     A
C121   H141    1.081   .     S
H122   C178    1.086   .     S
H133   C346    1.087   .     S
H144   C854    1.112   1_554 S
H145   C854    1.111   1_554 S
O147   Zn163   1.972   .     S
O147   Zn166   1.928   .     S
O147   Zn165   1.932   .     S
O147   Zn164   1.938   .     S
O148   Zn164   1.942   .     S
O149   Zn166   1.955   .     S
O150   Zn165   1.944   .     S
O151   Zn163   1.933   .     S
O152   C850    1.385   .     S
O155   Zn163   1.923   .     S
O156   Zn166   1.931   .     S
O157   Zn164   1.919   .     S
O158   Zn165   1.933   .     S
O159   Zn166   1.923   .     S
O160   Zn163   1.912   .     S
O161   Zn164   1.941   .     S
O162   Zn165   1.929   .     S
Br167  C174    1.930   .     S
Br168  C677    1.932   1_545 S
Br169  C203    1.929   .     S
Br170  C930    1.919   1_554 S
C172   C178    1.434   .     S
C172   O240    1.266   .     A
C172   O242    1.270   .     A
C173   O236    1.392   .     S
C173   C187    1.413   .     A
C173   C201    1.428   .     A
C174   C186    1.392   .     A
C174   C187    1.398   .     A
C175   O243    1.284   .     A
C175   C177    1.456   .     S
C175   O241    1.286   .     A
C176   C188    1.416   .     A
C176   C185    1.478   .     S
C176   C200    1.420   .     A
C177   Br5     1.928   1_655 S
C177   C12     1.339   1_655 S
C179   C182    1.453   .     S
C179   Br417   1.932   .     S
C179   C429    1.335   .     S
C180   C181    1.435   .     S
C180   C677    1.335   1_545 S
C180   H714    1.087   1_545 S
C181   O238    1.279   .     A
C181   O244    1.279   .     A
C182   O239    1.272   .     A
C182   O245    1.267   .     A
C183   C188    1.390   .     A
C183   Br917   1.919   .     S
C183   C941    1.386   .     S
C184   C187    1.454   .     S
C184   O231    1.265   .     A
C184   O233    1.272   .     A
C185   O232    1.278   .     A
C185   O234    1.290   .     A
C186   C949    1.417   1_554 S
C186   O982    1.385   1_554 S
C188   O237    1.383   .     S
C189   O235    1.419   .     S
C189   H225    1.111   .     S
C189   C190    1.532   .     S
C189   H226    1.116   .     S
C190   C689    1.527   1_545 S
C190   H974    1.112   .     S
C190   H975    1.111   .     S
C191   H206    1.111   .     S
C191   H229    1.111   .     S
C191   H207    1.111   .     S
C191   C439    1.527   .     S
C192   C193    1.551   .     S
C192   H209    1.105   .     S
C192   O236    1.431   .     S
C192   H208    1.111   .     S
C193   C195    1.526   .     S
C193   H210    1.110   .     S
C193   H211    1.109   .     S
C194   H223    1.059   .     S
C194   C930    1.386   1_554 S
C194   C946    1.414   1_554 S
C195   H213    1.110   .     S
C195   H214    1.111   .     S
C195   H212    1.111   .     S
C196   H217    1.115   .     S
C196   O237    1.413   .     S
C196   C197    1.529   .     S
C196   H215    1.115   .     S
C197   H218    1.112   .     S
C197   C198    1.526   .     S
C197   H219    1.112   .     S
C198   H221    1.110   .     S
C198   H220    1.111   .     S
C198   H222    1.111   .     S
C199   C200    1.418   .     A
C199   C941    1.414   .     S
C199   C948    1.437   .     S
C200   C204    1.401   .     A
C201   C946    1.437   1_554 S
C201   C949    1.433   1_554 S
C202   C203    1.412   .     A
C202   C933    1.417   .     S
C202   C948    1.433   .     S
C203   C204    1.383   .     A
C204   H224    1.081   .     S
H205   C12     1.086   1_655 S
H216   C429    1.087   .     S
H227   C937    1.112   1_554 S
H228   C937    1.111   1_554 S
O230   Zn246   1.972   .     S
O230   Zn249   1.928   .     S
O230   Zn248   1.932   .     S
O230   Zn247   1.938   .     S
O231   Zn247   1.942   .     S
O232   Zn249   1.955   .     S
O233   Zn248   1.944   .     S
O234   Zn246   1.933   .     S
O235   C933    1.385   .     S
O238   Zn246   1.923   .     S
O239   Zn249   1.931   .     S
O240   Zn247   1.919   .     S
O241   Zn248   1.933   .     S
O242   Zn249   1.923   .     S
O243   Zn246   1.912   .     S
O244   Zn247   1.941   .     S
O245   Zn248   1.929   .     S
Br250  C257    1.930   .     S
Br252  C286    1.929   .     S
Br253  C1013   1.919   1_554 S
Br254  C426    1.928   1_455 S
C255   C261    1.434   .     S
C255   O323    1.266   .     A
C255   O325    1.270   .     A
C256   O319    1.392   .     S
C256   C270    1.413   .     A
C256   C284    1.428   .     A
C257   C269    1.392   .     A
C257   C270    1.398   .     A
C258   O326    1.284   .     A
C258   C260    1.456   .     S
C258   O324    1.286   .     A
C259   C271    1.416   .     A
C259   C268    1.478   .     S
C259   C283    1.420   .     A
C260   Br337   1.928   .     S
C260   C344    1.339   .     S
C261   C426    1.339   1_455 S
C261   H454    1.086   1_455 S
C262   C265    1.453   .     S
C262   Br500   1.932   .     S
C262   C512    1.335   .     S
C263   C264    1.435   .     S
C264   O321    1.279   .     A
C264   O327    1.279   .     A
C265   O322    1.272   .     A
C265   O328    1.267   .     A
C266   C271    1.390   .     A
C266   Br1000  1.919   .     S
C266   C1024   1.386   .     S
C267   C270    1.454   .     S
C267   O314    1.265   .     A
C267   O316    1.272   .     A
C268   O315    1.278   .     A
C268   O317    1.290   .     A
C269   C1032   1.417   1_554 S
C269   O1065   1.385   1_554 S
C271   O320    1.383   .     S
C272   O318    1.419   .     S
C272   H308    1.111   .     S
C272   C273    1.532   .     S
C272   H309    1.116   .     S
C273   H1057   1.112   .     S
C273   H1058   1.111   .     S
C274   H289    1.111   .     S
C274   H312    1.111   .     S
C274   H290    1.111   .     S
C274   C522    1.527   .     S
C275   C276    1.551   .     S
C275   H292    1.105   .     S
C275   O319    1.431   .     S
C275   H291    1.111   .     S
C276   C278    1.526   .     S
C276   H293    1.110   .     S
C276   H294    1.109   .     S
C277   H306    1.059   .     S
C277   C1013   1.386   1_554 S
C277   C1029   1.414   1_554 S
C278   H296    1.110   .     S
C278   H297    1.111   .     S
C278   H295    1.111   .     S
C279   H300    1.115   .     S
C279   O320    1.413   .     S
C279   C280    1.529   .     S
C279   H298    1.115   .     S
C280   H301    1.112   .     S
C280   C281    1.526   .     S
C280   H302    1.112   .     S
C281   H304    1.110   .     S
C281   H303    1.111   .     S
C281   H305    1.111   .     S
C282   C283    1.418   .     A
C282   C1024   1.414   .     S
C282   C1031   1.437   .     S
C283   C287    1.401   .     A
C284   C1029   1.437   1_554 S
C284   C1032   1.433   1_554 S
C285   C286    1.412   .     A
C285   C1016   1.417   .     S
C285   C1031   1.433   .     S
C286   C287    1.383   .     A
C287   H307    1.081   .     S
H288   C344    1.086   .     S
H299   C512    1.087   .     S
H310   C1020   1.112   1_554 S
H311   C1020   1.111   1_554 S
O313   Zn329   1.972   .     S
O313   Zn332   1.928   .     S
O313   Zn331   1.932   .     S
O313   Zn330   1.938   .     S
O314   Zn330   1.942   .     S
O315   Zn332   1.955   .     S
O316   Zn331   1.944   .     S
O317   Zn329   1.933   .     S
O318   C1016   1.385   .     S
O321   Zn329   1.923   .     S
O322   Zn332   1.931   .     S
O323   Zn330   1.919   .     S
O324   Zn331   1.933   .     S
O325   Zn332   1.923   .     S
O326   Zn329   1.912   .     S
O327   Zn330   1.941   .     S
O328   Zn331   1.929   .     S
Br333  C340    1.930   .     S
Br335  C369    1.929   .     S
Br336  C1096   1.919   1_554 S
C338   C344    1.434   .     S
C338   O406    1.266   .     A
C338   O408    1.270   .     A
C339   O402    1.392   .     S
C339   C353    1.413   .     A
C339   C367    1.428   .     A
C340   C352    1.392   .     A
C340   C353    1.398   .     A
C341   O409    1.284   .     A
C341   C343    1.456   .     S
C341   O407    1.286   .     A
C342   C354    1.416   .     A
C342   C351    1.478   .     S
C342   C366    1.420   .     A
C343   Br420   1.928   .     S
C343   C427    1.339   .     S
C345   C348    1.453   .     S
C345   Br583   1.932   .     S
C345   C595    1.335   .     S
C346   C347    1.435   .     S
C347   O404    1.279   .     A
C347   O410    1.279   .     A
C348   O405    1.272   .     A
C348   O411    1.267   .     A
C349   C354    1.390   .     A
C349   Br1083  1.919   .     S
C349   C1107   1.386   .     S
C350   C353    1.454   .     S
C350   O397    1.265   .     A
C350   O399    1.272   .     A
C351   O398    1.278   .     A
C351   O400    1.290   .     A
C352   C1115   1.417   1_554 S
C352   O1148   1.385   1_554 S
C354   O403    1.383   .     S
C355   O401    1.419   .     S
C355   H391    1.111   .     S
C355   C356    1.532   .     S
C355   H392    1.116   .     S
C356   H1140   1.112   .     S
C356   H1141   1.111   .     S
C357   H372    1.111   .     S
C357   H395    1.111   .     S
C357   H373    1.111   .     S
C357   C605    1.527   .     S
C358   C359    1.551   .     S
C358   H375    1.105   .     S
C358   O402    1.431   .     S
C358   H374    1.111   .     S
C359   C361    1.526   .     S
C359   H376    1.110   .     S
C359   H377    1.109   .     S
C360   H389    1.059   .     S
C360   C1096   1.386   1_554 S
C360   C1112   1.414   1_554 S
C361   H379    1.110   .     S
C361   H380    1.111   .     S
C361   H378    1.111   .     S
C362   H383    1.115   .     S
C362   O403    1.413   .     S
C362   C363    1.529   .     S
C362   H381    1.115   .     S
C363   H384    1.112   .     S
C363   C364    1.526   .     S
C363   H385    1.112   .     S
C364   H387    1.110   .     S
C364   H386    1.111   .     S
C364   H388    1.111   .     S
C365   C366    1.418   .     A
C365   C1107   1.414   .     S
C365   C1114   1.437   .     S
C366   C370    1.401   .     A
C367   C1112   1.437   1_554 S
C367   C1115   1.433   1_554 S
C368   C369    1.412   .     A
C368   C1099   1.417   .     S
C368   C1114   1.433   .     S
C369   C370    1.383   .     A
C370   H390    1.081   .     S
H371   C427    1.086   .     S
H382   C595    1.087   .     S
H393   C1103   1.112   1_554 S
H394   C1103   1.111   1_554 S
O396   Zn412   1.972   .     S
O396   Zn415   1.928   .     S
O396   Zn414   1.932   .     S
O396   Zn413   1.938   .     S
O397   Zn413   1.942   .     S
O398   Zn415   1.955   .     S
O399   Zn414   1.944   .     S
O400   Zn412   1.933   .     S
O401   C1099   1.385   .     S
O404   Zn412   1.923   .     S
O405   Zn415   1.931   .     S
O406   Zn413   1.919   .     S
O407   Zn414   1.933   .     S
O408   Zn415   1.923   .     S
O409   Zn412   1.912   .     S
O410   Zn413   1.941   .     S
O411   Zn414   1.929   .     S
Br416  C423    1.930   .     S
Br418  C452    1.929   .     S
Br419  C1179   1.919   1_554 S
C421   C427    1.434   .     S
C421   O489    1.266   .     A
C421   O491    1.270   .     A
C422   O485    1.392   .     S
C422   C436    1.413   .     A
C422   C450    1.428   .     A
C423   C435    1.392   .     A
C423   C436    1.398   .     A
C424   O492    1.284   .     A
C424   C426    1.456   .     S
C424   O490    1.286   .     A
C425   C437    1.416   .     A
C425   C434    1.478   .     S
C425   C449    1.420   .     A
C426   Br254   1.928   1_655 S
C426   C261    1.339   1_655 S
C428   C431    1.453   .     S
C428   Br666   1.932   .     S
C428   C678    1.335   .     S
C429   C430    1.435   .     S
C430   O487    1.279   .     A
C430   O493    1.279   .     A
C431   O488    1.272   .     A
C431   O494    1.267   .     A
C432   C437    1.390   .     A
C432   Br1166  1.919   .     S
C432   C1190   1.386   .     S
C433   C436    1.454   .     S
C433   O480    1.265   .     A
C433   O482    1.272   .     A
C434   O481    1.278   .     A
C434   O483    1.290   .     A
C435   C1198   1.417   1_554 S
C435   O1231   1.385   1_554 S
C437   O486    1.383   .     S
C438   O484    1.419   .     S
C438   H474    1.111   .     S
C438   C439    1.532   .     S
C438   H475    1.116   .     S
C439   H1223   1.112   .     S
C439   H1224   1.111   .     S
C440   H455    1.111   .     S
C440   H478    1.111   .     S
C440   H456    1.111   .     S
C440   C688    1.527   .     S
C441   C442    1.551   .     S
C441   H458    1.105   .     S
C441   O485    1.431   .     S
C441   H457    1.111   .     S
C442   C444    1.526   .     S
C442   H459    1.110   .     S
C442   H460    1.109   .     S
C443   H472    1.059   .     S
C443   C1179   1.386   1_554 S
C443   C1195   1.414   1_554 S
C444   H462    1.110   .     S
C444   H463    1.111   .     S
C444   H461    1.111   .     S
C445   H466    1.115   .     S
C445   O486    1.413   .     S
C445   C446    1.529   .     S
C445   H464    1.115   .     S
C446   H467    1.112   .     S
C446   C447    1.526   .     S
C446   H468    1.112   .     S
C447   H470    1.110   .     S
C447   H469    1.111   .     S
C447   H471    1.111   .     S
C448   C449    1.418   .     A
C448   C1190   1.414   .     S
C448   C1197   1.437   .     S
C449   C453    1.401   .     A
C450   C1195   1.437   1_554 S
C450   C1198   1.433   1_554 S
C451   C452    1.412   .     A
C451   C1182   1.417   .     S
C451   C1197   1.433   .     S
C452   C453    1.383   .     A
C453   H473    1.081   .     S
H454   C261    1.086   1_655 S
H465   C678    1.087   .     S
H476   C1186   1.112   1_554 S
H477   C1186   1.111   1_554 S
O479   Zn495   1.972   .     S
O479   Zn498   1.928   .     S
O479   Zn497   1.932   .     S
O479   Zn496   1.938   .     S
O480   Zn496   1.942   .     S
O481   Zn498   1.955   .     S
O482   Zn497   1.944   .     S
O483   Zn495   1.933   .     S
O484   C1182   1.385   .     S
O487   Zn495   1.923   .     S
O488   Zn498   1.931   .     S
O489   Zn496   1.919   .     S
O490   Zn497   1.933   .     S
O491   Zn498   1.923   .     S
O492   Zn495   1.912   .     S
O493   Zn496   1.941   .     S
O494   Zn497   1.929   .     S
Br499  C506    1.930   .     S
Br501  C535    1.929   .     S
Br502  C1262   1.919   1_554 S
Br503  C675    1.928   1_455 S
C504   C510    1.434   .     S
C504   O572    1.266   .     A
C504   O574    1.270   .     A
C505   O568    1.392   .     S
C505   C519    1.413   .     A
C505   C533    1.428   .     A
C506   C518    1.392   .     A
C506   C519    1.398   .     A
C507   O575    1.284   .     A
C507   C509    1.456   .     S
C507   O573    1.286   .     A
C508   C520    1.416   .     A
C508   C517    1.478   .     S
C508   C532    1.420   .     A
C509   Br586   1.928   .     S
C509   C593    1.339   .     S
C510   C675    1.339   1_455 S
C510   H703    1.086   1_455 S
C511   C514    1.453   .     S
C511   Br2     1.932   1_565 S
C511   C14     1.335   1_565 S
C512   C513    1.435   .     S
C513   O570    1.279   .     A
C513   O576    1.279   .     A
C514   O571    1.272   .     A
C514   O577    1.267   .     A
C515   C520    1.390   .     A
C515   Br1249  1.919   .     S
C515   C1273   1.386   .     S
C516   C519    1.454   .     S
C516   O563    1.265   .     A
C516   O565    1.272   .     A
C517   O564    1.278   .     A
C517   O566    1.290   .     A
C518   C1281   1.417   1_554 S
C518   O1314   1.385   1_554 S
C520   O569    1.383   .     S
C521   O567    1.419   .     S
C521   H557    1.111   .     S
C521   C522    1.532   .     S
C521   H558    1.116   .     S
C522   H1306   1.112   .     S
C522   H1307   1.111   .     S
C523   H538    1.111   .     S
C523   H561    1.111   .     S
C523   H539    1.111   .     S
C523   C24     1.527   1_565 S
C524   C525    1.551   .     S
C524   H541    1.105   .     S
C524   O568    1.431   .     S
C524   H540    1.111   .     S
C525   C527    1.526   .     S
C525   H542    1.110   .     S
C525   H543    1.109   .     S
C526   H555    1.059   .     S
C526   C1262   1.386   1_554 S
C526   C1278   1.414   1_554 S
C527   H545    1.110   .     S
C527   H546    1.111   .     S
C527   H544    1.111   .     S
C528   H549    1.115   .     S
C528   O569    1.413   .     S
C528   C529    1.529   .     S
C528   H547    1.115   .     S
C529   H550    1.112   .     S
C529   C530    1.526   .     S
C529   H551    1.112   .     S
C530   H553    1.110   .     S
C530   H552    1.111   .     S
C530   H554    1.111   .     S
C531   C532    1.418   .     A
C531   C1273   1.414   .     S
C531   C1280   1.437   .     S
C532   C536    1.401   .     A
C533   C1278   1.437   1_554 S
C533   C1281   1.433   1_554 S
C534   C535    1.412   .     A
C534   C1265   1.417   .     S
C534   C1280   1.433   .     S
C535   C536    1.383   .     A
C536   H556    1.081   .     S
H537   C593    1.086   .     S
H548   C14     1.087   1_565 S
H559   C1269   1.112   1_554 S
H560   C1269   1.111   1_554 S
O562   Zn578   1.972   .     S
O562   Zn581   1.928   .     S
O562   Zn580   1.932   .     S
O562   Zn579   1.938   .     S
O563   Zn579   1.942   .     S
O564   Zn581   1.955   .     S
O565   Zn580   1.944   .     S
O566   Zn578   1.933   .     S
O567   C1265   1.385   .     S
O570   Zn578   1.923   .     S
O571   Zn581   1.931   .     S
O572   Zn579   1.919   .     S
O573   Zn580   1.933   .     S
O574   Zn581   1.923   .     S
O575   Zn578   1.912   .     S
O576   Zn579   1.941   .     S
O577   Zn580   1.929   .     S
Br582  C589    1.930   .     S
Br584  C618    1.929   .     S
Br585  C1345   1.919   1_554 S
C587   C593    1.434   .     S
C587   O655    1.266   .     A
C587   O657    1.270   .     A
C588   O651    1.392   .     S
C588   C602    1.413   .     A
C588   C616    1.428   .     A
C589   C601    1.392   .     A
C589   C602    1.398   .     A
C590   O658    1.284   .     A
C590   C592    1.456   .     S
C590   O656    1.286   .     A
C591   C603    1.416   .     A
C591   C600    1.478   .     S
C591   C615    1.420   .     A
C592   Br669   1.928   .     S
C592   C676    1.339   .     S
C594   C597    1.453   .     S
C594   Br85    1.932   1_565 S
C594   C97     1.335   1_565 S
C595   C596    1.435   .     S
C596   O653    1.279   .     A
C596   O659    1.279   .     A
C597   O654    1.272   .     A
C597   O660    1.267   .     A
C598   C603    1.390   .     A
C598   Br1332  1.919   .     S
C598   C1356   1.386   .     S
C599   C602    1.454   .     S
C599   O646    1.265   .     A
C599   O648    1.272   .     A
C600   O647    1.278   .     A
C600   O649    1.290   .     A
C601   C1364   1.417   1_554 S
C601   O1397   1.385   1_554 S
C603   O652    1.383   .     S
C604   O650    1.419   .     S
C604   H640    1.111   .     S
C604   C605    1.532   .     S
C604   H641    1.116   .     S
C605   H1389   1.112   .     S
C605   H1390   1.111   .     S
C606   H621    1.111   .     S
C606   H644    1.111   .     S
C606   H622    1.111   .     S
C606   C107    1.527   1_565 S
C607   C608    1.551   .     S
C607   H624    1.105   .     S
C607   O651    1.431   .     S
C607   H623    1.111   .     S
C608   C610    1.526   .     S
C608   H625    1.110   .     S
C608   H626    1.109   .     S
C609   H638    1.059   .     S
C609   C1345   1.386   1_554 S
C609   C1361   1.414   1_554 S
C610   H628    1.110   .     S
C610   H629    1.111   .     S
C610   H627    1.111   .     S
C611   H632    1.115   .     S
C611   O652    1.413   .     S
C611   C612    1.529   .     S
C611   H630    1.115   .     S
C612   H633    1.112   .     S
C612   C613    1.526   .     S
C612   H634    1.112   .     S
C613   H636    1.110   .     S
C613   H635    1.111   .     S
C613   H637    1.111   .     S
C614   C615    1.418   .     A
C614   C1356   1.414   .     S
C614   C1363   1.437   .     S
C615   C619    1.401   .     A
C616   C1361   1.437   1_554 S
C616   C1364   1.433   1_554 S
C617   C618    1.412   .     A
C617   C1348   1.417   .     S
C617   C1363   1.433   .     S
C618   C619    1.383   .     A
C619   H639    1.081   .     S
H620   C676    1.086   .     S
H631   C97     1.087   1_565 S
H642   C1352   1.112   1_554 S
H643   C1352   1.111   1_554 S
O645   Zn661   1.972   .     S
O645   Zn664   1.928   .     S
O645   Zn663   1.932   .     S
O645   Zn662   1.938   .     S
O646   Zn662   1.942   .     S
O647   Zn664   1.955   .     S
O648   Zn663   1.944   .     S
O649   Zn661   1.933   .     S
O650   C1348   1.385   .     S
O653   Zn661   1.923   .     S
O654   Zn664   1.931   .     S
O655   Zn662   1.919   .     S
O656   Zn663   1.933   .     S
O657   Zn664   1.923   .     S
O658   Zn661   1.912   .     S
O659   Zn662   1.941   .     S
O660   Zn663   1.929   .     S
Br665  C672    1.930   .     S
Br667  C701    1.929   .     S
Br668  C1428   1.919   1_554 S
C670   C676    1.434   .     S
C670   O738    1.266   .     A
C670   O740    1.270   .     A
C671   O734    1.392   .     S
C671   C685    1.413   .     A
C671   C699    1.428   .     A
C672   C684    1.392   .     A
C672   C685    1.398   .     A
C673   O741    1.284   .     A
C673   C675    1.456   .     S
C673   O739    1.286   .     A
C674   C686    1.416   .     A
C674   C683    1.478   .     S
C674   C698    1.420   .     A
C675   Br503   1.928   1_655 S
C675   C510    1.339   1_655 S
C677   C680    1.453   .     S
C677   Br168   1.932   1_565 S
C677   C180    1.335   1_565 S
C678   C679    1.435   .     S
C679   O736    1.279   .     A
C679   O742    1.279   .     A
C680   O737    1.272   .     A
C680   O743    1.267   .     A
C681   C686    1.390   .     A
C681   Br1415  1.919   .     S
C681   C1439   1.386   .     S
C682   C685    1.454   .     S
C682   O729    1.265   .     A
C682   O731    1.272   .     A
C683   O730    1.278   .     A
C683   O732    1.290   .     A
C684   C1447   1.417   1_554 S
C684   O1480   1.385   1_554 S
C686   O735    1.383   .     S
C687   O733    1.419   .     S
C687   H723    1.111   .     S
C687   C688    1.532   .     S
C687   H724    1.116   .     S
C688   H1472   1.112   .     S
C688   H1473   1.111   .     S
C689   H704    1.111   .     S
C689   H727    1.111   .     S
C689   H705    1.111   .     S
C689   C190    1.527   1_565 S
C690   C691    1.551   .     S
C690   H707    1.105   .     S
C690   O734    1.431   .     S
C690   H706    1.111   .     S
C691   C693    1.526   .     S
C691   H708    1.110   .     S
C691   H709    1.109   .     S
C692   H721    1.059   .     S
C692   C1428   1.386   1_554 S
C692   C1444   1.414   1_554 S
C693   H711    1.110   .     S
C693   H712    1.111   .     S
C693   H710    1.111   .     S
C694   H715    1.115   .     S
C694   O735    1.413   .     S
C694   C695    1.529   .     S
C694   H713    1.115   .     S
C695   H716    1.112   .     S
C695   C696    1.526   .     S
C695   H717    1.112   .     S
C696   H719    1.110   .     S
C696   H718    1.111   .     S
C696   H720    1.111   .     S
C697   C698    1.418   .     A
C697   C1439   1.414   .     S
C697   C1446   1.437   .     S
C698   C702    1.401   .     A
C699   C1444   1.437   1_554 S
C699   C1447   1.433   1_554 S
C700   C701    1.412   .     A
C700   C1431   1.417   .     S
C700   C1446   1.433   .     S
C701   C702    1.383   .     A
C702   H722    1.081   .     S
H703   C510    1.086   1_655 S
H714   C180    1.087   1_565 S
H725   C1435   1.112   1_554 S
H726   C1435   1.111   1_554 S
O728   Zn744   1.972   .     S
O728   Zn747   1.928   .     S
O728   Zn746   1.932   .     S
O728   Zn745   1.938   .     S
O729   Zn745   1.942   .     S
O730   Zn747   1.955   .     S
O731   Zn746   1.944   .     S
O732   Zn744   1.933   .     S
O733   C1431   1.385   .     S
O736   Zn744   1.923   .     S
O737   Zn747   1.931   .     S
O738   Zn745   1.919   .     S
O739   Zn746   1.933   .     S
O740   Zn747   1.923   .     S
O741   Zn744   1.912   .     S
O742   Zn745   1.941   .     S
O743   Zn746   1.929   .     S
Br748  C755    1.930   .     S
Br749  C1258   1.932   1_545 S
Br750  C784    1.929   .     S
Br752  C924    1.928   1_455 S
C753   C759    1.434   .     S
C753   O821    1.266   .     A
C753   O823    1.270   .     A
C754   O817    1.392   .     S
C754   C768    1.413   .     A
C754   C782    1.428   .     A
C755   C767    1.392   .     A
C755   C768    1.398   .     A
C756   O824    1.284   .     A
C756   C758    1.456   .     S
C756   O822    1.286   .     A
C757   C769    1.416   .     A
C757   C766    1.478   .     S
C757   C781    1.420   .     A
C758   Br835   1.928   .     S
C758   C842    1.339   .     S
C759   C924    1.339   1_455 S
C759   H952    1.086   1_455 S
C760   C763    1.453   .     S
C760   Br998   1.932   .     S
C760   C1010   1.335   .     S
C761   C762    1.435   .     S
C761   C1258   1.335   1_545 S
C761   H1295   1.087   1_545 S
C762   O819    1.279   .     A
C762   O825    1.279   .     A
C763   O820    1.272   .     A
C763   O826    1.267   .     A
C764   C769    1.390   .     A
C764   Br4     1.919   1_556 S
C764   C28     1.386   1_556 S
C765   C768    1.454   .     S
C765   O812    1.265   .     A
C765   O814    1.272   .     A
C766   O813    1.278   .     A
C766   O815    1.290   .     A
C769   O818    1.383   .     S
C770   O816    1.419   .     S
C770   H806    1.111   .     S
C770   C771    1.532   .     S
C770   H807    1.116   .     S
C771   C1270   1.527   1_545 S
C771   H61     1.112   1_556 S
C771   H62     1.111   1_556 S
C772   H787    1.111   .     S
C772   H810    1.111   .     S
C772   H788    1.111   .     S
C772   C1020   1.527   .     S
C773   C774    1.551   .     S
C773   H790    1.105   .     S
C773   O817    1.431   .     S
C773   H789    1.111   .     S
C774   C776    1.526   .     S
C774   H791    1.110   .     S
C774   H792    1.109   .     S
C775   H804    1.059   .     S
C776   H794    1.110   .     S
C776   H795    1.111   .     S
C776   H793    1.111   .     S
C777   H798    1.115   .     S
C777   O818    1.413   .     S
C777   C778    1.529   .     S
C777   H796    1.115   .     S
C778   H799    1.112   .     S
C778   C779    1.526   .     S
C778   H800    1.112   .     S
C779   H802    1.110   .     S
C779   H801    1.111   .     S
C779   H803    1.111   .     S
C780   C781    1.418   .     A
C780   C28     1.414   1_556 S
C780   C35     1.437   1_556 S
C781   C785    1.401   .     A
C783   C784    1.412   .     A
C783   C20     1.417   1_556 S
C783   C35     1.433   1_556 S
C784   C785    1.383   .     A
C785   H805    1.081   .     S
H786   C842    1.086   .     S
H797   C1010   1.087   .     S
O811   Zn827   1.972   .     S
O811   Zn830   1.928   .     S
O811   Zn829   1.932   .     S
O811   Zn828   1.938   .     S
O812   Zn828   1.942   .     S
O813   Zn830   1.955   .     S
O814   Zn829   1.944   .     S
O815   Zn827   1.933   .     S
O816   C20     1.385   1_556 S
O819   Zn827   1.923   .     S
O820   Zn830   1.931   .     S
O821   Zn828   1.919   .     S
O822   Zn829   1.933   .     S
O823   Zn830   1.923   .     S
O824   Zn827   1.912   .     S
O825   Zn828   1.941   .     S
O826   Zn829   1.929   .     S
Br831  C838    1.930   .     S
Br832  C1341   1.932   1_545 S
Br833  C867    1.929   .     S
C836   C842    1.434   .     S
C836   O904    1.266   .     A
C836   O906    1.270   .     A
C837   O900    1.392   .     S
C837   C851    1.413   .     A
C837   C865    1.428   .     A
C838   C850    1.392   .     A
C838   C851    1.398   .     A
C839   O907    1.284   .     A
C839   C841    1.456   .     S
C839   O905    1.286   .     A
C840   C852    1.416   .     A
C840   C849    1.478   .     S
C840   C864    1.420   .     A
C841   Br918   1.928   .     S
C841   C925    1.339   .     S
C843   C846    1.453   .     S
C843   Br1081  1.932   .     S
C843   C1093   1.335   .     S
C844   C845    1.435   .     S
C844   C1341   1.335   1_545 S
C844   H1378   1.087   1_545 S
C845   O902    1.279   .     A
C845   O908    1.279   .     A
C846   O903    1.272   .     A
C846   O909    1.267   .     A
C847   C852    1.390   .     A
C847   Br87    1.919   1_556 S
C847   C111    1.386   1_556 S
C848   C851    1.454   .     S
C848   O895    1.265   .     A
C848   O897    1.272   .     A
C849   O896    1.278   .     A
C849   O898    1.290   .     A
C852   O901    1.383   .     S
C853   O899    1.419   .     S
C853   H889    1.111   .     S
C853   C854    1.532   .     S
C853   H890    1.116   .     S
C854   C1353   1.527   1_545 S
C854   H144    1.112   1_556 S
C854   H145    1.111   1_556 S
C855   H870    1.111   .     S
C855   H893    1.111   .     S
C855   H871    1.111   .     S
C855   C1103   1.527   .     S
C856   C857    1.551   .     S
C856   H873    1.105   .     S
C856   O900    1.431   .     S
C856   H872    1.111   .     S
C857   C859    1.526   .     S
C857   H874    1.110   .     S
C857   H875    1.109   .     S
C858   H887    1.059   .     S
C859   H877    1.110   .     S
C859   H878    1.111   .     S
C859   H876    1.111   .     S
C860   H881    1.115   .     S
C860   O901    1.413   .     S
C860   C861    1.529   .     S
C860   H879    1.115   .     S
C861   H882    1.112   .     S
C861   C862    1.526   .     S
C861   H883    1.112   .     S
C862   H885    1.110   .     S
C862   H884    1.111   .     S
C862   H886    1.111   .     S
C863   C864    1.418   .     A
C863   C111    1.414   1_556 S
C863   C118    1.437   1_556 S
C864   C868    1.401   .     A
C866   C867    1.412   .     A
C866   C103    1.417   1_556 S
C866   C118    1.433   1_556 S
C867   C868    1.383   .     A
C868   H888    1.081   .     S
H869   C925    1.086   .     S
H880   C1093   1.087   .     S
O894   Zn910   1.972   .     S
O894   Zn913   1.928   .     S
O894   Zn912   1.932   .     S
O894   Zn911   1.938   .     S
O895   Zn911   1.942   .     S
O896   Zn913   1.955   .     S
O897   Zn912   1.944   .     S
O898   Zn910   1.933   .     S
O899   C103    1.385   1_556 S
O902   Zn910   1.923   .     S
O903   Zn913   1.931   .     S
O904   Zn911   1.919   .     S
O905   Zn912   1.933   .     S
O906   Zn913   1.923   .     S
O907   Zn910   1.912   .     S
O908   Zn911   1.941   .     S
O909   Zn912   1.929   .     S
Br914  C921    1.930   .     S
Br915  C1424   1.932   1_545 S
Br916  C950    1.929   .     S
C919   C925    1.434   .     S
C919   O987    1.266   .     A
C919   O989    1.270   .     A
C920   O983    1.392   .     S
C920   C934    1.413   .     A
C920   C948    1.428   .     A
C921   C933    1.392   .     A
C921   C934    1.398   .     A
C922   O990    1.284   .     A
C922   C924    1.456   .     S
C922   O988    1.286   .     A
C923   C935    1.416   .     A
C923   C932    1.478   .     S
C923   C947    1.420   .     A
C924   Br752   1.928   1_655 S
C924   C759    1.339   1_655 S
C926   C929    1.453   .     S
C926   Br1164  1.932   .     S
C926   C1176   1.335   .     S
C927   C928    1.435   .     S
C927   C1424   1.335   1_545 S
C927   H1461   1.087   1_545 S
C928   O985    1.279   .     A
C928   O991    1.279   .     A
C929   O986    1.272   .     A
C929   O992    1.267   .     A
C930   C935    1.390   .     A
C930   Br170   1.919   1_556 S
C930   C194    1.386   1_556 S
C931   C934    1.454   .     S
C931   O978    1.265   .     A
C931   O980    1.272   .     A
C932   O979    1.278   .     A
C932   O981    1.290   .     A
C935   O984    1.383   .     S
C936   O982    1.419   .     S
C936   H972    1.111   .     S
C936   C937    1.532   .     S
C936   H973    1.116   .     S
C937   C1436   1.527   1_545 S
C937   H227    1.112   1_556 S
C937   H228    1.111   1_556 S
C938   H953    1.111   .     S
C938   H976    1.111   .     S
C938   H954    1.111   .     S
C938   C1186   1.527   .     S
C939   C940    1.551   .     S
C939   H956    1.105   .     S
C939   O983    1.431   .     S
C939   H955    1.111   .     S
C940   C942    1.526   .     S
C940   H957    1.110   .     S
C940   H958    1.109   .     S
C941   H970    1.059   .     S
C942   H960    1.110   .     S
C942   H961    1.111   .     S
C942   H959    1.111   .     S
C943   H964    1.115   .     S
C943   O984    1.413   .     S
C943   C944    1.529   .     S
C943   H962    1.115   .     S
C944   H965    1.112   .     S
C944   C945    1.526   .     S
C944   H966    1.112   .     S
C945   H968    1.110   .     S
C945   H967    1.111   .     S
C945   H969    1.111   .     S
C946   C947    1.418   .     A
C946   C194    1.414   1_556 S
C946   C201    1.437   1_556 S
C947   C951    1.401   .     A
C949   C950    1.412   .     A
C949   C186    1.417   1_556 S
C949   C201    1.433   1_556 S
C950   C951    1.383   .     A
C951   H971    1.081   .     S
H952   C759    1.086   1_655 S
H963   C1176   1.087   .     S
O977   Zn993   1.972   .     S
O977   Zn996   1.928   .     S
O977   Zn995   1.932   .     S
O977   Zn994   1.938   .     S
O978   Zn994   1.942   .     S
O979   Zn996   1.955   .     S
O980   Zn995   1.944   .     S
O981   Zn993   1.933   .     S
O982   C186    1.385   1_556 S
O985   Zn993   1.923   .     S
O986   Zn996   1.931   .     S
O987   Zn994   1.919   .     S
O988   Zn995   1.933   .     S
O989   Zn996   1.923   .     S
O990   Zn993   1.912   .     S
O991   Zn994   1.941   .     S
O992   Zn995   1.929   .     S
Br997  C1004   1.930   .     S
Br999  C1033   1.929   .     S
Br1001 C1173   1.928   1_455 S
C1002  C1008   1.434   .     S
C1002  O1070   1.266   .     A
C1002  O1072   1.270   .     A
C1003  O1066   1.392   .     S
C1003  C1017   1.413   .     A
C1003  C1031   1.428   .     A
C1004  C1016   1.392   .     A
C1004  C1017   1.398   .     A
C1005  O1073   1.284   .     A
C1005  C1007   1.456   .     S
C1005  O1071   1.286   .     A
C1006  C1018   1.416   .     A
C1006  C1015   1.478   .     S
C1006  C1030   1.420   .     A
C1007  Br1084  1.928   .     S
C1007  C1091   1.339   .     S
C1008  C1173   1.339   1_455 S
C1008  H1201   1.086   1_455 S
C1009  C1012   1.453   .     S
C1009  Br1247  1.932   .     S
C1009  C1259   1.335   .     S
C1010  C1011   1.435   .     S
C1011  O1068   1.279   .     A
C1011  O1074   1.279   .     A
C1012  O1069   1.272   .     A
C1012  O1075   1.267   .     A
C1013  C1018   1.390   .     A
C1013  Br253   1.919   1_556 S
C1013  C277    1.386   1_556 S
C1014  C1017   1.454   .     S
C1014  O1061   1.265   .     A
C1014  O1063   1.272   .     A
C1015  O1062   1.278   .     A
C1015  O1064   1.290   .     A
C1018  O1067   1.383   .     S
C1019  O1065   1.419   .     S
C1019  H1055   1.111   .     S
C1019  C1020   1.532   .     S
C1019  H1056   1.116   .     S
C1020  H310    1.112   1_556 S
C1020  H311    1.111   1_556 S
C1021  H1036   1.111   .     S
C1021  H1059   1.111   .     S
C1021  H1037   1.111   .     S
C1021  C1269   1.527   .     S
C1022  C1023   1.551   .     S
C1022  H1039   1.105   .     S
C1022  O1066   1.431   .     S
C1022  H1038   1.111   .     S
C1023  C1025   1.526   .     S
C1023  H1040   1.110   .     S
C1023  H1041   1.109   .     S
C1024  H1053   1.059   .     S
C1025  H1043   1.110   .     S
C1025  H1044   1.111   .     S
C1025  H1042   1.111   .     S
C1026  H1047   1.115   .     S
C1026  O1067   1.413   .     S
C1026  C1027   1.529   .     S
C1026  H1045   1.115   .     S
C1027  H1048   1.112   .     S
C1027  C1028   1.526   .     S
C1027  H1049   1.112   .     S
C1028  H1051   1.110   .     S
C1028  H1050   1.111   .     S
C1028  H1052   1.111   .     S
C1029  C1030   1.418   .     A
C1029  C277    1.414   1_556 S
C1029  C284    1.437   1_556 S
C1030  C1034   1.401   .     A
C1032  C1033   1.412   .     A
C1032  C269    1.417   1_556 S
C1032  C284    1.433   1_556 S
C1033  C1034   1.383   .     A
C1034  H1054   1.081   .     S
H1035  C1091   1.086   .     S
H1046  C1259   1.087   .     S
O1060  Zn1076  1.972   .     S
O1060  Zn1079  1.928   .     S
O1060  Zn1078  1.932   .     S
O1060  Zn1077  1.938   .     S
O1061  Zn1077  1.942   .     S
O1062  Zn1079  1.955   .     S
O1063  Zn1078  1.944   .     S
O1064  Zn1076  1.933   .     S
O1065  C269    1.385   1_556 S
O1068  Zn1076  1.923   .     S
O1069  Zn1079  1.931   .     S
O1070  Zn1077  1.919   .     S
O1071  Zn1078  1.933   .     S
O1072  Zn1079  1.923   .     S
O1073  Zn1076  1.912   .     S
O1074  Zn1077  1.941   .     S
O1075  Zn1078  1.929   .     S
Br1080 C1087   1.930   .     S
Br1082 C1116   1.929   .     S
C1085  C1091   1.434   .     S
C1085  O1153   1.266   .     A
C1085  O1155   1.270   .     A
C1086  O1149   1.392   .     S
C1086  C1100   1.413   .     A
C1086  C1114   1.428   .     A
C1087  C1099   1.392   .     A
C1087  C1100   1.398   .     A
C1088  O1156   1.284   .     A
C1088  C1090   1.456   .     S
C1088  O1154   1.286   .     A
C1089  C1101   1.416   .     A
C1089  C1098   1.478   .     S
C1089  C1113   1.420   .     A
C1090  Br1167  1.928   .     S
C1090  C1174   1.339   .     S
C1092  C1095   1.453   .     S
C1092  Br1330  1.932   .     S
C1092  C1342   1.335   .     S
C1093  C1094   1.435   .     S
C1094  O1151   1.279   .     A
C1094  O1157   1.279   .     A
C1095  O1152   1.272   .     A
C1095  O1158   1.267   .     A
C1096  C1101   1.390   .     A
C1096  Br336   1.919   1_556 S
C1096  C360    1.386   1_556 S
C1097  C1100   1.454   .     S
C1097  O1144   1.265   .     A
C1097  O1146   1.272   .     A
C1098  O1145   1.278   .     A
C1098  O1147   1.290   .     A
C1101  O1150   1.383   .     S
C1102  O1148   1.419   .     S
C1102  H1138   1.111   .     S
C1102  C1103   1.532   .     S
C1102  H1139   1.116   .     S
C1103  H393    1.112   1_556 S
C1103  H394    1.111   1_556 S
C1104  H1119   1.111   .     S
C1104  H1142   1.111   .     S
C1104  H1120   1.111   .     S
C1104  C1352   1.527   .     S
C1105  C1106   1.551   .     S
C1105  H1122   1.105   .     S
C1105  O1149   1.431   .     S
C1105  H1121   1.111   .     S
C1106  C1108   1.526   .     S
C1106  H1123   1.110   .     S
C1106  H1124   1.109   .     S
C1107  H1136   1.059   .     S
C1108  H1126   1.110   .     S
C1108  H1127   1.111   .     S
C1108  H1125   1.111   .     S
C1109  H1130   1.115   .     S
C1109  O1150   1.413   .     S
C1109  C1110   1.529   .     S
C1109  H1128   1.115   .     S
C1110  H1131   1.112   .     S
C1110  C1111   1.526   .     S
C1110  H1132   1.112   .     S
C1111  H1134   1.110   .     S
C1111  H1133   1.111   .     S
C1111  H1135   1.111   .     S
C1112  C1113   1.418   .     A
C1112  C360    1.414   1_556 S
C1112  C367    1.437   1_556 S
C1113  C1117   1.401   .     A
C1115  C1116   1.412   .     A
C1115  C352    1.417   1_556 S
C1115  C367    1.433   1_556 S
C1116  C1117   1.383   .     A
C1117  H1137   1.081   .     S
H1118  C1174   1.086   .     S
H1129  C1342   1.087   .     S
O1143  Zn1159  1.972   .     S
O1143  Zn1162  1.928   .     S
O1143  Zn1161  1.932   .     S
O1143  Zn1160  1.938   .     S
O1144  Zn1160  1.942   .     S
O1145  Zn1162  1.955   .     S
O1146  Zn1161  1.944   .     S
O1147  Zn1159  1.933   .     S
O1148  C352    1.385   1_556 S
O1151  Zn1159  1.923   .     S
O1152  Zn1162  1.931   .     S
O1153  Zn1160  1.919   .     S
O1154  Zn1161  1.933   .     S
O1155  Zn1162  1.923   .     S
O1156  Zn1159  1.912   .     S
O1157  Zn1160  1.941   .     S
O1158  Zn1161  1.929   .     S
Br1163 C1170   1.930   .     S
Br1165 C1199   1.929   .     S
C1168  C1174   1.434   .     S
C1168  O1236   1.266   .     A
C1168  O1238   1.270   .     A
C1169  O1232   1.392   .     S
C1169  C1183   1.413   .     A
C1169  C1197   1.428   .     A
C1170  C1182   1.392   .     A
C1170  C1183   1.398   .     A
C1171  O1239   1.284   .     A
C1171  C1173   1.456   .     S
C1171  O1237   1.286   .     A
C1172  C1184   1.416   .     A
C1172  C1181   1.478   .     S
C1172  C1196   1.420   .     A
C1173  Br1001  1.928   1_655 S
C1173  C1008   1.339   1_655 S
C1175  C1178   1.453   .     S
C1175  Br1413  1.932   .     S
C1175  C1425   1.335   .     S
C1176  C1177   1.435   .     S
C1177  O1234   1.279   .     A
C1177  O1240   1.279   .     A
C1178  O1235   1.272   .     A
C1178  O1241   1.267   .     A
C1179  C1184   1.390   .     A
C1179  Br419   1.919   1_556 S
C1179  C443    1.386   1_556 S
C1180  C1183   1.454   .     S
C1180  O1227   1.265   .     A
C1180  O1229   1.272   .     A
C1181  O1228   1.278   .     A
C1181  O1230   1.290   .     A
C1184  O1233   1.383   .     S
C1185  O1231   1.419   .     S
C1185  H1221   1.111   .     S
C1185  C1186   1.532   .     S
C1185  H1222   1.116   .     S
C1186  H476    1.112   1_556 S
C1186  H477    1.111   1_556 S
C1187  H1202   1.111   .     S
C1187  H1225   1.111   .     S
C1187  H1203   1.111   .     S
C1187  C1435   1.527   .     S
C1188  C1189   1.551   .     S
C1188  H1205   1.105   .     S
C1188  O1232   1.431   .     S
C1188  H1204   1.111   .     S
C1189  C1191   1.526   .     S
C1189  H1206   1.110   .     S
C1189  H1207   1.109   .     S
C1190  H1219   1.059   .     S
C1191  H1209   1.110   .     S
C1191  H1210   1.111   .     S
C1191  H1208   1.111   .     S
C1192  H1213   1.115   .     S
C1192  O1233   1.413   .     S
C1192  C1193   1.529   .     S
C1192  H1211   1.115   .     S
C1193  H1214   1.112   .     S
C1193  C1194   1.526   .     S
C1193  H1215   1.112   .     S
C1194  H1217   1.110   .     S
C1194  H1216   1.111   .     S
C1194  H1218   1.111   .     S
C1195  C1196   1.418   .     A
C1195  C443    1.414   1_556 S
C1195  C450    1.437   1_556 S
C1196  C1200   1.401   .     A
C1198  C1199   1.412   .     A
C1198  C435    1.417   1_556 S
C1198  C450    1.433   1_556 S
C1199  C1200   1.383   .     A
C1200  H1220   1.081   .     S
H1201  C1008   1.086   1_655 S
H1212  C1425   1.087   .     S
O1226  Zn1242  1.972   .     S
O1226  Zn1245  1.928   .     S
O1226  Zn1244  1.932   .     S
O1226  Zn1243  1.938   .     S
O1227  Zn1243  1.942   .     S
O1228  Zn1245  1.955   .     S
O1229  Zn1244  1.944   .     S
O1230  Zn1242  1.933   .     S
O1231  C435    1.385   1_556 S
O1234  Zn1242  1.923   .     S
O1235  Zn1245  1.931   .     S
O1236  Zn1243  1.919   .     S
O1237  Zn1244  1.933   .     S
O1238  Zn1245  1.923   .     S
O1239  Zn1242  1.912   .     S
O1240  Zn1243  1.941   .     S
O1241  Zn1244  1.929   .     S
Br1246 C1253   1.930   .     S
Br1248 C1282   1.929   .     S
Br1250 C1422   1.928   1_455 S
C1251  C1257   1.434   .     S
C1251  O1319   1.266   .     A
C1251  O1321   1.270   .     A
C1252  O1315   1.392   .     S
C1252  C1266   1.413   .     A
C1252  C1280   1.428   .     A
C1253  C1265   1.392   .     A
C1253  C1266   1.398   .     A
C1254  O1322   1.284   .     A
C1254  C1256   1.456   .     S
C1254  O1320   1.286   .     A
C1255  C1267   1.416   .     A
C1255  C1264   1.478   .     S
C1255  C1279   1.420   .     A
C1256  Br1333  1.928   .     S
C1256  C1340   1.339   .     S
C1257  C1422   1.339   1_455 S
C1257  H1450   1.086   1_455 S
C1258  C1261   1.453   .     S
C1258  Br749   1.932   1_565 S
C1258  C761    1.335   1_565 S
C1259  C1260   1.435   .     S
C1260  O1317   1.279   .     A
C1260  O1323   1.279   .     A
C1261  O1318   1.272   .     A
C1261  O1324   1.267   .     A
C1262  C1267   1.390   .     A
C1262  Br502   1.919   1_556 S
C1262  C526    1.386   1_556 S
C1263  C1266   1.454   .     S
C1263  O1310   1.265   .     A
C1263  O1312   1.272   .     A
C1264  O1311   1.278   .     A
C1264  O1313   1.290   .     A
C1267  O1316   1.383   .     S
C1268  O1314   1.419   .     S
C1268  H1304   1.111   .     S
C1268  C1269   1.532   .     S
C1268  H1305   1.116   .     S
C1269  H559    1.112   1_556 S
C1269  H560    1.111   1_556 S
C1270  H1285   1.111   .     S
C1270  H1308   1.111   .     S
C1270  H1286   1.111   .     S
C1270  C771    1.527   1_565 S
C1271  C1272   1.551   .     S
C1271  H1288   1.105   .     S
C1271  O1315   1.431   .     S
C1271  H1287   1.111   .     S
C1272  C1274   1.526   .     S
C1272  H1289   1.110   .     S
C1272  H1290   1.109   .     S
C1273  H1302   1.059   .     S
C1274  H1292   1.110   .     S
C1274  H1293   1.111   .     S
C1274  H1291   1.111   .     S
C1275  H1296   1.115   .     S
C1275  O1316   1.413   .     S
C1275  C1276   1.529   .     S
C1275  H1294   1.115   .     S
C1276  H1297   1.112   .     S
C1276  C1277   1.526   .     S
C1276  H1298   1.112   .     S
C1277  H1300   1.110   .     S
C1277  H1299   1.111   .     S
C1277  H1301   1.111   .     S
C1278  C1279   1.418   .     A
C1278  C526    1.414   1_556 S
C1278  C533    1.437   1_556 S
C1279  C1283   1.401   .     A
C1281  C1282   1.412   .     A
C1281  C518    1.417   1_556 S
C1281  C533    1.433   1_556 S
C1282  C1283   1.383   .     A
C1283  H1303   1.081   .     S
H1284  C1340   1.086   .     S
H1295  C761    1.087   1_565 S
O1309  Zn1325  1.972   .     S
O1309  Zn1328  1.928   .     S
O1309  Zn1327  1.932   .     S
O1309  Zn1326  1.938   .     S
O1310  Zn1326  1.942   .     S
O1311  Zn1328  1.955   .     S
O1312  Zn1327  1.944   .     S
O1313  Zn1325  1.933   .     S
O1314  C518    1.385   1_556 S
O1317  Zn1325  1.923   .     S
O1318  Zn1328  1.931   .     S
O1319  Zn1326  1.919   .     S
O1320  Zn1327  1.933   .     S
O1321  Zn1328  1.923   .     S
O1322  Zn1325  1.912   .     S
O1323  Zn1326  1.941   .     S
O1324  Zn1327  1.929   .     S
Br1329 C1336   1.930   .     S
Br1331 C1365   1.929   .     S
C1334  C1340   1.434   .     S
C1334  O1402   1.266   .     A
C1334  O1404   1.270   .     A
C1335  O1398   1.392   .     S
C1335  C1349   1.413   .     A
C1335  C1363   1.428   .     A
C1336  C1348   1.392   .     A
C1336  C1349   1.398   .     A
C1337  O1405   1.284   .     A
C1337  C1339   1.456   .     S
C1337  O1403   1.286   .     A
C1338  C1350   1.416   .     A
C1338  C1347   1.478   .     S
C1338  C1362   1.420   .     A
C1339  Br1416  1.928   .     S
C1339  C1423   1.339   .     S
C1341  C1344   1.453   .     S
C1341  Br832   1.932   1_565 S
C1341  C844    1.335   1_565 S
C1342  C1343   1.435   .     S
C1343  O1400   1.279   .     A
C1343  O1406   1.279   .     A
C1344  O1401   1.272   .     A
C1344  O1407   1.267   .     A
C1345  C1350   1.390   .     A
C1345  Br585   1.919   1_556 S
C1345  C609    1.386   1_556 S
C1346  C1349   1.454   .     S
C1346  O1393   1.265   .     A
C1346  O1395   1.272   .     A
C1347  O1394   1.278   .     A
C1347  O1396   1.290   .     A
C1350  O1399   1.383   .     S
C1351  O1397   1.419   .     S
C1351  H1387   1.111   .     S
C1351  C1352   1.532   .     S
C1351  H1388   1.116   .     S
C1352  H642    1.112   1_556 S
C1352  H643    1.111   1_556 S
C1353  H1368   1.111   .     S
C1353  H1391   1.111   .     S
C1353  H1369   1.111   .     S
C1353  C854    1.527   1_565 S
C1354  C1355   1.551   .     S
C1354  H1371   1.105   .     S
C1354  O1398   1.431   .     S
C1354  H1370   1.111   .     S
C1355  C1357   1.526   .     S
C1355  H1372   1.110   .     S
C1355  H1373   1.109   .     S
C1356  H1385   1.059   .     S
C1357  H1375   1.110   .     S
C1357  H1376   1.111   .     S
C1357  H1374   1.111   .     S
C1358  H1379   1.115   .     S
C1358  O1399   1.413   .     S
C1358  C1359   1.529   .     S
C1358  H1377   1.115   .     S
C1359  H1380   1.112   .     S
C1359  C1360   1.526   .     S
C1359  H1381   1.112   .     S
C1360  H1383   1.110   .     S
C1360  H1382   1.111   .     S
C1360  H1384   1.111   .     S
C1361  C1362   1.418   .     A
C1361  C609    1.414   1_556 S
C1361  C616    1.437   1_556 S
C1362  C1366   1.401   .     A
C1364  C1365   1.412   .     A
C1364  C601    1.417   1_556 S
C1364  C616    1.433   1_556 S
C1365  C1366   1.383   .     A
C1366  H1386   1.081   .     S
H1367  C1423   1.086   .     S
H1378  C844    1.087   1_565 S
O1392  Zn1408  1.972   .     S
O1392  Zn1411  1.928   .     S
O1392  Zn1410  1.932   .     S
O1392  Zn1409  1.938   .     S
O1393  Zn1409  1.942   .     S
O1394  Zn1411  1.955   .     S
O1395  Zn1410  1.944   .     S
O1396  Zn1408  1.933   .     S
O1397  C601    1.385   1_556 S
O1400  Zn1408  1.923   .     S
O1401  Zn1411  1.931   .     S
O1402  Zn1409  1.919   .     S
O1403  Zn1410  1.933   .     S
O1404  Zn1411  1.923   .     S
O1405  Zn1408  1.912   .     S
O1406  Zn1409  1.941   .     S
O1407  Zn1410  1.929   .     S
Br1412 C1419   1.930   .     S
Br1414 C1448   1.929   .     S
C1417  C1423   1.434   .     S
C1417  O1485   1.266   .     A
C1417  O1487   1.270   .     A
C1418  O1481   1.392   .     S
C1418  C1432   1.413   .     A
C1418  C1446   1.428   .     A
C1419  C1431   1.392   .     A
C1419  C1432   1.398   .     A
C1420  O1488   1.284   .     A
C1420  C1422   1.456   .     S
C1420  O1486   1.286   .     A
C1421  C1433   1.416   .     A
C1421  C1430   1.478   .     S
C1421  C1445   1.420   .     A
C1422  Br1250  1.928   1_655 S
C1422  C1257   1.339   1_655 S
C1424  C1427   1.453   .     S
C1424  Br915   1.932   1_565 S
C1424  C927    1.335   1_565 S
C1425  C1426   1.435   .     S
C1426  O1483   1.279   .     A
C1426  O1489   1.279   .     A
C1427  O1484   1.272   .     A
C1427  O1490   1.267   .     A
C1428  C1433   1.390   .     A
C1428  Br668   1.919   1_556 S
C1428  C692    1.386   1_556 S
C1429  C1432   1.454   .     S
C1429  O1476   1.265   .     A
C1429  O1478   1.272   .     A
C1430  O1477   1.278   .     A
C1430  O1479   1.290   .     A
C1433  O1482   1.383   .     S
C1434  O1480   1.419   .     S
C1434  H1470   1.111   .     S
C1434  C1435   1.532   .     S
C1434  H1471   1.116   .     S
C1435  H725    1.112   1_556 S
C1435  H726    1.111   1_556 S
C1436  H1451   1.111   .     S
C1436  H1474   1.111   .     S
C1436  H1452   1.111   .     S
C1436  C937    1.527   1_565 S
C1437  C1438   1.551   .     S
C1437  H1454   1.105   .     S
C1437  O1481   1.431   .     S
C1437  H1453   1.111   .     S
C1438  C1440   1.526   .     S
C1438  H1455   1.110   .     S
C1438  H1456   1.109   .     S
C1439  H1468   1.059   .     S
C1440  H1458   1.110   .     S
C1440  H1459   1.111   .     S
C1440  H1457   1.111   .     S
C1441  H1462   1.115   .     S
C1441  O1482   1.413   .     S
C1441  C1442   1.529   .     S
C1441  H1460   1.115   .     S
C1442  H1463   1.112   .     S
C1442  C1443   1.526   .     S
C1442  H1464   1.112   .     S
C1443  H1466   1.110   .     S
C1443  H1465   1.111   .     S
C1443  H1467   1.111   .     S
C1444  C1445   1.418   .     A
C1444  C692    1.414   1_556 S
C1444  C699    1.437   1_556 S
C1445  C1449   1.401   .     A
C1447  C1448   1.412   .     A
C1447  C684    1.417   1_556 S
C1447  C699    1.433   1_556 S
C1448  C1449   1.383   .     A
C1449  H1469   1.081   .     S
H1450  C1257   1.086   1_655 S
H1461  C927    1.087   1_565 S
O1475  Zn1491  1.972   .     S
O1475  Zn1494  1.928   .     S
O1475  Zn1493  1.932   .     S
O1475  Zn1492  1.938   .     S
O1476  Zn1492  1.942   .     S
O1477  Zn1494  1.955   .     S
O1478  Zn1493  1.944   .     S
O1479  Zn1491  1.933   .     S
O1480  C684    1.385   1_556 S
O1483  Zn1491  1.923   .     S
O1484  Zn1494  1.931   .     S
O1485  Zn1492  1.919   .     S
O1486  Zn1493  1.933   .     S
O1487  Zn1494  1.923   .     S
O1488  Zn1491  1.912   .     S
O1489  Zn1492  1.941   .     S
O1490  Zn1493  1.929   .     S
