data_str_m1_o5_o17_pcu_sym.69
_audit_creation_date              2020-01-03
_audit_creation_method            'Materials Studio'
_symmetry_space_group_name_H-M    'P1'
_symmetry_Int_Tables_number       1
_symmetry_cell_setting            triclinic
loop_
_symmetry_equiv_pos_as_xyz
  x,y,z
_cell_length_a                    31.7760
_cell_length_b                    31.7765
_cell_length_c                    34.5584
_cell_angle_alpha                 90.0000
_cell_angle_beta                  90.0000
_cell_angle_gamma                 89.9998
loop_
_atom_site_label
_atom_site_type_symbol
_atom_site_fract_x
_atom_site_fract_y
_atom_site_fract_z
_atom_site_U_iso_or_equiv
_atom_site_adp_type
_atom_site_occupancy
Zn1    Zn    0.20052   0.00000   0.21730   0.00000  Uiso   1.00
Zn2    Zn    0.29947   0.00000   0.78270   0.00000  Uiso   1.00
Zn3    Zn    0.00000   0.20053   0.21730   0.00000  Uiso   1.00
Zn4    Zn    0.00000   0.29948   0.78270   0.00000  Uiso   1.00
Zn5    Zn    0.29947   0.00000   0.21730   0.00000  Uiso   1.00
Zn6    Zn    0.20052   0.00000   0.78270   0.00000  Uiso   1.00
Zn7    Zn    0.00000   0.29948   0.21730   0.00000  Uiso   1.00
Zn8    Zn    0.00000   0.20053   0.78270   0.00000  Uiso   1.00
Zn9    Zn    0.45052   0.25000   0.71730   0.00000  Uiso   1.00
Zn10   Zn    0.04947   0.25000   0.28270   0.00000  Uiso   1.00
Zn11   Zn    0.25000   0.45053   0.71730   0.00000  Uiso   1.00
Zn12   Zn    0.25000   0.04948   0.28270   0.00000  Uiso   1.00
Zn13   Zn    0.04947   0.25000   0.71730   0.00000  Uiso   1.00
Zn14   Zn    0.45052   0.25000   0.28270   0.00000  Uiso   1.00
Zn15   Zn    0.25000   0.04948   0.71730   0.00000  Uiso   1.00
Zn16   Zn    0.25000   0.45053   0.28270   0.00000  Uiso   1.00
O17    O     0.25000   0.00000   0.25000   0.00000  Uiso   1.00
O18    O     0.25000   0.00000   0.75000   0.00000  Uiso   1.00
O19    O    -0.00000   0.25000   0.25000   0.00000  Uiso   1.00
O20    O     0.00000   0.25000   0.75000   0.00000  Uiso   1.00
O21    O     0.25000   0.46539   0.33749   0.00000  Uiso   1.00
O22    O     0.25000   0.03462   0.66251   0.00000  Uiso   1.00
O23    O     0.03461   0.25000   0.33749   0.00000  Uiso   1.00
O24    O     0.46538   0.25000   0.66251   0.00000  Uiso   1.00
O25    O     0.25000   0.03462   0.33749   0.00000  Uiso   1.00
O26    O     0.25000   0.46539   0.66251   0.00000  Uiso   1.00
O27    O     0.46538   0.25000   0.33749   0.00000  Uiso   1.00
O28    O     0.03461   0.25000   0.66251   0.00000  Uiso   1.00
O29    O     0.00000   0.21539   0.83749   0.00000  Uiso   1.00
O30    O     0.00000   0.28462   0.16251   0.00000  Uiso   1.00
O31    O     0.28461   0.00000   0.83749   0.00000  Uiso   1.00
O32    O     0.21538   0.00000   0.16251   0.00000  Uiso   1.00
O33    O     0.00000   0.28462   0.83749   0.00000  Uiso   1.00
O34    O    -0.00000   0.21539   0.16251   0.00000  Uiso   1.00
O35    O     0.21538   0.00000   0.83749   0.00000  Uiso   1.00
O36    O     0.28461   0.00000   0.16251   0.00000  Uiso   1.00
O37    O     0.20126   0.08332   0.27298   0.00000  Uiso   1.00
O38    O     0.29873   0.41668   0.72702   0.00000  Uiso   1.00
O39    O     0.41668   0.20127   0.27298   0.00000  Uiso   1.00
O40    O     0.08332   0.29874   0.72702   0.00000  Uiso   1.00
O41    O     0.29873   0.41668   0.27298   0.00000  Uiso   1.00
O42    O     0.20126   0.08332   0.72702   0.00000  Uiso   1.00
O43    O     0.08332   0.29874   0.27298   0.00000  Uiso   1.00
O44    O     0.41668   0.20127   0.72702   0.00000  Uiso   1.00
O45    O     0.20126   0.41668   0.72702   0.00000  Uiso   1.00
O46    O     0.29873   0.08332   0.27298   0.00000  Uiso   1.00
O47    O     0.41668   0.29874   0.72702   0.00000  Uiso   1.00
O48    O     0.08332   0.20127   0.27298   0.00000  Uiso   1.00
O49    O     0.29873   0.08332   0.72702   0.00000  Uiso   1.00
O50    O     0.20126   0.41668   0.27298   0.00000  Uiso   1.00
O51    O     0.08332   0.20127   0.72702   0.00000  Uiso   1.00
O52    O     0.41668   0.29874   0.27298   0.00000  Uiso   1.00
O53    O     0.45126   0.33332   0.77298   0.00000  Uiso   1.00
O54    O     0.04873   0.16668   0.22702   0.00000  Uiso   1.00
O55    O     0.16668   0.45127   0.77298   0.00000  Uiso   1.00
O56    O     0.33332   0.04874   0.22702   0.00000  Uiso   1.00
O57    O     0.04873   0.16668   0.77298   0.00000  Uiso   1.00
O58    O     0.45126   0.33332   0.22702   0.00000  Uiso   1.00
O59    O     0.33332   0.04874   0.77298   0.00000  Uiso   1.00
O60    O     0.16668   0.45127   0.22702   0.00000  Uiso   1.00
O61    O     0.45126   0.16668   0.22702   0.00000  Uiso   1.00
O62    O     0.04873   0.33332   0.77298   0.00000  Uiso   1.00
O63    O     0.16668   0.04874   0.22702   0.00000  Uiso   1.00
O64    O     0.33332   0.45127   0.77298   0.00000  Uiso   1.00
O65    O     0.04873   0.33332   0.22702   0.00000  Uiso   1.00
O66    O     0.45126   0.16668   0.77298   0.00000  Uiso   1.00
O67    O     0.33332   0.45127   0.22702   0.00000  Uiso   1.00
O68    O     0.16668   0.04874   0.77298   0.00000  Uiso   1.00
H69    H     0.42773   0.17148   0.46539   0.00000  Uiso   1.00
H70    H     0.07227   0.32852   0.53461   0.00000  Uiso   1.00
H71    H     0.32923   0.42851   0.46539   0.00000  Uiso   1.00
H72    H     0.17077   0.07149   0.53461   0.00000  Uiso   1.00
H73    H     0.07227   0.32852   0.46539   0.00000  Uiso   1.00
H74    H     0.42773   0.17148   0.53461   0.00000  Uiso   1.00
H75    H     0.17077   0.07149   0.46539   0.00000  Uiso   1.00
H76    H     0.32923   0.42851   0.53461   0.00000  Uiso   1.00
H77    H     0.17771   0.42150   0.96539   0.00000  Uiso   1.00
H78    H     0.32229   0.07850   0.03461   0.00000  Uiso   1.00
H79    H     0.07873   0.17796   0.96539   0.00000  Uiso   1.00
H80    H     0.42127   0.32204   0.03461   0.00000  Uiso   1.00
H81    H     0.32229   0.07850   0.96539   0.00000  Uiso   1.00
H82    H     0.17771   0.42150   0.03461   0.00000  Uiso   1.00
H83    H     0.42127   0.32204   0.96539   0.00000  Uiso   1.00
H84    H     0.07873   0.17796   0.03461   0.00000  Uiso   1.00
C85    C     0.25000   0.00000   0.35592   0.00000  Uiso   1.00
C86    C     0.25000   0.00000   0.64408   0.00000  Uiso   1.00
C87    C    -0.00000   0.25000   0.35592   0.00000  Uiso   1.00
C88    C     0.00000   0.25000   0.64408   0.00000  Uiso   1.00
C89    C    -0.00000   0.25000   0.85592   0.00000  Uiso   1.00
C90    C    -0.00000   0.25000   0.14408   0.00000  Uiso   1.00
C91    C     0.25000   0.00000   0.85592   0.00000  Uiso   1.00
C92    C     0.25000   0.00000   0.14408   0.00000  Uiso   1.00
C93    C     0.16998   0.08001   0.25001   0.00000  Uiso   1.00
C94    C     0.33002   0.41999   0.74999   0.00000  Uiso   1.00
C95    C     0.41999   0.16998   0.25001   0.00000  Uiso   1.00
C96    C     0.08001   0.33002   0.74999   0.00000  Uiso   1.00
C97    C     0.33002   0.41999   0.25001   0.00000  Uiso   1.00
C98    C     0.16998   0.08001   0.74999   0.00000  Uiso   1.00
C99    C     0.08001   0.33002   0.25001   0.00000  Uiso   1.00
C100   C     0.41999   0.16998   0.74999   0.00000  Uiso   1.00
C101   C     0.16999   0.41998   0.75001   0.00000  Uiso   1.00
C102   C     0.33001   0.08002   0.24999   0.00000  Uiso   1.00
C103   C     0.41998   0.33001   0.75001   0.00000  Uiso   1.00
C104   C     0.08002   0.16999   0.24999   0.00000  Uiso   1.00
C105   C     0.33001   0.08002   0.75001   0.00000  Uiso   1.00
C106   C     0.16999   0.41998   0.24999   0.00000  Uiso   1.00
C107   C     0.08002   0.16999   0.75001   0.00000  Uiso   1.00
C108   C     0.41998   0.33001   0.24999   0.00000  Uiso   1.00
C109   C     0.13833   0.38833   0.25000   0.00000  Uiso   1.00
C110   C     0.36167   0.11167   0.75000   0.00000  Uiso   1.00
C111   C     0.11167   0.13833   0.25000   0.00000  Uiso   1.00
C112   C     0.38833   0.36167   0.75000   0.00000  Uiso   1.00
C113   C     0.36167   0.11167   0.25000   0.00000  Uiso   1.00
C114   C     0.13833   0.38833   0.75000   0.00000  Uiso   1.00
C115   C     0.38833   0.36167   0.25000   0.00000  Uiso   1.00
C116   C     0.11167   0.13833   0.75000   0.00000  Uiso   1.00
C117   C     0.13833   0.11167   0.75000   0.00000  Uiso   1.00
C118   C     0.36167   0.38834   0.25000   0.00000  Uiso   1.00
C119   C     0.11167   0.36167   0.75000   0.00000  Uiso   1.00
C120   C     0.38833   0.13833   0.25000   0.00000  Uiso   1.00
C121   C     0.36167   0.38834   0.75000   0.00000  Uiso   1.00
C122   C     0.13833   0.11167   0.25000   0.00000  Uiso   1.00
C123   C     0.38833   0.13833   0.75000   0.00000  Uiso   1.00
C124   C     0.11167   0.36167   0.25000   0.00000  Uiso   1.00
C125   C     0.02707   0.27746   0.41843   0.00000  Uiso   1.00
C126   C     0.47293   0.22254   0.58157   0.00000  Uiso   1.00
C127   C     0.22230   0.02683   0.41843   0.00000  Uiso   1.00
C128   C     0.27770   0.47317   0.58157   0.00000  Uiso   1.00
C129   C     0.47293   0.22254   0.41843   0.00000  Uiso   1.00
C130   C     0.02707   0.27746   0.58157   0.00000  Uiso   1.00
C131   C     0.27770   0.47317   0.41843   0.00000  Uiso   1.00
C132   C     0.22230   0.02683   0.58157   0.00000  Uiso   1.00
C133   C     0.27708   0.02745   0.91843   0.00000  Uiso   1.00
C134   C     0.22292   0.47255   0.08157   0.00000  Uiso   1.00
C135   C     0.47247   0.27700   0.91843   0.00000  Uiso   1.00
C136   C     0.02753   0.22300   0.08157   0.00000  Uiso   1.00
C137   C     0.22292   0.47255   0.91843   0.00000  Uiso   1.00
C138   C     0.27708   0.02745   0.08157   0.00000  Uiso   1.00
C139   C     0.02753   0.22300   0.91843   0.00000  Uiso   1.00
C140   C     0.47247   0.27700   0.08157   0.00000  Uiso   1.00
C141   C    -0.00000   0.25000   0.39828   0.00000  Uiso   1.00
C142   C     0.00000   0.25000   0.60172   0.00000  Uiso   1.00
C143   C     0.25000   0.00000   0.39827   0.00000  Uiso   1.00
C144   C     0.25000   0.00000   0.60172   0.00000  Uiso   1.00
C145   C     0.25000   0.00000   0.89828   0.00000  Uiso   1.00
C146   C     0.25000   0.00000   0.10172   0.00000  Uiso   1.00
C147   C    -0.00000   0.25000   0.89828   0.00000  Uiso   1.00
C148   C    -0.00000   0.25000   0.10172   0.00000  Uiso   1.00
C149   C     0.47315   0.22225   0.45913   0.00000  Uiso   1.00
C150   C     0.02685   0.27775   0.54087   0.00000  Uiso   1.00
C151   C     0.27800   0.47341   0.45913   0.00000  Uiso   1.00
C152   C     0.22200   0.02659   0.54087   0.00000  Uiso   1.00
C153   C     0.02685   0.27775   0.45913   0.00000  Uiso   1.00
C154   C     0.47315   0.22225   0.54087   0.00000  Uiso   1.00
C155   C     0.22200   0.02659   0.45913   0.00000  Uiso   1.00
C156   C     0.27800   0.47341   0.54087   0.00000  Uiso   1.00
C157   C     0.22314   0.47226   0.95913   0.00000  Uiso   1.00
C158   C     0.27686   0.02774   0.04087   0.00000  Uiso   1.00
C159   C     0.02782   0.22322   0.95913   0.00000  Uiso   1.00
C160   C     0.47217   0.27677   0.04087   0.00000  Uiso   1.00
C161   C     0.27686   0.02774   0.95913   0.00000  Uiso   1.00
C162   C     0.22314   0.47226   0.04087   0.00000  Uiso   1.00
C163   C     0.47217   0.27677   0.95913   0.00000  Uiso   1.00
C164   C     0.02782   0.22322   0.04087   0.00000  Uiso   1.00
C165   C    -0.00000   0.25000   0.47952   0.00000  Uiso   1.00
C166   C    -0.00000   0.25000   0.52048   0.00000  Uiso   1.00
C167   C     0.25000   0.00000   0.47952   0.00000  Uiso   1.00
C168   C     0.25000   0.00000   0.52048   0.00000  Uiso   1.00
C169   C     0.25000   0.00000   0.97952   0.00000  Uiso   1.00
C170   C     0.25000   0.00000   0.02048   0.00000  Uiso   1.00
C171   C    -0.00000   0.25000   0.97952   0.00000  Uiso   1.00
C172   C    -0.00000   0.25000   0.02048   0.00000  Uiso   1.00
C173   C     0.44770   0.19408   0.47992   0.00000  Uiso   1.00
C174   C     0.05230   0.30593   0.52008   0.00000  Uiso   1.00
C175   C     0.30643   0.44825   0.47992   0.00000  Uiso   1.00
C176   C     0.19357   0.05175   0.52008   0.00000  Uiso   1.00
C177   C     0.05230   0.30593   0.47992   0.00000  Uiso   1.00
C178   C     0.44770   0.19408   0.52008   0.00000  Uiso   1.00
C179   C     0.19357   0.05175   0.47992   0.00000  Uiso   1.00
C180   C     0.30643   0.44825   0.52008   0.00000  Uiso   1.00
C181   C     0.19769   0.44409   0.97992   0.00000  Uiso   1.00
C182   C     0.30231   0.05591   0.02008   0.00000  Uiso   1.00
C183   C     0.05607   0.19786   0.97992   0.00000  Uiso   1.00
C184   C     0.44392   0.30214   0.02008   0.00000  Uiso   1.00
C185   C     0.30231   0.05591   0.97992   0.00000  Uiso   1.00
C186   C     0.19769   0.44409   0.02008   0.00000  Uiso   1.00
C187   C     0.44392   0.30214   0.97992   0.00000  Uiso   1.00
C188   C     0.05607   0.19786   0.02008   0.00000  Uiso   1.00
N189   N     0.05388   0.30583   0.39744   0.00000  Uiso   1.00
O190   O     0.03761   0.33434   0.37493   0.00000  Uiso   1.00
O191   O     0.09455   0.30145   0.39894   0.00000  Uiso   1.00
N192   N     0.44612   0.19417   0.60256   0.00000  Uiso   1.00
O193   O     0.46239   0.16566   0.62507   0.00000  Uiso   1.00
O194   O     0.40545   0.19855   0.60106   0.00000  Uiso   1.00
N195   N     0.19371   0.05339   0.39742   0.00000  Uiso   1.00
O196   O     0.16545   0.03689   0.37479   0.00000  Uiso   1.00
O197   O     0.19766   0.09411   0.39903   0.00000  Uiso   1.00
N198   N     0.30629   0.44661   0.60258   0.00000  Uiso   1.00
O199   O     0.33455   0.46311   0.62520   0.00000  Uiso   1.00
O200   O     0.30234   0.40589   0.60097   0.00000  Uiso   1.00
N201   N     0.44612   0.19417   0.39744   0.00000  Uiso   1.00
O202   O     0.46239   0.16566   0.37493   0.00000  Uiso   1.00
O203   O     0.40545   0.19856   0.39894   0.00000  Uiso   1.00
N204   N     0.05388   0.30583   0.60256   0.00000  Uiso   1.00
O205   O     0.03761   0.33434   0.62507   0.00000  Uiso   1.00
O206   O     0.09455   0.30144   0.60106   0.00000  Uiso   1.00
N207   N     0.30629   0.44661   0.39742   0.00000  Uiso   1.00
O208   O     0.33455   0.46311   0.37479   0.00000  Uiso   1.00
O209   O     0.30234   0.40589   0.39903   0.00000  Uiso   1.00
N210   N     0.19371   0.05339   0.60258   0.00000  Uiso   1.00
O211   O     0.16545   0.03689   0.62520   0.00000  Uiso   1.00
O212   O     0.19766   0.09411   0.60097   0.00000  Uiso   1.00
N213   N     0.30389   0.05582   0.89744   0.00000  Uiso   1.00
O214   O     0.28763   0.08433   0.87493   0.00000  Uiso   1.00
O215   O     0.34457   0.05142   0.89894   0.00000  Uiso   1.00
N216   N     0.19611   0.44419   0.10256   0.00000  Uiso   1.00
O217   O     0.21237   0.41567   0.12507   0.00000  Uiso   1.00
O218   O     0.15543   0.44858   0.10106   0.00000  Uiso   1.00
N219   N     0.44403   0.30374   0.89743   0.00000  Uiso   1.00
O220   O     0.41560   0.28740   0.87489   0.00000  Uiso   1.00
O221   O     0.44829   0.34443   0.89897   0.00000  Uiso   1.00
N222   N     0.05596   0.19626   0.10257   0.00000  Uiso   1.00
O223   O     0.08440   0.21260   0.12511   0.00000  Uiso   1.00
O224   O     0.05171   0.15557   0.10103   0.00000  Uiso   1.00
N225   N     0.19611   0.44419   0.89744   0.00000  Uiso   1.00
O226   O     0.21237   0.41567   0.87493   0.00000  Uiso   1.00
O227   O     0.15543   0.44858   0.89894   0.00000  Uiso   1.00
N228   N     0.30389   0.05581   0.10256   0.00000  Uiso   1.00
O229   O     0.28763   0.08433   0.12506   0.00000  Uiso   1.00
O230   O     0.34457   0.05142   0.10106   0.00000  Uiso   1.00
N231   N     0.05596   0.19626   0.89743   0.00000  Uiso   1.00
O232   O     0.08440   0.21260   0.87489   0.00000  Uiso   1.00
O233   O     0.05170   0.15557   0.89897   0.00000  Uiso   1.00
N234   N     0.44404   0.30374   0.10257   0.00000  Uiso   1.00
O235   O     0.41560   0.28740   0.12511   0.00000  Uiso   1.00
O236   O     0.44829   0.34443   0.10103   0.00000  Uiso   1.00
Zn237  Zn    0.70052   0.00000   0.21730   0.00000  Uiso   1.00
Zn238  Zn    0.79947   0.00000   0.78270   0.00000  Uiso   1.00
Zn239  Zn    0.50000   0.20053   0.21730   0.00000  Uiso   1.00
Zn240  Zn    0.50000   0.29948   0.78270   0.00000  Uiso   1.00
Zn241  Zn    0.79947   0.00000   0.21730   0.00000  Uiso   1.00
Zn242  Zn    0.70052   0.00000   0.78270   0.00000  Uiso   1.00
Zn243  Zn    0.50000   0.29948   0.21730   0.00000  Uiso   1.00
Zn244  Zn    0.50000   0.20053   0.78270   0.00000  Uiso   1.00
Zn245  Zn    0.95052   0.25000   0.71730   0.00000  Uiso   1.00
Zn246  Zn    0.54947   0.25000   0.28270   0.00000  Uiso   1.00
Zn247  Zn    0.75000   0.45053   0.71730   0.00000  Uiso   1.00
Zn248  Zn    0.75000   0.04948   0.28270   0.00000  Uiso   1.00
Zn249  Zn    0.54947   0.25000   0.71730   0.00000  Uiso   1.00
Zn250  Zn    0.95052   0.25000   0.28270   0.00000  Uiso   1.00
Zn251  Zn    0.75000   0.04948   0.71730   0.00000  Uiso   1.00
Zn252  Zn    0.75000   0.45053   0.28270   0.00000  Uiso   1.00
O253   O     0.75000   0.00000   0.25000   0.00000  Uiso   1.00
O254   O     0.75000   0.00000   0.75000   0.00000  Uiso   1.00
O255   O     0.50000   0.25000   0.25000   0.00000  Uiso   1.00
O256   O     0.50000   0.25000   0.75000   0.00000  Uiso   1.00
O257   O     0.75000   0.46539   0.33749   0.00000  Uiso   1.00
O258   O     0.75000   0.03462   0.66251   0.00000  Uiso   1.00
O259   O     0.53461   0.25000   0.33749   0.00000  Uiso   1.00
O260   O     0.96538   0.25000   0.66251   0.00000  Uiso   1.00
O261   O     0.75000   0.03462   0.33749   0.00000  Uiso   1.00
O262   O     0.75000   0.46539   0.66251   0.00000  Uiso   1.00
O263   O     0.96538   0.25000   0.33749   0.00000  Uiso   1.00
O264   O     0.53461   0.25000   0.66251   0.00000  Uiso   1.00
O265   O     0.50000   0.21539   0.83749   0.00000  Uiso   1.00
O266   O     0.50000   0.28462   0.16251   0.00000  Uiso   1.00
O267   O     0.78461   0.00000   0.83749   0.00000  Uiso   1.00
O268   O     0.71538   0.00000   0.16251   0.00000  Uiso   1.00
O269   O     0.50000   0.28462   0.83749   0.00000  Uiso   1.00
O270   O     0.50000   0.21539   0.16251   0.00000  Uiso   1.00
O271   O     0.71538   0.00000   0.83749   0.00000  Uiso   1.00
O272   O     0.78461   0.00000   0.16251   0.00000  Uiso   1.00
O273   O     0.70126   0.08332   0.27298   0.00000  Uiso   1.00
O274   O     0.79873   0.41668   0.72702   0.00000  Uiso   1.00
O275   O     0.91668   0.20127   0.27298   0.00000  Uiso   1.00
O276   O     0.58332   0.29874   0.72702   0.00000  Uiso   1.00
O277   O     0.79873   0.41668   0.27298   0.00000  Uiso   1.00
O278   O     0.70126   0.08332   0.72702   0.00000  Uiso   1.00
O279   O     0.58332   0.29874   0.27298   0.00000  Uiso   1.00
O280   O     0.91668   0.20127   0.72702   0.00000  Uiso   1.00
O281   O     0.70126   0.41668   0.72702   0.00000  Uiso   1.00
O282   O     0.79873   0.08332   0.27298   0.00000  Uiso   1.00
O283   O     0.91668   0.29874   0.72702   0.00000  Uiso   1.00
O284   O     0.58332   0.20127   0.27298   0.00000  Uiso   1.00
O285   O     0.79873   0.08332   0.72702   0.00000  Uiso   1.00
O286   O     0.70126   0.41668   0.27298   0.00000  Uiso   1.00
O287   O     0.58332   0.20127   0.72702   0.00000  Uiso   1.00
O288   O     0.91668   0.29874   0.27298   0.00000  Uiso   1.00
O289   O     0.95126   0.33332   0.77298   0.00000  Uiso   1.00
O290   O     0.54873   0.16668   0.22702   0.00000  Uiso   1.00
O291   O     0.66668   0.45127   0.77298   0.00000  Uiso   1.00
O292   O     0.83332   0.04874   0.22702   0.00000  Uiso   1.00
O293   O     0.54873   0.16668   0.77298   0.00000  Uiso   1.00
O294   O     0.95126   0.33332   0.22702   0.00000  Uiso   1.00
O295   O     0.83332   0.04874   0.77298   0.00000  Uiso   1.00
O296   O     0.66668   0.45127   0.22702   0.00000  Uiso   1.00
O297   O     0.95126   0.16668   0.22702   0.00000  Uiso   1.00
O298   O     0.54873   0.33332   0.77298   0.00000  Uiso   1.00
O299   O     0.66668   0.04874   0.22702   0.00000  Uiso   1.00
O300   O     0.83332   0.45127   0.77298   0.00000  Uiso   1.00
O301   O     0.54873   0.33332   0.22702   0.00000  Uiso   1.00
O302   O     0.95126   0.16668   0.77298   0.00000  Uiso   1.00
O303   O     0.83332   0.45127   0.22702   0.00000  Uiso   1.00
O304   O     0.66668   0.04874   0.77298   0.00000  Uiso   1.00
H305   H     0.92773   0.17148   0.46539   0.00000  Uiso   1.00
H306   H     0.57227   0.32852   0.53461   0.00000  Uiso   1.00
H307   H     0.82923   0.42851   0.46539   0.00000  Uiso   1.00
H308   H     0.67077   0.07149   0.53461   0.00000  Uiso   1.00
H309   H     0.57227   0.32852   0.46539   0.00000  Uiso   1.00
H310   H     0.92773   0.17148   0.53461   0.00000  Uiso   1.00
H311   H     0.67077   0.07149   0.46539   0.00000  Uiso   1.00
H312   H     0.82923   0.42851   0.53461   0.00000  Uiso   1.00
H313   H     0.67771   0.42150   0.96539   0.00000  Uiso   1.00
H314   H     0.82229   0.07850   0.03461   0.00000  Uiso   1.00
H315   H     0.57873   0.17796   0.96539   0.00000  Uiso   1.00
H316   H     0.92127   0.32204   0.03461   0.00000  Uiso   1.00
H317   H     0.82229   0.07850   0.96539   0.00000  Uiso   1.00
H318   H     0.67771   0.42150   0.03461   0.00000  Uiso   1.00
H319   H     0.92127   0.32204   0.96539   0.00000  Uiso   1.00
H320   H     0.57873   0.17796   0.03461   0.00000  Uiso   1.00
C321   C     0.75000   0.00000   0.35592   0.00000  Uiso   1.00
C322   C     0.75000   0.00000   0.64408   0.00000  Uiso   1.00
C323   C     0.50000   0.25000   0.35592   0.00000  Uiso   1.00
C324   C     0.50000   0.25000   0.64408   0.00000  Uiso   1.00
C325   C     0.50000   0.25000   0.85592   0.00000  Uiso   1.00
C326   C     0.50000   0.25000   0.14408   0.00000  Uiso   1.00
C327   C     0.75000   0.00000   0.85592   0.00000  Uiso   1.00
C328   C     0.75000   0.00000   0.14408   0.00000  Uiso   1.00
C329   C     0.66998   0.08001   0.25001   0.00000  Uiso   1.00
C330   C     0.83002   0.41999   0.74999   0.00000  Uiso   1.00
C331   C     0.91999   0.16998   0.25001   0.00000  Uiso   1.00
C332   C     0.58001   0.33002   0.74999   0.00000  Uiso   1.00
C333   C     0.83002   0.41999   0.25001   0.00000  Uiso   1.00
C334   C     0.66998   0.08001   0.74999   0.00000  Uiso   1.00
C335   C     0.58001   0.33002   0.25001   0.00000  Uiso   1.00
C336   C     0.91999   0.16998   0.74999   0.00000  Uiso   1.00
C337   C     0.66999   0.41998   0.75001   0.00000  Uiso   1.00
C338   C     0.83001   0.08002   0.24999   0.00000  Uiso   1.00
C339   C     0.91998   0.33001   0.75001   0.00000  Uiso   1.00
C340   C     0.58002   0.16999   0.24999   0.00000  Uiso   1.00
C341   C     0.83001   0.08002   0.75001   0.00000  Uiso   1.00
C342   C     0.66999   0.41998   0.24999   0.00000  Uiso   1.00
C343   C     0.58002   0.16999   0.75001   0.00000  Uiso   1.00
C344   C     0.91998   0.33001   0.24999   0.00000  Uiso   1.00
C345   C     0.63833   0.38833   0.25000   0.00000  Uiso   1.00
C346   C     0.86167   0.11167   0.75000   0.00000  Uiso   1.00
C347   C     0.61167   0.13833   0.25000   0.00000  Uiso   1.00
C348   C     0.88833   0.36167   0.75000   0.00000  Uiso   1.00
C349   C     0.86167   0.11167   0.25000   0.00000  Uiso   1.00
C350   C     0.63833   0.38833   0.75000   0.00000  Uiso   1.00
C351   C     0.88833   0.36167   0.25000   0.00000  Uiso   1.00
C352   C     0.61167   0.13833   0.75000   0.00000  Uiso   1.00
C353   C     0.63833   0.11167   0.75000   0.00000  Uiso   1.00
C354   C     0.86167   0.38834   0.25000   0.00000  Uiso   1.00
C355   C     0.61167   0.36167   0.75000   0.00000  Uiso   1.00
C356   C     0.88833   0.13833   0.25000   0.00000  Uiso   1.00
C357   C     0.86167   0.38834   0.75000   0.00000  Uiso   1.00
C358   C     0.63833   0.11167   0.25000   0.00000  Uiso   1.00
C359   C     0.88833   0.13833   0.75000   0.00000  Uiso   1.00
C360   C     0.61167   0.36167   0.25000   0.00000  Uiso   1.00
C361   C     0.52707   0.27746   0.41843   0.00000  Uiso   1.00
C362   C     0.97293   0.22254   0.58157   0.00000  Uiso   1.00
C363   C     0.72230   0.02683   0.41843   0.00000  Uiso   1.00
C364   C     0.77770   0.47317   0.58157   0.00000  Uiso   1.00
C365   C     0.97293   0.22254   0.41843   0.00000  Uiso   1.00
C366   C     0.52707   0.27746   0.58157   0.00000  Uiso   1.00
C367   C     0.77770   0.47317   0.41843   0.00000  Uiso   1.00
C368   C     0.72230   0.02683   0.58157   0.00000  Uiso   1.00
C369   C     0.77708   0.02745   0.91843   0.00000  Uiso   1.00
C370   C     0.72292   0.47255   0.08157   0.00000  Uiso   1.00
C371   C     0.97247   0.27700   0.91843   0.00000  Uiso   1.00
C372   C     0.52753   0.22300   0.08157   0.00000  Uiso   1.00
C373   C     0.72292   0.47255   0.91843   0.00000  Uiso   1.00
C374   C     0.77708   0.02745   0.08157   0.00000  Uiso   1.00
C375   C     0.52753   0.22300   0.91843   0.00000  Uiso   1.00
C376   C     0.97247   0.27700   0.08157   0.00000  Uiso   1.00
C377   C     0.50000   0.25000   0.39828   0.00000  Uiso   1.00
C378   C     0.50000   0.25000   0.60172   0.00000  Uiso   1.00
C379   C     0.75000   0.00000   0.39827   0.00000  Uiso   1.00
C380   C     0.75000   0.00000   0.60172   0.00000  Uiso   1.00
C381   C     0.75000   0.00000   0.89828   0.00000  Uiso   1.00
C382   C     0.75000   0.00000   0.10172   0.00000  Uiso   1.00
C383   C     0.50000   0.25000   0.89828   0.00000  Uiso   1.00
C384   C     0.50000   0.25000   0.10172   0.00000  Uiso   1.00
C385   C     0.97315   0.22225   0.45913   0.00000  Uiso   1.00
C386   C     0.52685   0.27775   0.54087   0.00000  Uiso   1.00
C387   C     0.77800   0.47341   0.45913   0.00000  Uiso   1.00
C388   C     0.72200   0.02659   0.54087   0.00000  Uiso   1.00
C389   C     0.52685   0.27775   0.45913   0.00000  Uiso   1.00
C390   C     0.97315   0.22225   0.54087   0.00000  Uiso   1.00
C391   C     0.72200   0.02659   0.45913   0.00000  Uiso   1.00
C392   C     0.77800   0.47341   0.54087   0.00000  Uiso   1.00
C393   C     0.72314   0.47226   0.95913   0.00000  Uiso   1.00
C394   C     0.77686   0.02774   0.04087   0.00000  Uiso   1.00
C395   C     0.52782   0.22322   0.95913   0.00000  Uiso   1.00
C396   C     0.97217   0.27677   0.04087   0.00000  Uiso   1.00
C397   C     0.77686   0.02774   0.95913   0.00000  Uiso   1.00
C398   C     0.72314   0.47226   0.04087   0.00000  Uiso   1.00
C399   C     0.97217   0.27677   0.95913   0.00000  Uiso   1.00
C400   C     0.52782   0.22322   0.04087   0.00000  Uiso   1.00
C401   C     0.50000   0.25000   0.47952   0.00000  Uiso   1.00
C402   C     0.50000   0.25000   0.52048   0.00000  Uiso   1.00
C403   C     0.75000   0.00000   0.47952   0.00000  Uiso   1.00
C404   C     0.75000   0.00000   0.52048   0.00000  Uiso   1.00
C405   C     0.75000   0.00000   0.97952   0.00000  Uiso   1.00
C406   C     0.75000   0.00000   0.02048   0.00000  Uiso   1.00
C407   C     0.50000   0.25000   0.97952   0.00000  Uiso   1.00
C408   C     0.50000   0.25000   0.02048   0.00000  Uiso   1.00
C409   C     0.94770   0.19408   0.47992   0.00000  Uiso   1.00
C410   C     0.55230   0.30593   0.52008   0.00000  Uiso   1.00
C411   C     0.80643   0.44825   0.47992   0.00000  Uiso   1.00
C412   C     0.69357   0.05175   0.52008   0.00000  Uiso   1.00
C413   C     0.55230   0.30593   0.47992   0.00000  Uiso   1.00
C414   C     0.94770   0.19408   0.52008   0.00000  Uiso   1.00
C415   C     0.69357   0.05175   0.47992   0.00000  Uiso   1.00
C416   C     0.80643   0.44825   0.52008   0.00000  Uiso   1.00
C417   C     0.69769   0.44409   0.97992   0.00000  Uiso   1.00
C418   C     0.80231   0.05591   0.02008   0.00000  Uiso   1.00
C419   C     0.55607   0.19786   0.97992   0.00000  Uiso   1.00
C420   C     0.94392   0.30214   0.02008   0.00000  Uiso   1.00
C421   C     0.80231   0.05591   0.97992   0.00000  Uiso   1.00
C422   C     0.69769   0.44409   0.02008   0.00000  Uiso   1.00
C423   C     0.94392   0.30214   0.97992   0.00000  Uiso   1.00
C424   C     0.55607   0.19786   0.02008   0.00000  Uiso   1.00
N425   N     0.55388   0.30583   0.39744   0.00000  Uiso   1.00
O426   O     0.53761   0.33434   0.37493   0.00000  Uiso   1.00
O427   O     0.59455   0.30145   0.39894   0.00000  Uiso   1.00
N428   N     0.94612   0.19417   0.60256   0.00000  Uiso   1.00
O429   O     0.96239   0.16566   0.62507   0.00000  Uiso   1.00
O430   O     0.90545   0.19855   0.60106   0.00000  Uiso   1.00
N431   N     0.69371   0.05339   0.39742   0.00000  Uiso   1.00
O432   O     0.66545   0.03689   0.37479   0.00000  Uiso   1.00
O433   O     0.69766   0.09411   0.39903   0.00000  Uiso   1.00
N434   N     0.80629   0.44661   0.60258   0.00000  Uiso   1.00
O435   O     0.83455   0.46311   0.62520   0.00000  Uiso   1.00
O436   O     0.80234   0.40589   0.60097   0.00000  Uiso   1.00
N437   N     0.94612   0.19417   0.39744   0.00000  Uiso   1.00
O438   O     0.96239   0.16566   0.37493   0.00000  Uiso   1.00
O439   O     0.90545   0.19856   0.39894   0.00000  Uiso   1.00
N440   N     0.55388   0.30583   0.60256   0.00000  Uiso   1.00
O441   O     0.53761   0.33434   0.62507   0.00000  Uiso   1.00
O442   O     0.59455   0.30144   0.60106   0.00000  Uiso   1.00
N443   N     0.80629   0.44661   0.39742   0.00000  Uiso   1.00
O444   O     0.83455   0.46311   0.37479   0.00000  Uiso   1.00
O445   O     0.80234   0.40589   0.39903   0.00000  Uiso   1.00
N446   N     0.69371   0.05339   0.60258   0.00000  Uiso   1.00
O447   O     0.66545   0.03689   0.62520   0.00000  Uiso   1.00
O448   O     0.69766   0.09411   0.60097   0.00000  Uiso   1.00
N449   N     0.80389   0.05582   0.89744   0.00000  Uiso   1.00
O450   O     0.78763   0.08433   0.87493   0.00000  Uiso   1.00
O451   O     0.84457   0.05142   0.89894   0.00000  Uiso   1.00
N452   N     0.69611   0.44419   0.10256   0.00000  Uiso   1.00
O453   O     0.71237   0.41567   0.12507   0.00000  Uiso   1.00
O454   O     0.65543   0.44858   0.10106   0.00000  Uiso   1.00
N455   N     0.94403   0.30374   0.89743   0.00000  Uiso   1.00
O456   O     0.91560   0.28740   0.87489   0.00000  Uiso   1.00
O457   O     0.94829   0.34443   0.89897   0.00000  Uiso   1.00
N458   N     0.55596   0.19626   0.10257   0.00000  Uiso   1.00
O459   O     0.58440   0.21260   0.12511   0.00000  Uiso   1.00
O460   O     0.55171   0.15557   0.10103   0.00000  Uiso   1.00
N461   N     0.69611   0.44419   0.89744   0.00000  Uiso   1.00
O462   O     0.71237   0.41567   0.87493   0.00000  Uiso   1.00
O463   O     0.65543   0.44858   0.89894   0.00000  Uiso   1.00
N464   N     0.80389   0.05581   0.10256   0.00000  Uiso   1.00
O465   O     0.78763   0.08433   0.12506   0.00000  Uiso   1.00
O466   O     0.84457   0.05142   0.10106   0.00000  Uiso   1.00
N467   N     0.55596   0.19626   0.89743   0.00000  Uiso   1.00
O468   O     0.58440   0.21260   0.87489   0.00000  Uiso   1.00
O469   O     0.55170   0.15557   0.89897   0.00000  Uiso   1.00
N470   N     0.94404   0.30374   0.10257   0.00000  Uiso   1.00
O471   O     0.91560   0.28740   0.12511   0.00000  Uiso   1.00
O472   O     0.94829   0.34443   0.10103   0.00000  Uiso   1.00
Zn473  Zn    0.20052   0.50000   0.21730   0.00000  Uiso   1.00
Zn474  Zn    0.29947   0.50000   0.78270   0.00000  Uiso   1.00
Zn475  Zn    0.00000   0.70053   0.21730   0.00000  Uiso   1.00
Zn476  Zn    0.00000   0.79948   0.78270   0.00000  Uiso   1.00
Zn477  Zn    0.29947   0.50000   0.21730   0.00000  Uiso   1.00
Zn478  Zn    0.20052   0.50000   0.78270   0.00000  Uiso   1.00
Zn479  Zn    0.00000   0.79948   0.21730   0.00000  Uiso   1.00
Zn480  Zn    0.00000   0.70053   0.78270   0.00000  Uiso   1.00
Zn481  Zn    0.45052   0.75000   0.71730   0.00000  Uiso   1.00
Zn482  Zn    0.04947   0.75000   0.28270   0.00000  Uiso   1.00
Zn483  Zn    0.25000   0.95053   0.71730   0.00000  Uiso   1.00
Zn484  Zn    0.25000   0.54948   0.28270   0.00000  Uiso   1.00
Zn485  Zn    0.04947   0.75000   0.71730   0.00000  Uiso   1.00
Zn486  Zn    0.45052   0.75000   0.28270   0.00000  Uiso   1.00
Zn487  Zn    0.25000   0.54948   0.71730   0.00000  Uiso   1.00
Zn488  Zn    0.25000   0.95053   0.28270   0.00000  Uiso   1.00
O489   O     0.25000   0.50000   0.25000   0.00000  Uiso   1.00
O490   O     0.25000   0.50000   0.75000   0.00000  Uiso   1.00
O491   O    -0.00000   0.75000   0.25000   0.00000  Uiso   1.00
O492   O     0.00000   0.75000   0.75000   0.00000  Uiso   1.00
O493   O     0.25000   0.96539   0.33749   0.00000  Uiso   1.00
O494   O     0.25000   0.53462   0.66251   0.00000  Uiso   1.00
O495   O     0.03461   0.75000   0.33749   0.00000  Uiso   1.00
O496   O     0.46538   0.75000   0.66251   0.00000  Uiso   1.00
O497   O     0.25000   0.53462   0.33749   0.00000  Uiso   1.00
O498   O     0.25000   0.96539   0.66251   0.00000  Uiso   1.00
O499   O     0.46538   0.75000   0.33749   0.00000  Uiso   1.00
O500   O     0.03461   0.75000   0.66251   0.00000  Uiso   1.00
O501   O     0.00000   0.71539   0.83749   0.00000  Uiso   1.00
O502   O     0.00000   0.78462   0.16251   0.00000  Uiso   1.00
O503   O     0.28461   0.50000   0.83749   0.00000  Uiso   1.00
O504   O     0.21538   0.50000   0.16251   0.00000  Uiso   1.00
O505   O     0.00000   0.78462   0.83749   0.00000  Uiso   1.00
O506   O    -0.00000   0.71539   0.16251   0.00000  Uiso   1.00
O507   O     0.21538   0.50000   0.83749   0.00000  Uiso   1.00
O508   O     0.28461   0.50000   0.16251   0.00000  Uiso   1.00
O509   O     0.20126   0.58332   0.27298   0.00000  Uiso   1.00
O510   O     0.29873   0.91668   0.72702   0.00000  Uiso   1.00
O511   O     0.41668   0.70127   0.27298   0.00000  Uiso   1.00
O512   O     0.08332   0.79874   0.72702   0.00000  Uiso   1.00
O513   O     0.29873   0.91668   0.27298   0.00000  Uiso   1.00
O514   O     0.20126   0.58332   0.72702   0.00000  Uiso   1.00
O515   O     0.08332   0.79874   0.27298   0.00000  Uiso   1.00
O516   O     0.41668   0.70127   0.72702   0.00000  Uiso   1.00
O517   O     0.20126   0.91668   0.72702   0.00000  Uiso   1.00
O518   O     0.29873   0.58332   0.27298   0.00000  Uiso   1.00
O519   O     0.41668   0.79874   0.72702   0.00000  Uiso   1.00
O520   O     0.08332   0.70127   0.27298   0.00000  Uiso   1.00
O521   O     0.29873   0.58332   0.72702   0.00000  Uiso   1.00
O522   O     0.20126   0.91668   0.27298   0.00000  Uiso   1.00
O523   O     0.08332   0.70127   0.72702   0.00000  Uiso   1.00
O524   O     0.41668   0.79874   0.27298   0.00000  Uiso   1.00
O525   O     0.45126   0.83332   0.77298   0.00000  Uiso   1.00
O526   O     0.04873   0.66668   0.22702   0.00000  Uiso   1.00
O527   O     0.16668   0.95127   0.77298   0.00000  Uiso   1.00
O528   O     0.33332   0.54874   0.22702   0.00000  Uiso   1.00
O529   O     0.04873   0.66668   0.77298   0.00000  Uiso   1.00
O530   O     0.45126   0.83332   0.22702   0.00000  Uiso   1.00
O531   O     0.33332   0.54874   0.77298   0.00000  Uiso   1.00
O532   O     0.16668   0.95127   0.22702   0.00000  Uiso   1.00
O533   O     0.45126   0.66668   0.22702   0.00000  Uiso   1.00
O534   O     0.04873   0.83332   0.77298   0.00000  Uiso   1.00
O535   O     0.16668   0.54874   0.22702   0.00000  Uiso   1.00
O536   O     0.33332   0.95127   0.77298   0.00000  Uiso   1.00
O537   O     0.04873   0.83332   0.22702   0.00000  Uiso   1.00
O538   O     0.45126   0.66668   0.77298   0.00000  Uiso   1.00
O539   O     0.33332   0.95127   0.22702   0.00000  Uiso   1.00
O540   O     0.16668   0.54874   0.77298   0.00000  Uiso   1.00
H541   H     0.42773   0.67148   0.46539   0.00000  Uiso   1.00
H542   H     0.07227   0.82852   0.53461   0.00000  Uiso   1.00
H543   H     0.32923   0.92851   0.46539   0.00000  Uiso   1.00
H544   H     0.17077   0.57149   0.53461   0.00000  Uiso   1.00
H545   H     0.07227   0.82852   0.46539   0.00000  Uiso   1.00
H546   H     0.42773   0.67148   0.53461   0.00000  Uiso   1.00
H547   H     0.17077   0.57149   0.46539   0.00000  Uiso   1.00
H548   H     0.32923   0.92851   0.53461   0.00000  Uiso   1.00
H549   H     0.17771   0.92150   0.96539   0.00000  Uiso   1.00
H550   H     0.32229   0.57850   0.03461   0.00000  Uiso   1.00
H551   H     0.07873   0.67796   0.96539   0.00000  Uiso   1.00
H552   H     0.42127   0.82204   0.03461   0.00000  Uiso   1.00
H553   H     0.32229   0.57850   0.96539   0.00000  Uiso   1.00
H554   H     0.17771   0.92150   0.03461   0.00000  Uiso   1.00
H555   H     0.42127   0.82204   0.96539   0.00000  Uiso   1.00
H556   H     0.07873   0.67796   0.03461   0.00000  Uiso   1.00
C557   C     0.25000   0.50000   0.35592   0.00000  Uiso   1.00
C558   C     0.25000   0.50000   0.64408   0.00000  Uiso   1.00
C559   C    -0.00000   0.75000   0.35592   0.00000  Uiso   1.00
C560   C     0.00000   0.75000   0.64408   0.00000  Uiso   1.00
C561   C    -0.00000   0.75000   0.85592   0.00000  Uiso   1.00
C562   C    -0.00000   0.75000   0.14408   0.00000  Uiso   1.00
C563   C     0.25000   0.50000   0.85592   0.00000  Uiso   1.00
C564   C     0.25000   0.50000   0.14408   0.00000  Uiso   1.00
C565   C     0.16998   0.58001   0.25001   0.00000  Uiso   1.00
C566   C     0.33002   0.91999   0.74999   0.00000  Uiso   1.00
C567   C     0.41999   0.66998   0.25001   0.00000  Uiso   1.00
C568   C     0.08001   0.83002   0.74999   0.00000  Uiso   1.00
C569   C     0.33002   0.91999   0.25001   0.00000  Uiso   1.00
C570   C     0.16998   0.58001   0.74999   0.00000  Uiso   1.00
C571   C     0.08001   0.83002   0.25001   0.00000  Uiso   1.00
C572   C     0.41999   0.66998   0.74999   0.00000  Uiso   1.00
C573   C     0.16999   0.91998   0.75001   0.00000  Uiso   1.00
C574   C     0.33001   0.58002   0.24999   0.00000  Uiso   1.00
C575   C     0.41998   0.83001   0.75001   0.00000  Uiso   1.00
C576   C     0.08002   0.66999   0.24999   0.00000  Uiso   1.00
C577   C     0.33001   0.58002   0.75001   0.00000  Uiso   1.00
C578   C     0.16999   0.91998   0.24999   0.00000  Uiso   1.00
C579   C     0.08002   0.66999   0.75001   0.00000  Uiso   1.00
C580   C     0.41998   0.83001   0.24999   0.00000  Uiso   1.00
C581   C     0.13833   0.88833   0.25000   0.00000  Uiso   1.00
C582   C     0.36167   0.61167   0.75000   0.00000  Uiso   1.00
C583   C     0.11167   0.63833   0.25000   0.00000  Uiso   1.00
C584   C     0.38833   0.86167   0.75000   0.00000  Uiso   1.00
C585   C     0.36167   0.61167   0.25000   0.00000  Uiso   1.00
C586   C     0.13833   0.88833   0.75000   0.00000  Uiso   1.00
C587   C     0.38833   0.86167   0.25000   0.00000  Uiso   1.00
C588   C     0.11167   0.63833   0.75000   0.00000  Uiso   1.00
C589   C     0.13833   0.61167   0.75000   0.00000  Uiso   1.00
C590   C     0.36167   0.88834   0.25000   0.00000  Uiso   1.00
C591   C     0.11167   0.86167   0.75000   0.00000  Uiso   1.00
C592   C     0.38833   0.63833   0.25000   0.00000  Uiso   1.00
C593   C     0.36167   0.88834   0.75000   0.00000  Uiso   1.00
C594   C     0.13833   0.61167   0.25000   0.00000  Uiso   1.00
C595   C     0.38833   0.63833   0.75000   0.00000  Uiso   1.00
C596   C     0.11167   0.86167   0.25000   0.00000  Uiso   1.00
C597   C     0.02707   0.77746   0.41843   0.00000  Uiso   1.00
C598   C     0.47293   0.72254   0.58157   0.00000  Uiso   1.00
C599   C     0.22230   0.52683   0.41843   0.00000  Uiso   1.00
C600   C     0.27770   0.97317   0.58157   0.00000  Uiso   1.00
C601   C     0.47293   0.72254   0.41843   0.00000  Uiso   1.00
C602   C     0.02707   0.77746   0.58157   0.00000  Uiso   1.00
C603   C     0.27770   0.97317   0.41843   0.00000  Uiso   1.00
C604   C     0.22230   0.52683   0.58157   0.00000  Uiso   1.00
C605   C     0.27708   0.52745   0.91843   0.00000  Uiso   1.00
C606   C     0.22292   0.97255   0.08157   0.00000  Uiso   1.00
C607   C     0.47247   0.77700   0.91843   0.00000  Uiso   1.00
C608   C     0.02753   0.72300   0.08157   0.00000  Uiso   1.00
C609   C     0.22292   0.97255   0.91843   0.00000  Uiso   1.00
C610   C     0.27708   0.52745   0.08157   0.00000  Uiso   1.00
C611   C     0.02753   0.72300   0.91843   0.00000  Uiso   1.00
C612   C     0.47247   0.77700   0.08157   0.00000  Uiso   1.00
C613   C    -0.00000   0.75000   0.39828   0.00000  Uiso   1.00
C614   C     0.00000   0.75000   0.60172   0.00000  Uiso   1.00
C615   C     0.25000   0.50000   0.39827   0.00000  Uiso   1.00
C616   C     0.25000   0.50000   0.60172   0.00000  Uiso   1.00
C617   C     0.25000   0.50000   0.89828   0.00000  Uiso   1.00
C618   C     0.25000   0.50000   0.10172   0.00000  Uiso   1.00
C619   C    -0.00000   0.75000   0.89828   0.00000  Uiso   1.00
C620   C    -0.00000   0.75000   0.10172   0.00000  Uiso   1.00
C621   C     0.47315   0.72225   0.45913   0.00000  Uiso   1.00
C622   C     0.02685   0.77775   0.54087   0.00000  Uiso   1.00
C623   C     0.27800   0.97341   0.45913   0.00000  Uiso   1.00
C624   C     0.22200   0.52659   0.54087   0.00000  Uiso   1.00
C625   C     0.02685   0.77775   0.45913   0.00000  Uiso   1.00
C626   C     0.47315   0.72225   0.54087   0.00000  Uiso   1.00
C627   C     0.22200   0.52659   0.45913   0.00000  Uiso   1.00
C628   C     0.27800   0.97341   0.54087   0.00000  Uiso   1.00
C629   C     0.22314   0.97226   0.95913   0.00000  Uiso   1.00
C630   C     0.27686   0.52774   0.04087   0.00000  Uiso   1.00
C631   C     0.02782   0.72322   0.95913   0.00000  Uiso   1.00
C632   C     0.47217   0.77677   0.04087   0.00000  Uiso   1.00
C633   C     0.27686   0.52774   0.95913   0.00000  Uiso   1.00
C634   C     0.22314   0.97226   0.04087   0.00000  Uiso   1.00
C635   C     0.47217   0.77677   0.95913   0.00000  Uiso   1.00
C636   C     0.02782   0.72322   0.04087   0.00000  Uiso   1.00
C637   C    -0.00000   0.75000   0.47952   0.00000  Uiso   1.00
C638   C    -0.00000   0.75000   0.52048   0.00000  Uiso   1.00
C639   C     0.25000   0.50000   0.47952   0.00000  Uiso   1.00
C640   C     0.25000   0.50000   0.52048   0.00000  Uiso   1.00
C641   C     0.25000   0.50000   0.97952   0.00000  Uiso   1.00
C642   C     0.25000   0.50000   0.02048   0.00000  Uiso   1.00
C643   C    -0.00000   0.75000   0.97952   0.00000  Uiso   1.00
C644   C    -0.00000   0.75000   0.02048   0.00000  Uiso   1.00
C645   C     0.44770   0.69408   0.47992   0.00000  Uiso   1.00
C646   C     0.05230   0.80593   0.52008   0.00000  Uiso   1.00
C647   C     0.30643   0.94825   0.47992   0.00000  Uiso   1.00
C648   C     0.19357   0.55175   0.52008   0.00000  Uiso   1.00
C649   C     0.05230   0.80593   0.47992   0.00000  Uiso   1.00
C650   C     0.44770   0.69408   0.52008   0.00000  Uiso   1.00
C651   C     0.19357   0.55175   0.47992   0.00000  Uiso   1.00
C652   C     0.30643   0.94825   0.52008   0.00000  Uiso   1.00
C653   C     0.19769   0.94409   0.97992   0.00000  Uiso   1.00
C654   C     0.30231   0.55591   0.02008   0.00000  Uiso   1.00
C655   C     0.05607   0.69786   0.97992   0.00000  Uiso   1.00
C656   C     0.44392   0.80214   0.02008   0.00000  Uiso   1.00
C657   C     0.30231   0.55591   0.97992   0.00000  Uiso   1.00
C658   C     0.19769   0.94409   0.02008   0.00000  Uiso   1.00
C659   C     0.44392   0.80214   0.97992   0.00000  Uiso   1.00
C660   C     0.05607   0.69786   0.02008   0.00000  Uiso   1.00
N661   N     0.05388   0.80583   0.39744   0.00000  Uiso   1.00
O662   O     0.03761   0.83434   0.37493   0.00000  Uiso   1.00
O663   O     0.09455   0.80145   0.39894   0.00000  Uiso   1.00
N664   N     0.44612   0.69417   0.60256   0.00000  Uiso   1.00
O665   O     0.46239   0.66566   0.62507   0.00000  Uiso   1.00
O666   O     0.40545   0.69855   0.60106   0.00000  Uiso   1.00
N667   N     0.19371   0.55339   0.39742   0.00000  Uiso   1.00
O668   O     0.16545   0.53689   0.37479   0.00000  Uiso   1.00
O669   O     0.19766   0.59411   0.39903   0.00000  Uiso   1.00
N670   N     0.30629   0.94661   0.60258   0.00000  Uiso   1.00
O671   O     0.33455   0.96311   0.62520   0.00000  Uiso   1.00
O672   O     0.30234   0.90589   0.60097   0.00000  Uiso   1.00
N673   N     0.44612   0.69417   0.39744   0.00000  Uiso   1.00
O674   O     0.46239   0.66566   0.37493   0.00000  Uiso   1.00
O675   O     0.40545   0.69856   0.39894   0.00000  Uiso   1.00
N676   N     0.05388   0.80583   0.60256   0.00000  Uiso   1.00
O677   O     0.03761   0.83434   0.62507   0.00000  Uiso   1.00
O678   O     0.09455   0.80144   0.60106   0.00000  Uiso   1.00
N679   N     0.30629   0.94661   0.39742   0.00000  Uiso   1.00
O680   O     0.33455   0.96311   0.37479   0.00000  Uiso   1.00
O681   O     0.30234   0.90589   0.39903   0.00000  Uiso   1.00
N682   N     0.19371   0.55339   0.60258   0.00000  Uiso   1.00
O683   O     0.16545   0.53689   0.62520   0.00000  Uiso   1.00
O684   O     0.19766   0.59411   0.60097   0.00000  Uiso   1.00
N685   N     0.30389   0.55582   0.89744   0.00000  Uiso   1.00
O686   O     0.28763   0.58433   0.87493   0.00000  Uiso   1.00
O687   O     0.34457   0.55142   0.89894   0.00000  Uiso   1.00
N688   N     0.19611   0.94419   0.10256   0.00000  Uiso   1.00
O689   O     0.21237   0.91567   0.12507   0.00000  Uiso   1.00
O690   O     0.15543   0.94858   0.10106   0.00000  Uiso   1.00
N691   N     0.44403   0.80374   0.89743   0.00000  Uiso   1.00
O692   O     0.41560   0.78740   0.87489   0.00000  Uiso   1.00
O693   O     0.44829   0.84443   0.89897   0.00000  Uiso   1.00
N694   N     0.05596   0.69626   0.10257   0.00000  Uiso   1.00
O695   O     0.08440   0.71260   0.12511   0.00000  Uiso   1.00
O696   O     0.05171   0.65557   0.10103   0.00000  Uiso   1.00
N697   N     0.19611   0.94419   0.89744   0.00000  Uiso   1.00
O698   O     0.21237   0.91567   0.87493   0.00000  Uiso   1.00
O699   O     0.15543   0.94858   0.89894   0.00000  Uiso   1.00
N700   N     0.30389   0.55581   0.10256   0.00000  Uiso   1.00
O701   O     0.28763   0.58433   0.12506   0.00000  Uiso   1.00
O702   O     0.34457   0.55142   0.10106   0.00000  Uiso   1.00
N703   N     0.05596   0.69626   0.89743   0.00000  Uiso   1.00
O704   O     0.08440   0.71260   0.87489   0.00000  Uiso   1.00
O705   O     0.05170   0.65557   0.89897   0.00000  Uiso   1.00
N706   N     0.44404   0.80374   0.10257   0.00000  Uiso   1.00
O707   O     0.41560   0.78740   0.12511   0.00000  Uiso   1.00
O708   O     0.44829   0.84443   0.10103   0.00000  Uiso   1.00
Zn709  Zn    0.70052   0.50000   0.21730   0.00000  Uiso   1.00
Zn710  Zn    0.79947   0.50000   0.78270   0.00000  Uiso   1.00
Zn711  Zn    0.50000   0.70053   0.21730   0.00000  Uiso   1.00
Zn712  Zn    0.50000   0.79948   0.78270   0.00000  Uiso   1.00
Zn713  Zn    0.79947   0.50000   0.21730   0.00000  Uiso   1.00
Zn714  Zn    0.70052   0.50000   0.78270   0.00000  Uiso   1.00
Zn715  Zn    0.50000   0.79948   0.21730   0.00000  Uiso   1.00
Zn716  Zn    0.50000   0.70053   0.78270   0.00000  Uiso   1.00
Zn717  Zn    0.95052   0.75000   0.71730   0.00000  Uiso   1.00
Zn718  Zn    0.54947   0.75000   0.28270   0.00000  Uiso   1.00
Zn719  Zn    0.75000   0.95053   0.71730   0.00000  Uiso   1.00
Zn720  Zn    0.75000   0.54948   0.28270   0.00000  Uiso   1.00
Zn721  Zn    0.54947   0.75000   0.71730   0.00000  Uiso   1.00
Zn722  Zn    0.95052   0.75000   0.28270   0.00000  Uiso   1.00
Zn723  Zn    0.75000   0.54948   0.71730   0.00000  Uiso   1.00
Zn724  Zn    0.75000   0.95053   0.28270   0.00000  Uiso   1.00
O725   O     0.75000   0.50000   0.25000   0.00000  Uiso   1.00
O726   O     0.75000   0.50000   0.75000   0.00000  Uiso   1.00
O727   O     0.50000   0.75000   0.25000   0.00000  Uiso   1.00
O728   O     0.50000   0.75000   0.75000   0.00000  Uiso   1.00
O729   O     0.75000   0.96539   0.33749   0.00000  Uiso   1.00
O730   O     0.75000   0.53462   0.66251   0.00000  Uiso   1.00
O731   O     0.53461   0.75000   0.33749   0.00000  Uiso   1.00
O732   O     0.96538   0.75000   0.66251   0.00000  Uiso   1.00
O733   O     0.75000   0.53462   0.33749   0.00000  Uiso   1.00
O734   O     0.75000   0.96539   0.66251   0.00000  Uiso   1.00
O735   O     0.96538   0.75000   0.33749   0.00000  Uiso   1.00
O736   O     0.53461   0.75000   0.66251   0.00000  Uiso   1.00
O737   O     0.50000   0.71539   0.83749   0.00000  Uiso   1.00
O738   O     0.50000   0.78462   0.16251   0.00000  Uiso   1.00
O739   O     0.78461   0.50000   0.83749   0.00000  Uiso   1.00
O740   O     0.71538   0.50000   0.16251   0.00000  Uiso   1.00
O741   O     0.50000   0.78462   0.83749   0.00000  Uiso   1.00
O742   O     0.50000   0.71539   0.16251   0.00000  Uiso   1.00
O743   O     0.71538   0.50000   0.83749   0.00000  Uiso   1.00
O744   O     0.78461   0.50000   0.16251   0.00000  Uiso   1.00
O745   O     0.70126   0.58332   0.27298   0.00000  Uiso   1.00
O746   O     0.79873   0.91668   0.72702   0.00000  Uiso   1.00
O747   O     0.91668   0.70127   0.27298   0.00000  Uiso   1.00
O748   O     0.58332   0.79874   0.72702   0.00000  Uiso   1.00
O749   O     0.79873   0.91668   0.27298   0.00000  Uiso   1.00
O750   O     0.70126   0.58332   0.72702   0.00000  Uiso   1.00
O751   O     0.58332   0.79874   0.27298   0.00000  Uiso   1.00
O752   O     0.91668   0.70127   0.72702   0.00000  Uiso   1.00
O753   O     0.70126   0.91668   0.72702   0.00000  Uiso   1.00
O754   O     0.79873   0.58332   0.27298   0.00000  Uiso   1.00
O755   O     0.91668   0.79874   0.72702   0.00000  Uiso   1.00
O756   O     0.58332   0.70127   0.27298   0.00000  Uiso   1.00
O757   O     0.79873   0.58332   0.72702   0.00000  Uiso   1.00
O758   O     0.70126   0.91668   0.27298   0.00000  Uiso   1.00
O759   O     0.58332   0.70127   0.72702   0.00000  Uiso   1.00
O760   O     0.91668   0.79874   0.27298   0.00000  Uiso   1.00
O761   O     0.95126   0.83332   0.77298   0.00000  Uiso   1.00
O762   O     0.54873   0.66668   0.22702   0.00000  Uiso   1.00
O763   O     0.66668   0.95127   0.77298   0.00000  Uiso   1.00
O764   O     0.83332   0.54874   0.22702   0.00000  Uiso   1.00
O765   O     0.54873   0.66668   0.77298   0.00000  Uiso   1.00
O766   O     0.95126   0.83332   0.22702   0.00000  Uiso   1.00
O767   O     0.83332   0.54874   0.77298   0.00000  Uiso   1.00
O768   O     0.66668   0.95127   0.22702   0.00000  Uiso   1.00
O769   O     0.95126   0.66668   0.22702   0.00000  Uiso   1.00
O770   O     0.54873   0.83332   0.77298   0.00000  Uiso   1.00
O771   O     0.66668   0.54874   0.22702   0.00000  Uiso   1.00
O772   O     0.83332   0.95127   0.77298   0.00000  Uiso   1.00
O773   O     0.54873   0.83332   0.22702   0.00000  Uiso   1.00
O774   O     0.95126   0.66668   0.77298   0.00000  Uiso   1.00
O775   O     0.83332   0.95127   0.22702   0.00000  Uiso   1.00
O776   O     0.66668   0.54874   0.77298   0.00000  Uiso   1.00
H777   H     0.92773   0.67148   0.46539   0.00000  Uiso   1.00
H778   H     0.57227   0.82852   0.53461   0.00000  Uiso   1.00
H779   H     0.82923   0.92851   0.46539   0.00000  Uiso   1.00
H780   H     0.67077   0.57149   0.53461   0.00000  Uiso   1.00
H781   H     0.57227   0.82852   0.46539   0.00000  Uiso   1.00
H782   H     0.92773   0.67148   0.53461   0.00000  Uiso   1.00
H783   H     0.67077   0.57149   0.46539   0.00000  Uiso   1.00
H784   H     0.82923   0.92851   0.53461   0.00000  Uiso   1.00
H785   H     0.67771   0.92150   0.96539   0.00000  Uiso   1.00
H786   H     0.82229   0.57850   0.03461   0.00000  Uiso   1.00
H787   H     0.57873   0.67796   0.96539   0.00000  Uiso   1.00
H788   H     0.92127   0.82204   0.03461   0.00000  Uiso   1.00
H789   H     0.82229   0.57850   0.96539   0.00000  Uiso   1.00
H790   H     0.67771   0.92150   0.03461   0.00000  Uiso   1.00
H791   H     0.92127   0.82204   0.96539   0.00000  Uiso   1.00
H792   H     0.57873   0.67796   0.03461   0.00000  Uiso   1.00
C793   C     0.75000   0.50000   0.35592   0.00000  Uiso   1.00
C794   C     0.75000   0.50000   0.64408   0.00000  Uiso   1.00
C795   C     0.50000   0.75000   0.35592   0.00000  Uiso   1.00
C796   C     0.50000   0.75000   0.64408   0.00000  Uiso   1.00
C797   C     0.50000   0.75000   0.85592   0.00000  Uiso   1.00
C798   C     0.50000   0.75000   0.14408   0.00000  Uiso   1.00
C799   C     0.75000   0.50000   0.85592   0.00000  Uiso   1.00
C800   C     0.75000   0.50000   0.14408   0.00000  Uiso   1.00
C801   C     0.66998   0.58001   0.25001   0.00000  Uiso   1.00
C802   C     0.83002   0.91999   0.74999   0.00000  Uiso   1.00
C803   C     0.91999   0.66998   0.25001   0.00000  Uiso   1.00
C804   C     0.58001   0.83002   0.74999   0.00000  Uiso   1.00
C805   C     0.83002   0.91999   0.25001   0.00000  Uiso   1.00
C806   C     0.66998   0.58001   0.74999   0.00000  Uiso   1.00
C807   C     0.58001   0.83002   0.25001   0.00000  Uiso   1.00
C808   C     0.91999   0.66998   0.74999   0.00000  Uiso   1.00
C809   C     0.66999   0.91998   0.75001   0.00000  Uiso   1.00
C810   C     0.83001   0.58002   0.24999   0.00000  Uiso   1.00
C811   C     0.91998   0.83001   0.75001   0.00000  Uiso   1.00
C812   C     0.58002   0.66999   0.24999   0.00000  Uiso   1.00
C813   C     0.83001   0.58002   0.75001   0.00000  Uiso   1.00
C814   C     0.66999   0.91998   0.24999   0.00000  Uiso   1.00
C815   C     0.58002   0.66999   0.75001   0.00000  Uiso   1.00
C816   C     0.91998   0.83001   0.24999   0.00000  Uiso   1.00
C817   C     0.63833   0.88833   0.25000   0.00000  Uiso   1.00
C818   C     0.86167   0.61167   0.75000   0.00000  Uiso   1.00
C819   C     0.61167   0.63833   0.25000   0.00000  Uiso   1.00
C820   C     0.88833   0.86167   0.75000   0.00000  Uiso   1.00
C821   C     0.86167   0.61167   0.25000   0.00000  Uiso   1.00
C822   C     0.63833   0.88833   0.75000   0.00000  Uiso   1.00
C823   C     0.88833   0.86167   0.25000   0.00000  Uiso   1.00
C824   C     0.61167   0.63833   0.75000   0.00000  Uiso   1.00
C825   C     0.63833   0.61167   0.75000   0.00000  Uiso   1.00
C826   C     0.86167   0.88834   0.25000   0.00000  Uiso   1.00
C827   C     0.61167   0.86167   0.75000   0.00000  Uiso   1.00
C828   C     0.88833   0.63833   0.25000   0.00000  Uiso   1.00
C829   C     0.86167   0.88834   0.75000   0.00000  Uiso   1.00
C830   C     0.63833   0.61167   0.25000   0.00000  Uiso   1.00
C831   C     0.88833   0.63833   0.75000   0.00000  Uiso   1.00
C832   C     0.61167   0.86167   0.25000   0.00000  Uiso   1.00
C833   C     0.52707   0.77746   0.41843   0.00000  Uiso   1.00
C834   C     0.97293   0.72254   0.58157   0.00000  Uiso   1.00
C835   C     0.72230   0.52683   0.41843   0.00000  Uiso   1.00
C836   C     0.77770   0.97317   0.58157   0.00000  Uiso   1.00
C837   C     0.97293   0.72254   0.41843   0.00000  Uiso   1.00
C838   C     0.52707   0.77746   0.58157   0.00000  Uiso   1.00
C839   C     0.77770   0.97317   0.41843   0.00000  Uiso   1.00
C840   C     0.72230   0.52683   0.58157   0.00000  Uiso   1.00
C841   C     0.77708   0.52745   0.91843   0.00000  Uiso   1.00
C842   C     0.72292   0.97255   0.08157   0.00000  Uiso   1.00
C843   C     0.97247   0.77700   0.91843   0.00000  Uiso   1.00
C844   C     0.52753   0.72300   0.08157   0.00000  Uiso   1.00
C845   C     0.72292   0.97255   0.91843   0.00000  Uiso   1.00
C846   C     0.77708   0.52745   0.08157   0.00000  Uiso   1.00
C847   C     0.52753   0.72300   0.91843   0.00000  Uiso   1.00
C848   C     0.97247   0.77700   0.08157   0.00000  Uiso   1.00
C849   C     0.50000   0.75000   0.39828   0.00000  Uiso   1.00
C850   C     0.50000   0.75000   0.60172   0.00000  Uiso   1.00
C851   C     0.75000   0.50000   0.39827   0.00000  Uiso   1.00
C852   C     0.75000   0.50000   0.60172   0.00000  Uiso   1.00
C853   C     0.75000   0.50000   0.89828   0.00000  Uiso   1.00
C854   C     0.75000   0.50000   0.10172   0.00000  Uiso   1.00
C855   C     0.50000   0.75000   0.89828   0.00000  Uiso   1.00
C856   C     0.50000   0.75000   0.10172   0.00000  Uiso   1.00
C857   C     0.97315   0.72225   0.45913   0.00000  Uiso   1.00
C858   C     0.52685   0.77775   0.54087   0.00000  Uiso   1.00
C859   C     0.77800   0.97341   0.45913   0.00000  Uiso   1.00
C860   C     0.72200   0.52659   0.54087   0.00000  Uiso   1.00
C861   C     0.52685   0.77775   0.45913   0.00000  Uiso   1.00
C862   C     0.97315   0.72225   0.54087   0.00000  Uiso   1.00
C863   C     0.72200   0.52659   0.45913   0.00000  Uiso   1.00
C864   C     0.77800   0.97341   0.54087   0.00000  Uiso   1.00
C865   C     0.72314   0.97226   0.95913   0.00000  Uiso   1.00
C866   C     0.77686   0.52774   0.04087   0.00000  Uiso   1.00
C867   C     0.52782   0.72322   0.95913   0.00000  Uiso   1.00
C868   C     0.97217   0.77677   0.04087   0.00000  Uiso   1.00
C869   C     0.77686   0.52774   0.95913   0.00000  Uiso   1.00
C870   C     0.72314   0.97226   0.04087   0.00000  Uiso   1.00
C871   C     0.97217   0.77677   0.95913   0.00000  Uiso   1.00
C872   C     0.52782   0.72322   0.04087   0.00000  Uiso   1.00
C873   C     0.50000   0.75000   0.47952   0.00000  Uiso   1.00
C874   C     0.50000   0.75000   0.52048   0.00000  Uiso   1.00
C875   C     0.75000   0.50000   0.47952   0.00000  Uiso   1.00
C876   C     0.75000   0.50000   0.52048   0.00000  Uiso   1.00
C877   C     0.75000   0.50000   0.97952   0.00000  Uiso   1.00
C878   C     0.75000   0.50000   0.02048   0.00000  Uiso   1.00
C879   C     0.50000   0.75000   0.97952   0.00000  Uiso   1.00
C880   C     0.50000   0.75000   0.02048   0.00000  Uiso   1.00
C881   C     0.94770   0.69408   0.47992   0.00000  Uiso   1.00
C882   C     0.55230   0.80593   0.52008   0.00000  Uiso   1.00
C883   C     0.80643   0.94825   0.47992   0.00000  Uiso   1.00
C884   C     0.69357   0.55175   0.52008   0.00000  Uiso   1.00
C885   C     0.55230   0.80593   0.47992   0.00000  Uiso   1.00
C886   C     0.94770   0.69408   0.52008   0.00000  Uiso   1.00
C887   C     0.69357   0.55175   0.47992   0.00000  Uiso   1.00
C888   C     0.80643   0.94825   0.52008   0.00000  Uiso   1.00
C889   C     0.69769   0.94409   0.97992   0.00000  Uiso   1.00
C890   C     0.80231   0.55591   0.02008   0.00000  Uiso   1.00
C891   C     0.55607   0.69786   0.97992   0.00000  Uiso   1.00
C892   C     0.94392   0.80214   0.02008   0.00000  Uiso   1.00
C893   C     0.80231   0.55591   0.97992   0.00000  Uiso   1.00
C894   C     0.69769   0.94409   0.02008   0.00000  Uiso   1.00
C895   C     0.94392   0.80214   0.97992   0.00000  Uiso   1.00
C896   C     0.55607   0.69786   0.02008   0.00000  Uiso   1.00
N897   N     0.55388   0.80583   0.39744   0.00000  Uiso   1.00
O898   O     0.53761   0.83434   0.37493   0.00000  Uiso   1.00
O899   O     0.59455   0.80145   0.39894   0.00000  Uiso   1.00
N900   N     0.94612   0.69417   0.60256   0.00000  Uiso   1.00
O901   O     0.96239   0.66566   0.62507   0.00000  Uiso   1.00
O902   O     0.90545   0.69855   0.60106   0.00000  Uiso   1.00
N903   N     0.69371   0.55339   0.39742   0.00000  Uiso   1.00
O904   O     0.66545   0.53689   0.37479   0.00000  Uiso   1.00
O905   O     0.69766   0.59411   0.39903   0.00000  Uiso   1.00
N906   N     0.80629   0.94661   0.60258   0.00000  Uiso   1.00
O907   O     0.83455   0.96311   0.62520   0.00000  Uiso   1.00
O908   O     0.80234   0.90589   0.60097   0.00000  Uiso   1.00
N909   N     0.94612   0.69417   0.39744   0.00000  Uiso   1.00
O910   O     0.96239   0.66566   0.37493   0.00000  Uiso   1.00
O911   O     0.90545   0.69856   0.39894   0.00000  Uiso   1.00
N912   N     0.55388   0.80583   0.60256   0.00000  Uiso   1.00
O913   O     0.53761   0.83434   0.62507   0.00000  Uiso   1.00
O914   O     0.59455   0.80144   0.60106   0.00000  Uiso   1.00
N915   N     0.80629   0.94661   0.39742   0.00000  Uiso   1.00
O916   O     0.83455   0.96311   0.37479   0.00000  Uiso   1.00
O917   O     0.80234   0.90589   0.39903   0.00000  Uiso   1.00
N918   N     0.69371   0.55339   0.60258   0.00000  Uiso   1.00
O919   O     0.66545   0.53689   0.62520   0.00000  Uiso   1.00
O920   O     0.69766   0.59411   0.60097   0.00000  Uiso   1.00
N921   N     0.80389   0.55582   0.89744   0.00000  Uiso   1.00
O922   O     0.78763   0.58433   0.87493   0.00000  Uiso   1.00
O923   O     0.84457   0.55142   0.89894   0.00000  Uiso   1.00
N924   N     0.69611   0.94419   0.10256   0.00000  Uiso   1.00
O925   O     0.71237   0.91567   0.12507   0.00000  Uiso   1.00
O926   O     0.65543   0.94858   0.10106   0.00000  Uiso   1.00
N927   N     0.94403   0.80374   0.89743   0.00000  Uiso   1.00
O928   O     0.91560   0.78740   0.87489   0.00000  Uiso   1.00
O929   O     0.94829   0.84443   0.89897   0.00000  Uiso   1.00
N930   N     0.55596   0.69626   0.10257   0.00000  Uiso   1.00
O931   O     0.58440   0.71260   0.12511   0.00000  Uiso   1.00
O932   O     0.55171   0.65557   0.10103   0.00000  Uiso   1.00
N933   N     0.69611   0.94419   0.89744   0.00000  Uiso   1.00
O934   O     0.71237   0.91567   0.87493   0.00000  Uiso   1.00
O935   O     0.65543   0.94858   0.89894   0.00000  Uiso   1.00
N936   N     0.80389   0.55581   0.10256   0.00000  Uiso   1.00
O937   O     0.78763   0.58433   0.12506   0.00000  Uiso   1.00
O938   O     0.84457   0.55142   0.10106   0.00000  Uiso   1.00
N939   N     0.55596   0.69626   0.89743   0.00000  Uiso   1.00
O940   O     0.58440   0.71260   0.87489   0.00000  Uiso   1.00
O941   O     0.55170   0.65557   0.89897   0.00000  Uiso   1.00
N942   N     0.94404   0.80374   0.10257   0.00000  Uiso   1.00
O943   O     0.91560   0.78740   0.12511   0.00000  Uiso   1.00
O944   O     0.94829   0.84443   0.10103   0.00000  Uiso   1.00
loop_
_geom_bond_atom_site_label_1
_geom_bond_atom_site_label_2
_geom_bond_distance
_geom_bond_site_symmetry_2
_ccdc_geom_bond_type
Zn1    O532    1.915   1_545 S
Zn1    O32     1.951   .     S
Zn1    O17     1.936   .     S
Zn1    O63     1.915   .     S
Zn2    O18     1.936   .     S
Zn2    O536    1.915   1_545 S
Zn2    O31     1.951   .     S
Zn2    O59     1.915   .     S
Zn3    O54     1.915   .     S
Zn3    O19     1.936   .     S
Zn3    O34     1.951   .     S
Zn3    O297    1.915   1_455 S
Zn4    O62     1.915   .     S
Zn4    O20     1.936   .     S
Zn4    O33     1.951   .     S
Zn4    O289    1.915   1_455 S
Zn5    O36     1.951   .     S
Zn5    O539    1.915   1_545 S
Zn5    O17     1.936   .     S
Zn5    O56     1.915   .     S
Zn6    O527    1.915   1_545 S
Zn6    O35     1.951   .     S
Zn6    O18     1.936   .     S
Zn6    O68     1.915   .     S
Zn7    O65     1.915   .     S
Zn7    O30     1.951   .     S
Zn7    O19     1.936   .     S
Zn7    O294    1.915   1_455 S
Zn8    O29     1.951   .     S
Zn8    O57     1.915   .     S
Zn8    O20     1.936   .     S
Zn8    O302    1.915   1_455 S
Zn9    O24     1.951   .     S
Zn9    O47     1.915   .     S
Zn9    O44     1.915   .     S
Zn9    O256    1.936   .     S
Zn10   O48     1.915   .     S
Zn10   O23     1.951   .     S
Zn10   O43     1.915   .     S
Zn10   O19     1.936   .     S
Zn11   O490    1.936   .     S
Zn11   O26     1.951   .     S
Zn11   O38     1.915   .     S
Zn11   O45     1.915   .     S
Zn12   O37     1.915   .     S
Zn12   O46     1.915   .     S
Zn12   O25     1.951   .     S
Zn12   O17     1.936   .     S
Zn13   O40     1.915   .     S
Zn13   O51     1.915   .     S
Zn13   O28     1.951   .     S
Zn13   O20     1.936   .     S
Zn14   O39     1.915   .     S
Zn14   O52     1.915   .     S
Zn14   O27     1.951   .     S
Zn14   O255    1.936   .     S
Zn15   O42     1.915   .     S
Zn15   O22     1.951   .     S
Zn15   O49     1.915   .     S
Zn15   O18     1.936   .     S
Zn16   O489    1.936   .     S
Zn16   O50     1.915   .     S
Zn16   O21     1.951   .     S
Zn16   O41     1.915   .     S
O17    Zn488   1.936   1_545 S
O18    Zn483   1.936   1_545 S
O19    Zn250   1.936   1_455 S
O20    Zn245   1.936   1_455 S
O21    C557    1.271   .     A
O22    C86     1.271   .     A
O23    C87     1.271   .     S
O24    C324    1.271   .     S
O25    C85     1.271   .     S
O26    C558    1.271   .     S
O27    C323    1.271   .     A
O28    C88     1.271   .     A
O29    C89     1.271   .     S
O30    C90     1.271   .     S
O31    C91     1.271   .     A
O32    C92     1.271   .     A
O33    C89     1.271   .     S
O34    C90     1.271   .     A
O35    C91     1.271   .     A
O36    C92     1.271   .     A
O37    C93     1.277   .     A
O38    C94     1.277   .     A
O39    C95     1.277   .     A
O40    C96     1.277   .     A
O41    C97     1.277   .     A
O42    C98     1.277   .     A
O43    C99     1.277   .     A
O44    C100    1.277   .     A
O45    C101    1.277   .     A
O46    C102    1.277   .     A
O47    C103    1.277   .     A
O48    C104    1.277   .     A
O49    C105    1.277   .     A
O50    C106    1.277   .     A
O51    C107    1.277   .     A
O52    C108    1.277   .     A
O53    C103    1.277   .     A
O53    Zn240   1.915   .     S
O54    C104    1.277   .     A
O55    Zn478   1.915   .     S
O55    C101    1.277   .     A
O56    C102    1.277   .     A
O57    C107    1.277   .     A
O58    C108    1.277   .     A
O58    Zn243   1.915   .     S
O59    C105    1.277   .     A
O60    Zn473   1.915   .     S
O60    C106    1.277   .     A
O61    C95     1.277   .     A
O61    Zn239   1.915   .     S
O62    C96     1.277   .     A
O63    C93     1.277   .     A
O64    Zn474   1.915   .     S
O64    C94     1.277   .     A
O65    C99     1.277   .     A
O66    C100    1.277   .     A
O66    Zn244   1.915   .     S
O67    Zn477   1.915   .     S
O67    C97     1.277   .     A
O68    C98     1.277   .     A
H69    C173    1.082   .     S
H70    C174    1.082   .     S
H71    C175    1.082   .     S
H72    C176    1.082   .     S
H73    C177    1.082   .     S
H74    C178    1.082   .     S
H75    C179    1.082   .     S
H76    C180    1.082   .     S
H77    C181    1.082   .     S
H78    C182    1.082   .     S
H79    C183    1.082   .     S
H80    C184    1.082   .     S
H81    C185    1.082   .     S
H82    C186    1.082   .     S
H83    C187    1.082   .     S
H84    C188    1.082   .     S
C85    C143    1.464   .     S
C85    O493    1.271   1_545 A
C86    O498    1.271   1_545 S
C86    C144    1.464   .     S
C87    C141    1.464   .     S
C87    O263    1.271   1_455 A
C88    C142    1.464   .     S
C88    O260    1.271   1_455 S
C89    C147    1.464   .     S
C90    C148    1.464   .     S
C91    C145    1.464   .     S
C92    C146    1.464   .     S
C93    C122    1.422   .     S
C94    C121    1.422   .     S
C95    C120    1.422   .     S
C96    C119    1.422   .     S
C97    C118    1.422   .     S
C98    C117    1.422   .     S
C99    C124    1.422   .     S
C100   C123    1.422   .     S
C101   C114    1.422   .     S
C102   C113    1.422   .     S
C103   C112    1.422   .     S
C104   C111    1.422   .     S
C105   C110    1.422   .     S
C106   C109    1.422   .     S
C107   C116    1.422   .     S
C108   C115    1.422   .     S
C109   C124    1.198   .     T
C110   C123    1.198   .     T
C111   C122    1.198   .     T
C112   C121    1.198   .     T
C113   C120    1.198   .     T
C114   C119    1.198   .     T
C115   C118    1.198   .     T
C116   C117    1.198   .     T
C125   C153    1.407   .     A
C125   N189    1.437   .     S
C125   C141    1.410   .     S
C126   N192    1.437   .     S
C126   C154    1.407   .     A
C126   C378    1.410   .     S
C127   N195    1.437   .     S
C127   C155    1.407   .     A
C127   C143    1.409   .     S
C128   N198    1.437   .     S
C128   C156    1.407   .     A
C128   C616    1.409   .     A
C129   C377    1.410   .     A
C129   C149    1.407   .     A
C129   N201    1.437   .     S
C130   C150    1.407   .     A
C130   N204    1.437   .     S
C130   C142    1.410   .     A
C131   C151    1.407   .     A
C131   N207    1.437   .     S
C131   C615    1.409   .     A
C132   N210    1.437   .     S
C132   C152    1.407   .     A
C132   C144    1.409   .     S
C133   C145    1.410   .     A
C133   C161    1.407   .     A
C133   N213    1.437   .     S
C134   N216    1.437   .     S
C134   C162    1.407   .     A
C134   C618    1.410   .     S
C135   N219    1.437   .     S
C135   C383    1.410   .     A
C135   C163    1.407   .     A
C136   N222    1.437   .     S
C136   C164    1.407   .     A
C136   C148    1.410   .     S
C137   N225    1.437   .     S
C137   C157    1.407   .     A
C137   C617    1.410   .     S
C138   N228    1.437   .     S
C138   C158    1.407   .     A
C138   C146    1.410   .     A
C139   C159    1.407   .     A
C139   N231    1.437   .     S
C139   C147    1.410   .     S
C140   N234    1.437   .     S
C140   C384    1.410   .     A
C140   C160    1.407   .     A
C141   C365    1.410   1_455 A
C142   C362    1.410   1_455 S
C143   C603    1.409   1_545 A
C144   C600    1.409   1_545 A
C145   C609    1.410   1_545 S
C146   C606    1.410   1_545 S
C147   C371    1.410   1_455 A
C148   C376    1.410   1_455 A
C149   C401    1.415   .     A
C149   C173    1.404   .     A
C150   C174    1.404   .     A
C150   C166    1.415   .     S
C151   C639    1.415   .     A
C151   C175    1.404   .     A
C152   C176    1.404   .     A
C152   C168    1.415   .     S
C153   C177    1.404   .     A
C153   C165    1.415   .     S
C154   C178    1.404   .     A
C154   C402    1.415   .     A
C155   C179    1.404   .     A
C155   C167    1.415   .     S
C156   C640    1.415   .     A
C156   C180    1.404   .     A
C157   C181    1.404   .     A
C157   C641    1.415   .     S
C158   C170    1.415   .     A
C158   C182    1.404   .     A
C159   C183    1.404   .     A
C159   C171    1.415   .     S
C160   C408    1.415   .     A
C160   C184    1.404   .     A
C161   C185    1.404   .     A
C161   C169    1.415   .     A
C162   C186    1.404   .     A
C162   C642    1.415   .     S
C163   C187    1.404   .     A
C163   C407    1.415   .     A
C164   C188    1.404   .     A
C164   C172    1.415   .     S
C165   C166    1.415   .     A
C165   C385    1.415   1_455 A
C166   C390    1.415   1_455 A
C167   C623    1.415   1_545 A
C167   C168    1.415   .     A
C168   C628    1.415   1_545 A
C169   C629    1.415   1_545 S
C169   C170    1.415   1_556 S
C170   C634    1.415   1_545 S
C170   C169    1.415   1_554 S
C171   C399    1.415   1_455 A
C171   C172    1.415   1_556 S
C172   C396    1.415   1_455 A
C172   C171    1.415   1_554 S
C173   C178    1.388   .     A
C174   C177    1.388   .     A
C175   C180    1.388   .     A
C176   C179    1.388   .     A
C181   C186    1.388   1_556 S
C182   C185    1.388   1_554 S
C183   C188    1.388   1_556 S
C184   C187    1.388   1_554 S
C185   C182    1.388   1_556 S
C186   C181    1.388   1_554 S
C187   C184    1.388   1_556 S
C188   C183    1.388   1_554 S
N189   O191    1.301   .     A
N189   O190    1.301   .     A
N192   O194    1.301   .     A
N192   O193    1.301   .     A
N195   O196    1.301   .     A
N195   O197    1.301   .     A
N198   O199    1.301   .     A
N198   O200    1.301   .     A
N201   O202    1.301   .     A
N201   O203    1.301   .     A
N204   O206    1.301   .     A
N204   O205    1.301   .     A
N207   O208    1.301   .     A
N207   O209    1.301   .     A
N210   O212    1.301   .     A
N210   O211    1.301   .     A
N213   O214    1.301   .     A
N213   O215    1.301   .     A
N216   O217    1.301   .     A
N216   O218    1.301   .     A
N219   O221    1.301   .     A
N219   O220    1.301   .     A
N222   O224    1.301   .     A
N222   O223    1.301   .     A
N225   O226    1.301   .     A
N225   O227    1.301   .     A
N228   O230    1.301   .     A
N228   O229    1.301   .     A
N231   O233    1.301   .     A
N231   O232    1.301   .     A
N234   O236    1.301   .     A
N234   O235    1.301   .     A
Zn237  O768    1.915   1_545 S
Zn237  O268    1.951   .     S
Zn237  O253    1.936   .     S
Zn237  O299    1.915   .     S
Zn238  O254    1.936   .     S
Zn238  O772    1.915   1_545 S
Zn238  O267    1.951   .     S
Zn238  O295    1.915   .     S
Zn239  O290    1.915   .     S
Zn239  O255    1.936   .     S
Zn239  O270    1.951   .     S
Zn240  O298    1.915   .     S
Zn240  O256    1.936   .     S
Zn240  O269    1.951   .     S
Zn241  O272    1.951   .     S
Zn241  O775    1.915   1_545 S
Zn241  O253    1.936   .     S
Zn241  O292    1.915   .     S
Zn242  O763    1.915   1_545 S
Zn242  O271    1.951   .     S
Zn242  O254    1.936   .     S
Zn242  O304    1.915   .     S
Zn243  O301    1.915   .     S
Zn243  O266    1.951   .     S
Zn243  O255    1.936   .     S
Zn244  O265    1.951   .     S
Zn244  O293    1.915   .     S
Zn244  O256    1.936   .     S
Zn245  O260    1.951   .     S
Zn245  O283    1.915   .     S
Zn245  O280    1.915   .     S
Zn245  O20     1.936   1_655 S
Zn246  O284    1.915   .     S
Zn246  O259    1.951   .     S
Zn246  O279    1.915   .     S
Zn246  O255    1.936   .     S
Zn247  O726    1.936   .     S
Zn247  O262    1.951   .     S
Zn247  O274    1.915   .     S
Zn247  O281    1.915   .     S
Zn248  O273    1.915   .     S
Zn248  O282    1.915   .     S
Zn248  O261    1.951   .     S
Zn248  O253    1.936   .     S
Zn249  O276    1.915   .     S
Zn249  O287    1.915   .     S
Zn249  O264    1.951   .     S
Zn249  O256    1.936   .     S
Zn250  O275    1.915   .     S
Zn250  O288    1.915   .     S
Zn250  O263    1.951   .     S
Zn250  O19     1.936   1_655 S
Zn251  O278    1.915   .     S
Zn251  O258    1.951   .     S
Zn251  O285    1.915   .     S
Zn251  O254    1.936   .     S
Zn252  O725    1.936   .     S
Zn252  O286    1.915   .     S
Zn252  O257    1.951   .     S
Zn252  O277    1.915   .     S
O253   Zn724   1.936   1_545 S
O254   Zn719   1.936   1_545 S
O257   C793    1.271   .     A
O258   C322    1.271   .     A
O259   C323    1.271   .     S
O260   C88     1.271   1_655 S
O261   C321    1.271   .     S
O262   C794    1.271   .     S
O263   C87     1.271   1_655 A
O264   C324    1.271   .     A
O265   C325    1.271   .     S
O266   C326    1.271   .     S
O267   C327    1.271   .     A
O268   C328    1.271   .     A
O269   C325    1.271   .     S
O270   C326    1.271   .     A
O271   C327    1.271   .     A
O272   C328    1.271   .     A
O273   C329    1.277   .     A
O274   C330    1.277   .     A
O275   C331    1.277   .     A
O276   C332    1.277   .     A
O277   C333    1.277   .     A
O278   C334    1.277   .     A
O279   C335    1.277   .     A
O280   C336    1.277   .     A
O281   C337    1.277   .     A
O282   C338    1.277   .     A
O283   C339    1.277   .     A
O284   C340    1.277   .     A
O285   C341    1.277   .     A
O286   C342    1.277   .     A
O287   C343    1.277   .     A
O288   C344    1.277   .     A
O289   C339    1.277   .     A
O289   Zn4     1.915   1_655 S
O290   C340    1.277   .     A
O291   Zn714   1.915   .     S
O291   C337    1.277   .     A
O292   C338    1.277   .     A
O293   C343    1.277   .     A
O294   C344    1.277   .     A
O294   Zn7     1.915   1_655 S
O295   C341    1.277   .     A
O296   Zn709   1.915   .     S
O296   C342    1.277   .     A
O297   C331    1.277   .     A
O297   Zn3     1.915   1_655 S
O298   C332    1.277   .     A
O299   C329    1.277   .     A
O300   Zn710   1.915   .     S
O300   C330    1.277   .     A
O301   C335    1.277   .     A
O302   C336    1.277   .     A
O302   Zn8     1.915   1_655 S
O303   Zn713   1.915   .     S
O303   C333    1.277   .     A
O304   C334    1.277   .     A
H305   C409    1.082   .     S
H306   C410    1.082   .     S
H307   C411    1.082   .     S
H308   C412    1.082   .     S
H309   C413    1.082   .     S
H310   C414    1.082   .     S
H311   C415    1.082   .     S
H312   C416    1.082   .     S
H313   C417    1.082   .     S
H314   C418    1.082   .     S
H315   C419    1.082   .     S
H316   C420    1.082   .     S
H317   C421    1.082   .     S
H318   C422    1.082   .     S
H319   C423    1.082   .     S
H320   C424    1.082   .     S
C321   C379    1.464   .     S
C321   O729    1.271   1_545 A
C322   O734    1.271   1_545 S
C322   C380    1.464   .     S
C323   C377    1.464   .     S
C324   C378    1.464   .     S
C325   C383    1.464   .     S
C326   C384    1.464   .     S
C327   C381    1.464   .     S
C328   C382    1.464   .     S
C329   C358    1.422   .     S
C330   C357    1.422   .     S
C331   C356    1.422   .     S
C332   C355    1.422   .     S
C333   C354    1.422   .     S
C334   C353    1.422   .     S
C335   C360    1.422   .     S
C336   C359    1.422   .     S
C337   C350    1.422   .     S
C338   C349    1.422   .     S
C339   C348    1.422   .     S
C340   C347    1.422   .     S
C341   C346    1.422   .     S
C342   C345    1.422   .     S
C343   C352    1.422   .     S
C344   C351    1.422   .     S
C345   C360    1.198   .     T
C346   C359    1.198   .     T
C347   C358    1.198   .     T
C348   C357    1.198   .     T
C349   C356    1.198   .     T
C350   C355    1.198   .     T
C351   C354    1.198   .     T
C352   C353    1.198   .     T
C361   C389    1.407   .     A
C361   N425    1.437   .     S
C361   C377    1.410   .     S
C362   N428    1.437   .     S
C362   C390    1.407   .     A
C362   C142    1.410   1_655 S
C363   N431    1.437   .     S
C363   C391    1.407   .     A
C363   C379    1.409   .     S
C364   N434    1.437   .     S
C364   C392    1.407   .     A
C364   C852    1.409   .     A
C365   C141    1.410   1_655 A
C365   C385    1.407   .     A
C365   N437    1.437   .     S
C366   C386    1.407   .     A
C366   N440    1.437   .     S
C366   C378    1.410   .     A
C367   C387    1.407   .     A
C367   N443    1.437   .     S
C367   C851    1.409   .     A
C368   N446    1.437   .     S
C368   C388    1.407   .     A
C368   C380    1.409   .     S
C369   C381    1.410   .     A
C369   C397    1.407   .     A
C369   N449    1.437   .     S
C370   N452    1.437   .     S
C370   C398    1.407   .     A
C370   C854    1.410   .     S
C371   N455    1.437   .     S
C371   C147    1.410   1_655 A
C371   C399    1.407   .     A
C372   N458    1.437   .     S
C372   C400    1.407   .     A
C372   C384    1.410   .     S
C373   N461    1.437   .     S
C373   C393    1.407   .     A
C373   C853    1.410   .     S
C374   N464    1.437   .     S
C374   C394    1.407   .     A
C374   C382    1.410   .     A
C375   C395    1.407   .     A
C375   N467    1.437   .     S
C375   C383    1.410   .     S
C376   N470    1.437   .     S
C376   C148    1.410   1_655 A
C376   C396    1.407   .     A
C379   C839    1.409   1_545 A
C380   C836    1.409   1_545 A
C381   C845    1.410   1_545 S
C382   C842    1.410   1_545 S
C385   C165    1.415   1_655 A
C385   C409    1.404   .     A
C386   C410    1.404   .     A
C386   C402    1.415   .     S
C387   C875    1.415   .     A
C387   C411    1.404   .     A
C388   C412    1.404   .     A
C388   C404    1.415   .     S
C389   C413    1.404   .     A
C389   C401    1.415   .     S
C390   C414    1.404   .     A
C390   C166    1.415   1_655 A
C391   C415    1.404   .     A
C391   C403    1.415   .     S
C392   C876    1.415   .     A
C392   C416    1.404   .     A
C393   C417    1.404   .     A
C393   C877    1.415   .     S
C394   C406    1.415   .     A
C394   C418    1.404   .     A
C395   C419    1.404   .     A
C395   C407    1.415   .     S
C396   C172    1.415   1_655 A
C396   C420    1.404   .     A
C397   C421    1.404   .     A
C397   C405    1.415   .     A
C398   C422    1.404   .     A
C398   C878    1.415   .     S
C399   C423    1.404   .     A
C399   C171    1.415   1_655 A
C400   C424    1.404   .     A
C400   C408    1.415   .     S
C401   C402    1.415   .     A
C403   C859    1.415   1_545 A
C403   C404    1.415   .     A
C404   C864    1.415   1_545 A
C405   C865    1.415   1_545 S
C405   C406    1.415   1_556 S
C406   C870    1.415   1_545 S
C406   C405    1.415   1_554 S
C407   C408    1.415   1_556 S
C408   C407    1.415   1_554 S
C409   C414    1.388   .     A
C410   C413    1.388   .     A
C411   C416    1.388   .     A
C412   C415    1.388   .     A
C417   C422    1.388   1_556 S
C418   C421    1.388   1_554 S
C419   C424    1.388   1_556 S
C420   C423    1.388   1_554 S
C421   C418    1.388   1_556 S
C422   C417    1.388   1_554 S
C423   C420    1.388   1_556 S
C424   C419    1.388   1_554 S
N425   O427    1.301   .     A
N425   O426    1.301   .     A
N428   O430    1.301   .     A
N428   O429    1.301   .     A
N431   O432    1.301   .     A
N431   O433    1.301   .     A
N434   O435    1.301   .     A
N434   O436    1.301   .     A
N437   O438    1.301   .     A
N437   O439    1.301   .     A
N440   O442    1.301   .     A
N440   O441    1.301   .     A
N443   O444    1.301   .     A
N443   O445    1.301   .     A
N446   O448    1.301   .     A
N446   O447    1.301   .     A
N449   O450    1.301   .     A
N449   O451    1.301   .     A
N452   O453    1.301   .     A
N452   O454    1.301   .     A
N455   O457    1.301   .     A
N455   O456    1.301   .     A
N458   O460    1.301   .     A
N458   O459    1.301   .     A
N461   O462    1.301   .     A
N461   O463    1.301   .     A
N464   O466    1.301   .     A
N464   O465    1.301   .     A
N467   O469    1.301   .     A
N467   O468    1.301   .     A
N470   O472    1.301   .     A
N470   O471    1.301   .     A
Zn473  O504    1.951   .     S
Zn473  O489    1.936   .     S
Zn473  O535    1.915   .     S
Zn474  O490    1.936   .     S
Zn474  O503    1.951   .     S
Zn474  O531    1.915   .     S
Zn475  O526    1.915   .     S
Zn475  O491    1.936   .     S
Zn475  O506    1.951   .     S
Zn475  O769    1.915   1_455 S
Zn476  O534    1.915   .     S
Zn476  O492    1.936   .     S
Zn476  O505    1.951   .     S
Zn476  O761    1.915   1_455 S
Zn477  O508    1.951   .     S
Zn477  O489    1.936   .     S
Zn477  O528    1.915   .     S
Zn478  O507    1.951   .     S
Zn478  O490    1.936   .     S
Zn478  O540    1.915   .     S
Zn479  O537    1.915   .     S
Zn479  O502    1.951   .     S
Zn479  O491    1.936   .     S
Zn479  O766    1.915   1_455 S
Zn480  O501    1.951   .     S
Zn480  O529    1.915   .     S
Zn480  O492    1.936   .     S
Zn480  O774    1.915   1_455 S
Zn481  O496    1.951   .     S
Zn481  O519    1.915   .     S
Zn481  O516    1.915   .     S
Zn481  O728    1.936   .     S
Zn482  O520    1.915   .     S
Zn482  O495    1.951   .     S
Zn482  O515    1.915   .     S
Zn482  O491    1.936   .     S
Zn483  O18     1.936   1_565 S
Zn483  O498    1.951   .     S
Zn483  O510    1.915   .     S
Zn483  O517    1.915   .     S
Zn484  O509    1.915   .     S
Zn484  O518    1.915   .     S
Zn484  O497    1.951   .     S
Zn484  O489    1.936   .     S
Zn485  O512    1.915   .     S
Zn485  O523    1.915   .     S
Zn485  O500    1.951   .     S
Zn485  O492    1.936   .     S
Zn486  O511    1.915   .     S
Zn486  O524    1.915   .     S
Zn486  O499    1.951   .     S
Zn486  O727    1.936   .     S
Zn487  O514    1.915   .     S
Zn487  O494    1.951   .     S
Zn487  O521    1.915   .     S
Zn487  O490    1.936   .     S
Zn488  O17     1.936   1_565 S
Zn488  O522    1.915   .     S
Zn488  O493    1.951   .     S
Zn488  O513    1.915   .     S
O491   Zn722   1.936   1_455 S
O492   Zn717   1.936   1_455 S
O493   C85     1.271   1_565 A
O494   C558    1.271   .     A
O495   C559    1.271   .     S
O496   C796    1.271   .     S
O497   C557    1.271   .     S
O498   C86     1.271   1_565 S
O499   C795    1.271   .     A
O500   C560    1.271   .     A
O501   C561    1.271   .     S
O502   C562    1.271   .     S
O503   C563    1.271   .     A
O504   C564    1.271   .     A
O505   C561    1.271   .     S
O506   C562    1.271   .     A
O507   C563    1.271   .     A
O508   C564    1.271   .     A
O509   C565    1.277   .     A
O510   C566    1.277   .     A
O511   C567    1.277   .     A
O512   C568    1.277   .     A
O513   C569    1.277   .     A
O514   C570    1.277   .     A
O515   C571    1.277   .     A
O516   C572    1.277   .     A
O517   C573    1.277   .     A
O518   C574    1.277   .     A
O519   C575    1.277   .     A
O520   C576    1.277   .     A
O521   C577    1.277   .     A
O522   C578    1.277   .     A
O523   C579    1.277   .     A
O524   C580    1.277   .     A
O525   C575    1.277   .     A
O525   Zn712   1.915   .     S
O526   C576    1.277   .     A
O527   Zn6     1.915   1_565 S
O527   C573    1.277   .     A
O528   C574    1.277   .     A
O529   C579    1.277   .     A
O530   C580    1.277   .     A
O530   Zn715   1.915   .     S
O531   C577    1.277   .     A
O532   Zn1     1.915   1_565 S
O532   C578    1.277   .     A
O533   C567    1.277   .     A
O533   Zn711   1.915   .     S
O534   C568    1.277   .     A
O535   C565    1.277   .     A
O536   Zn2     1.915   1_565 S
O536   C566    1.277   .     A
O537   C571    1.277   .     A
O538   C572    1.277   .     A
O538   Zn716   1.915   .     S
O539   Zn5     1.915   1_565 S
O539   C569    1.277   .     A
O540   C570    1.277   .     A
H541   C645    1.082   .     S
H542   C646    1.082   .     S
H543   C647    1.082   .     S
H544   C648    1.082   .     S
H545   C649    1.082   .     S
H546   C650    1.082   .     S
H547   C651    1.082   .     S
H548   C652    1.082   .     S
H549   C653    1.082   .     S
H550   C654    1.082   .     S
H551   C655    1.082   .     S
H552   C656    1.082   .     S
H553   C657    1.082   .     S
H554   C658    1.082   .     S
H555   C659    1.082   .     S
H556   C660    1.082   .     S
C557   C615    1.464   .     S
C558   C616    1.464   .     S
C559   C613    1.464   .     S
C559   O735    1.271   1_455 A
C560   C614    1.464   .     S
C560   O732    1.271   1_455 S
C561   C619    1.464   .     S
C562   C620    1.464   .     S
C563   C617    1.464   .     S
C564   C618    1.464   .     S
C565   C594    1.422   .     S
C566   C593    1.422   .     S
C567   C592    1.422   .     S
C568   C591    1.422   .     S
C569   C590    1.422   .     S
C570   C589    1.422   .     S
C571   C596    1.422   .     S
C572   C595    1.422   .     S
C573   C586    1.422   .     S
C574   C585    1.422   .     S
C575   C584    1.422   .     S
C576   C583    1.422   .     S
C577   C582    1.422   .     S
C578   C581    1.422   .     S
C579   C588    1.422   .     S
C580   C587    1.422   .     S
C581   C596    1.198   .     T
C582   C595    1.198   .     T
C583   C594    1.198   .     T
C584   C593    1.198   .     T
C585   C592    1.198   .     T
C586   C591    1.198   .     T
C587   C590    1.198   .     T
C588   C589    1.198   .     T
C597   C625    1.407   .     A
C597   N661    1.437   .     S
C597   C613    1.410   .     S
C598   N664    1.437   .     S
C598   C626    1.407   .     A
C598   C850    1.410   .     S
C599   N667    1.437   .     S
C599   C627    1.407   .     A
C599   C615    1.409   .     S
C600   N670    1.437   .     S
C600   C628    1.407   .     A
C600   C144    1.409   1_565 A
C601   C849    1.410   .     A
C601   C621    1.407   .     A
C601   N673    1.437   .     S
C602   C622    1.407   .     A
C602   N676    1.437   .     S
C602   C614    1.410   .     A
C603   C623    1.407   .     A
C603   N679    1.437   .     S
C603   C143    1.409   1_565 A
C604   N682    1.437   .     S
C604   C624    1.407   .     A
C604   C616    1.409   .     S
C605   C617    1.410   .     A
C605   C633    1.407   .     A
C605   N685    1.437   .     S
C606   N688    1.437   .     S
C606   C634    1.407   .     A
C606   C146    1.410   1_565 S
C607   N691    1.437   .     S
C607   C855    1.410   .     A
C607   C635    1.407   .     A
C608   N694    1.437   .     S
C608   C636    1.407   .     A
C608   C620    1.410   .     S
C609   N697    1.437   .     S
C609   C629    1.407   .     A
C609   C145    1.410   1_565 S
C610   N700    1.437   .     S
C610   C630    1.407   .     A
C610   C618    1.410   .     A
C611   C631    1.407   .     A
C611   N703    1.437   .     S
C611   C619    1.410   .     S
C612   N706    1.437   .     S
C612   C856    1.410   .     A
C612   C632    1.407   .     A
C613   C837    1.410   1_455 A
C614   C834    1.410   1_455 S
C619   C843    1.410   1_455 A
C620   C848    1.410   1_455 A
C621   C873    1.415   .     A
C621   C645    1.404   .     A
C622   C646    1.404   .     A
C622   C638    1.415   .     S
C623   C167    1.415   1_565 A
C623   C647    1.404   .     A
C624   C648    1.404   .     A
C624   C640    1.415   .     S
C625   C649    1.404   .     A
C625   C637    1.415   .     S
C626   C650    1.404   .     A
C626   C874    1.415   .     A
C627   C651    1.404   .     A
C627   C639    1.415   .     S
C628   C168    1.415   1_565 A
C628   C652    1.404   .     A
C629   C653    1.404   .     A
C629   C169    1.415   1_565 S
C630   C642    1.415   .     A
C630   C654    1.404   .     A
C631   C655    1.404   .     A
C631   C643    1.415   .     S
C632   C880    1.415   .     A
C632   C656    1.404   .     A
C633   C657    1.404   .     A
C633   C641    1.415   .     A
C634   C658    1.404   .     A
C634   C170    1.415   1_565 S
C635   C659    1.404   .     A
C635   C879    1.415   .     A
C636   C660    1.404   .     A
C636   C644    1.415   .     S
C637   C638    1.415   .     A
C637   C857    1.415   1_455 A
C638   C862    1.415   1_455 A
C639   C640    1.415   .     A
C641   C642    1.415   1_556 S
C642   C641    1.415   1_554 S
C643   C871    1.415   1_455 A
C643   C644    1.415   1_556 S
C644   C868    1.415   1_455 A
C644   C643    1.415   1_554 S
C645   C650    1.388   .     A
C646   C649    1.388   .     A
C647   C652    1.388   .     A
C648   C651    1.388   .     A
C653   C658    1.388   1_556 S
C654   C657    1.388   1_554 S
C655   C660    1.388   1_556 S
C656   C659    1.388   1_554 S
C657   C654    1.388   1_556 S
C658   C653    1.388   1_554 S
C659   C656    1.388   1_556 S
C660   C655    1.388   1_554 S
N661   O663    1.301   .     A
N661   O662    1.301   .     A
N664   O666    1.301   .     A
N664   O665    1.301   .     A
N667   O668    1.301   .     A
N667   O669    1.301   .     A
N670   O671    1.301   .     A
N670   O672    1.301   .     A
N673   O674    1.301   .     A
N673   O675    1.301   .     A
N676   O678    1.301   .     A
N676   O677    1.301   .     A
N679   O680    1.301   .     A
N679   O681    1.301   .     A
N682   O684    1.301   .     A
N682   O683    1.301   .     A
N685   O686    1.301   .     A
N685   O687    1.301   .     A
N688   O689    1.301   .     A
N688   O690    1.301   .     A
N691   O693    1.301   .     A
N691   O692    1.301   .     A
N694   O696    1.301   .     A
N694   O695    1.301   .     A
N697   O698    1.301   .     A
N697   O699    1.301   .     A
N700   O702    1.301   .     A
N700   O701    1.301   .     A
N703   O705    1.301   .     A
N703   O704    1.301   .     A
N706   O708    1.301   .     A
N706   O707    1.301   .     A
Zn709  O740    1.951   .     S
Zn709  O725    1.936   .     S
Zn709  O771    1.915   .     S
Zn710  O726    1.936   .     S
Zn710  O739    1.951   .     S
Zn710  O767    1.915   .     S
Zn711  O762    1.915   .     S
Zn711  O727    1.936   .     S
Zn711  O742    1.951   .     S
Zn712  O770    1.915   .     S
Zn712  O728    1.936   .     S
Zn712  O741    1.951   .     S
Zn713  O744    1.951   .     S
Zn713  O725    1.936   .     S
Zn713  O764    1.915   .     S
Zn714  O743    1.951   .     S
Zn714  O726    1.936   .     S
Zn714  O776    1.915   .     S
Zn715  O773    1.915   .     S
Zn715  O738    1.951   .     S
Zn715  O727    1.936   .     S
Zn716  O737    1.951   .     S
Zn716  O765    1.915   .     S
Zn716  O728    1.936   .     S
Zn717  O732    1.951   .     S
Zn717  O755    1.915   .     S
Zn717  O752    1.915   .     S
Zn717  O492    1.936   1_655 S
Zn718  O756    1.915   .     S
Zn718  O731    1.951   .     S
Zn718  O751    1.915   .     S
Zn718  O727    1.936   .     S
Zn719  O254    1.936   1_565 S
Zn719  O734    1.951   .     S
Zn719  O746    1.915   .     S
Zn719  O753    1.915   .     S
Zn720  O745    1.915   .     S
Zn720  O754    1.915   .     S
Zn720  O733    1.951   .     S
Zn720  O725    1.936   .     S
Zn721  O748    1.915   .     S
Zn721  O759    1.915   .     S
Zn721  O736    1.951   .     S
Zn721  O728    1.936   .     S
Zn722  O747    1.915   .     S
Zn722  O760    1.915   .     S
Zn722  O735    1.951   .     S
Zn722  O491    1.936   1_655 S
Zn723  O750    1.915   .     S
Zn723  O730    1.951   .     S
Zn723  O757    1.915   .     S
Zn723  O726    1.936   .     S
Zn724  O253    1.936   1_565 S
Zn724  O758    1.915   .     S
Zn724  O729    1.951   .     S
Zn724  O749    1.915   .     S
O729   C321    1.271   1_565 A
O730   C794    1.271   .     A
O731   C795    1.271   .     S
O732   C560    1.271   1_655 S
O733   C793    1.271   .     S
O734   C322    1.271   1_565 S
O735   C559    1.271   1_655 A
O736   C796    1.271   .     A
O737   C797    1.271   .     S
O738   C798    1.271   .     S
O739   C799    1.271   .     A
O740   C800    1.271   .     A
O741   C797    1.271   .     S
O742   C798    1.271   .     A
O743   C799    1.271   .     A
O744   C800    1.271   .     A
O745   C801    1.277   .     A
O746   C802    1.277   .     A
O747   C803    1.277   .     A
O748   C804    1.277   .     A
O749   C805    1.277   .     A
O750   C806    1.277   .     A
O751   C807    1.277   .     A
O752   C808    1.277   .     A
O753   C809    1.277   .     A
O754   C810    1.277   .     A
O755   C811    1.277   .     A
O756   C812    1.277   .     A
O757   C813    1.277   .     A
O758   C814    1.277   .     A
O759   C815    1.277   .     A
O760   C816    1.277   .     A
O761   C811    1.277   .     A
O761   Zn476   1.915   1_655 S
O762   C812    1.277   .     A
O763   Zn242   1.915   1_565 S
O763   C809    1.277   .     A
O764   C810    1.277   .     A
O765   C815    1.277   .     A
O766   C816    1.277   .     A
O766   Zn479   1.915   1_655 S
O767   C813    1.277   .     A
O768   Zn237   1.915   1_565 S
O768   C814    1.277   .     A
O769   C803    1.277   .     A
O769   Zn475   1.915   1_655 S
O770   C804    1.277   .     A
O771   C801    1.277   .     A
O772   Zn238   1.915   1_565 S
O772   C802    1.277   .     A
O773   C807    1.277   .     A
O774   C808    1.277   .     A
O774   Zn480   1.915   1_655 S
O775   Zn241   1.915   1_565 S
O775   C805    1.277   .     A
O776   C806    1.277   .     A
H777   C881    1.082   .     S
H778   C882    1.082   .     S
H779   C883    1.082   .     S
H780   C884    1.082   .     S
H781   C885    1.082   .     S
H782   C886    1.082   .     S
H783   C887    1.082   .     S
H784   C888    1.082   .     S
H785   C889    1.082   .     S
H786   C890    1.082   .     S
H787   C891    1.082   .     S
H788   C892    1.082   .     S
H789   C893    1.082   .     S
H790   C894    1.082   .     S
H791   C895    1.082   .     S
H792   C896    1.082   .     S
C793   C851    1.464   .     S
C794   C852    1.464   .     S
C795   C849    1.464   .     S
C796   C850    1.464   .     S
C797   C855    1.464   .     S
C798   C856    1.464   .     S
C799   C853    1.464   .     S
C800   C854    1.464   .     S
C801   C830    1.422   .     S
C802   C829    1.422   .     S
C803   C828    1.422   .     S
C804   C827    1.422   .     S
C805   C826    1.422   .     S
C806   C825    1.422   .     S
C807   C832    1.422   .     S
C808   C831    1.422   .     S
C809   C822    1.422   .     S
C810   C821    1.422   .     S
C811   C820    1.422   .     S
C812   C819    1.422   .     S
C813   C818    1.422   .     S
C814   C817    1.422   .     S
C815   C824    1.422   .     S
C816   C823    1.422   .     S
C817   C832    1.198   .     T
C818   C831    1.198   .     T
C819   C830    1.198   .     T
C820   C829    1.198   .     T
C821   C828    1.198   .     T
C822   C827    1.198   .     T
C823   C826    1.198   .     T
C824   C825    1.198   .     T
C833   C861    1.407   .     A
C833   N897    1.437   .     S
C833   C849    1.410   .     S
C834   N900    1.437   .     S
C834   C862    1.407   .     A
C834   C614    1.410   1_655 S
C835   N903    1.437   .     S
C835   C863    1.407   .     A
C835   C851    1.409   .     S
C836   N906    1.437   .     S
C836   C864    1.407   .     A
C836   C380    1.409   1_565 A
C837   C613    1.410   1_655 A
C837   C857    1.407   .     A
C837   N909    1.437   .     S
C838   C858    1.407   .     A
C838   N912    1.437   .     S
C838   C850    1.410   .     A
C839   C859    1.407   .     A
C839   N915    1.437   .     S
C839   C379    1.409   1_565 A
C840   N918    1.437   .     S
C840   C860    1.407   .     A
C840   C852    1.409   .     S
C841   C853    1.410   .     A
C841   C869    1.407   .     A
C841   N921    1.437   .     S
C842   N924    1.437   .     S
C842   C870    1.407   .     A
C842   C382    1.410   1_565 S
C843   N927    1.437   .     S
C843   C619    1.410   1_655 A
C843   C871    1.407   .     A
C844   N930    1.437   .     S
C844   C872    1.407   .     A
C844   C856    1.410   .     S
C845   N933    1.437   .     S
C845   C865    1.407   .     A
C845   C381    1.410   1_565 S
C846   N936    1.437   .     S
C846   C866    1.407   .     A
C846   C854    1.410   .     A
C847   C867    1.407   .     A
C847   N939    1.437   .     S
C847   C855    1.410   .     S
C848   N942    1.437   .     S
C848   C620    1.410   1_655 A
C848   C868    1.407   .     A
C857   C637    1.415   1_655 A
C857   C881    1.404   .     A
C858   C882    1.404   .     A
C858   C874    1.415   .     S
C859   C403    1.415   1_565 A
C859   C883    1.404   .     A
C860   C884    1.404   .     A
C860   C876    1.415   .     S
C861   C885    1.404   .     A
C861   C873    1.415   .     S
C862   C886    1.404   .     A
C862   C638    1.415   1_655 A
C863   C887    1.404   .     A
C863   C875    1.415   .     S
C864   C404    1.415   1_565 A
C864   C888    1.404   .     A
C865   C889    1.404   .     A
C865   C405    1.415   1_565 S
C866   C878    1.415   .     A
C866   C890    1.404   .     A
C867   C891    1.404   .     A
C867   C879    1.415   .     S
C868   C644    1.415   1_655 A
C868   C892    1.404   .     A
C869   C893    1.404   .     A
C869   C877    1.415   .     A
C870   C894    1.404   .     A
C870   C406    1.415   1_565 S
C871   C895    1.404   .     A
C871   C643    1.415   1_655 A
C872   C896    1.404   .     A
C872   C880    1.415   .     S
C873   C874    1.415   .     A
C875   C876    1.415   .     A
C877   C878    1.415   1_556 S
C878   C877    1.415   1_554 S
C879   C880    1.415   1_556 S
C880   C879    1.415   1_554 S
C881   C886    1.388   .     A
C882   C885    1.388   .     A
C883   C888    1.388   .     A
C884   C887    1.388   .     A
C889   C894    1.388   1_556 S
C890   C893    1.388   1_554 S
C891   C896    1.388   1_556 S
C892   C895    1.388   1_554 S
C893   C890    1.388   1_556 S
C894   C889    1.388   1_554 S
C895   C892    1.388   1_556 S
C896   C891    1.388   1_554 S
N897   O899    1.301   .     A
N897   O898    1.301   .     A
N900   O902    1.301   .     A
N900   O901    1.301   .     A
N903   O904    1.301   .     A
N903   O905    1.301   .     A
N906   O907    1.301   .     A
N906   O908    1.301   .     A
N909   O910    1.301   .     A
N909   O911    1.301   .     A
N912   O914    1.301   .     A
N912   O913    1.301   .     A
N915   O916    1.301   .     A
N915   O917    1.301   .     A
N918   O920    1.301   .     A
N918   O919    1.301   .     A
N921   O922    1.301   .     A
N921   O923    1.301   .     A
N924   O925    1.301   .     A
N924   O926    1.301   .     A
N927   O929    1.301   .     A
N927   O928    1.301   .     A
N930   O932    1.301   .     A
N930   O931    1.301   .     A
N933   O934    1.301   .     A
N933   O935    1.301   .     A
N936   O938    1.301   .     A
N936   O937    1.301   .     A
N939   O941    1.301   .     A
N939   O940    1.301   .     A
N942   O944    1.301   .     A
N942   O943    1.301   .     A
