data_str_m1_o1_o17_pcu_sym.9
_audit_creation_date              2020-01-03
_audit_creation_method            'Materials Studio'
_symmetry_space_group_name_H-M    'P1'
_symmetry_Int_Tables_number       1
_symmetry_cell_setting            triclinic
loop_
_symmetry_equiv_pos_as_xyz
  x,y,z
_cell_length_a                    36.7929
_cell_length_b                    36.6153
_cell_length_c                    34.3813
_cell_angle_alpha                 90.1397
_cell_angle_beta                  89.7536
_cell_angle_gamma                 89.8243
loop_
_atom_site_label
_atom_site_type_symbol
_atom_site_fract_x
_atom_site_fract_y
_atom_site_fract_z
_atom_site_U_iso_or_equiv
_atom_site_adp_type
_atom_site_occupancy
Zn1    Zn    0.20660  -0.00000   0.21735   0.00000  Uiso   1.00
Zn2    Zn    0.29341  -0.00000   0.78265   0.00000  Uiso   1.00
Zn3    Zn    0.00000   0.20659   0.21735   0.00000  Uiso   1.00
Zn4    Zn    0.00000   0.29340   0.78265   0.00000  Uiso   1.00
Zn5    Zn    0.29341  -0.00000   0.21735   0.00000  Uiso   1.00
Zn6    Zn    0.20660  -0.00000   0.78265   0.00000  Uiso   1.00
Zn7    Zn    0.00000   0.29340   0.21735   0.00000  Uiso   1.00
Zn8    Zn    0.00000   0.20659   0.78265   0.00000  Uiso   1.00
Zn9    Zn    0.45660   0.25000   0.71735   0.00000  Uiso   1.00
Zn10   Zn    0.04341   0.25000   0.28265   0.00000  Uiso   1.00
Zn11   Zn    0.25000   0.45660   0.71735   0.00000  Uiso   1.00
Zn12   Zn    0.25000   0.04340   0.28265   0.00000  Uiso   1.00
Zn13   Zn    0.04341   0.25000   0.71735   0.00000  Uiso   1.00
Zn14   Zn    0.45660   0.25000   0.28265   0.00000  Uiso   1.00
Zn15   Zn    0.25000   0.04340   0.71735   0.00000  Uiso   1.00
Zn16   Zn    0.25000   0.45660   0.28265   0.00000  Uiso   1.00
C17    C     0.01206   0.28074   0.41877   0.00000  Uiso   1.00
C18    C     0.00535   0.21677   0.58181   0.00000  Uiso   1.00
C19    C     0.21671   0.49882   0.41804   0.00000  Uiso   1.00
C20    C     0.28051   0.48624   0.58117   0.00000  Uiso   1.00
C21    C     0.48784   0.21872   0.41862   0.00000  Uiso   1.00
C22    C     0.49499   0.28275   0.58194   0.00000  Uiso   1.00
C23    C     0.28307   0.00228   0.41793   0.00000  Uiso   1.00
C24    C     0.21958   0.01297   0.58144   0.00000  Uiso   1.00
C25    C     0.26194   0.03103   0.91875   0.00000  Uiso   1.00
C26    C     0.25625   0.46749   0.08173   0.00000  Uiso   1.00
C27    C     0.46888   0.23780   0.91867   0.00000  Uiso   1.00
C28    C     0.03241   0.24523   0.08143   0.00000  Uiso   1.00
C29    C     0.23790   0.46898   0.91884   0.00000  Uiso   1.00
C30    C     0.24470   0.03324   0.08201   0.00000  Uiso   1.00
C31    C     0.03038   0.26289   0.91854   0.00000  Uiso   1.00
C32    C     0.46674   0.25479   0.08197   0.00000  Uiso   1.00
C33    C     0.49984   0.24981   0.39834   0.00000  Uiso   1.00
C34    C     0.00018   0.24980   0.60201   0.00000  Uiso   1.00
C35    C     0.24996   0.00027   0.39795   0.00000  Uiso   1.00
C36    C     0.25009   0.49978   0.60163   0.00000  Uiso   1.00
C37    C     0.24987   0.49999   0.89842   0.00000  Uiso   1.00
C38    C     0.25033   0.00030   0.10202   0.00000  Uiso   1.00
C39    C     0.49973   0.25020   0.89830   0.00000  Uiso   1.00
C40    C     0.49964   0.24992   0.10187   0.00000  Uiso   1.00
O41    O     0.25000  -0.00000   0.25000   0.00000  Uiso   1.00
O42    O     0.25000  -0.00000   0.75000   0.00000  Uiso   1.00
O43    O     0.00000   0.25000   0.25000   0.00000  Uiso   1.00
O44    O     0.00000   0.25000   0.75000   0.00000  Uiso   1.00
O45    O     0.25000   0.46964   0.33755   0.00000  Uiso   1.00
O46    O     0.25000   0.03036   0.66245   0.00000  Uiso   1.00
O47    O     0.03037   0.25000   0.33755   0.00000  Uiso   1.00
O48    O     0.46964   0.25000   0.66245   0.00000  Uiso   1.00
O49    O     0.25000   0.03036   0.33755   0.00000  Uiso   1.00
O50    O     0.25000   0.46964   0.66245   0.00000  Uiso   1.00
O51    O     0.46964   0.25000   0.33755   0.00000  Uiso   1.00
O52    O     0.03037   0.25000   0.66245   0.00000  Uiso   1.00
O53    O     0.00000   0.21963   0.83755   0.00000  Uiso   1.00
O54    O     0.00000   0.28036   0.16245   0.00000  Uiso   1.00
O55    O     0.28037  -0.00000   0.83755   0.00000  Uiso   1.00
O56    O     0.21964  -0.00000   0.16245   0.00000  Uiso   1.00
O57    O     0.00000   0.28036   0.83755   0.00000  Uiso   1.00
O58    O     0.00000   0.21963   0.16245   0.00000  Uiso   1.00
O59    O     0.21964  -0.00000   0.83755   0.00000  Uiso   1.00
O60    O     0.28037  -0.00000   0.16245   0.00000  Uiso   1.00
O61    O     0.20725   0.07307   0.27302   0.00000  Uiso   1.00
O62    O     0.29276   0.42692   0.72698   0.00000  Uiso   1.00
O63    O     0.42693   0.20724   0.27302   0.00000  Uiso   1.00
O64    O     0.07308   0.29276   0.72698   0.00000  Uiso   1.00
O65    O     0.29276   0.42692   0.27302   0.00000  Uiso   1.00
O66    O     0.20725   0.07307   0.72698   0.00000  Uiso   1.00
O67    O     0.07308   0.29276   0.27302   0.00000  Uiso   1.00
O68    O     0.42693   0.20724   0.72698   0.00000  Uiso   1.00
O69    O     0.20725   0.42693   0.72698   0.00000  Uiso   1.00
O70    O     0.29276   0.07307   0.27302   0.00000  Uiso   1.00
O71    O     0.42693   0.29275   0.72698   0.00000  Uiso   1.00
O72    O     0.07308   0.20725   0.27302   0.00000  Uiso   1.00
O73    O     0.29276   0.07307   0.72698   0.00000  Uiso   1.00
O74    O     0.20725   0.42693   0.27302   0.00000  Uiso   1.00
O75    O     0.07308   0.20725   0.72698   0.00000  Uiso   1.00
O76    O     0.42693   0.29275   0.27302   0.00000  Uiso   1.00
O77    O     0.45725   0.32307   0.77302   0.00000  Uiso   1.00
O78    O     0.04276   0.17693   0.22698   0.00000  Uiso   1.00
O79    O     0.17693   0.45725   0.77302   0.00000  Uiso   1.00
O80    O     0.32308   0.04275   0.22698   0.00000  Uiso   1.00
O81    O     0.04276   0.17693   0.77302   0.00000  Uiso   1.00
O82    O     0.45725   0.32307   0.22698   0.00000  Uiso   1.00
O83    O     0.32308   0.04275   0.77302   0.00000  Uiso   1.00
O84    O     0.17693   0.45725   0.22698   0.00000  Uiso   1.00
O85    O     0.45725   0.17692   0.22698   0.00000  Uiso   1.00
O86    O     0.04276   0.32308   0.77302   0.00000  Uiso   1.00
O87    O     0.17693   0.04275   0.22698   0.00000  Uiso   1.00
O88    O     0.32308   0.45724   0.77302   0.00000  Uiso   1.00
O89    O     0.04276   0.32308   0.22698   0.00000  Uiso   1.00
O90    O     0.45725   0.17692   0.77302   0.00000  Uiso   1.00
O91    O     0.32308   0.45724   0.22698   0.00000  Uiso   1.00
O92    O     0.17693   0.04275   0.77302   0.00000  Uiso   1.00
C93    C     0.49499   0.18303   0.47960   0.00000  Uiso   1.00
C94    C     0.00821   0.31615   0.52068   0.00000  Uiso   1.00
C95    C     0.31543   0.48718   0.47907   0.00000  Uiso   1.00
C96    C     0.18401   0.00823   0.52052   0.00000  Uiso   1.00
C97    C     0.00524   0.31639   0.47996   0.00000  Uiso   1.00
C98    C     0.49230   0.18321   0.52040   0.00000  Uiso   1.00
C99    C     0.18445   0.01265   0.48003   0.00000  Uiso   1.00
C100   C     0.31599   0.49076   0.51972   0.00000  Uiso   1.00
C101   C     0.24514   0.43342   0.97988   0.00000  Uiso   1.00
C102   C     0.25747   0.06680   0.02059   0.00000  Uiso   1.00
C103   C     0.06587   0.25656   0.97951   0.00000  Uiso   1.00
C104   C     0.43351   0.24142   0.02074   0.00000  Uiso   1.00
C105   C     0.25471   0.06687   0.97983   0.00000  Uiso   1.00
C106   C     0.24280   0.43372   0.02071   0.00000  Uiso   1.00
C107   C     0.43326   0.24432   0.97998   0.00000  Uiso   1.00
C108   C     0.06553   0.25938   0.02026   0.00000  Uiso   1.00
C109   C     0.25014   0.00007   0.35568   0.00000  Uiso   1.00
C110   C     0.25007   0.49994   0.64415   0.00000  Uiso   1.00
C111   C     0.49994   0.24989   0.35581   0.00000  Uiso   1.00
C112   C     0.00007   0.24990   0.64433   0.00000  Uiso   1.00
C113   C     0.49991   0.25005   0.85583   0.00000  Uiso   1.00
C114   C     0.49986   0.24996   0.14425   0.00000  Uiso   1.00
C115   C     0.24994   0.49993   0.85583   0.00000  Uiso   1.00
C116   C     0.25009   0.00012   0.14433   0.00000  Uiso   1.00
C117   C     0.18020   0.07002   0.25010   0.00000  Uiso   1.00
C118   C     0.31926   0.42928   0.75060   0.00000  Uiso   1.00
C119   C     0.42997   0.17999   0.24988   0.00000  Uiso   1.00
C120   C     0.06956   0.32056   0.74836   0.00000  Uiso   1.00
C121   C     0.32017   0.43024   0.25026   0.00000  Uiso   1.00
C122   C     0.17996   0.07000   0.74991   0.00000  Uiso   1.00
C123   C     0.07007   0.31990   0.24984   0.00000  Uiso   1.00
C124   C     0.42987   0.18028   0.75034   0.00000  Uiso   1.00
C125   C     0.18062   0.42906   0.75123   0.00000  Uiso   1.00
C126   C     0.32018   0.06980   0.25038   0.00000  Uiso   1.00
C127   C     0.43070   0.32057   0.74949   0.00000  Uiso   1.00
C128   C     0.06989   0.17986   0.24990   0.00000  Uiso   1.00
C129   C     0.32003   0.07001   0.74991   0.00000  Uiso   1.00
C130   C     0.18017   0.42990   0.24987   0.00000  Uiso   1.00
C131   C     0.06968   0.17984   0.74975   0.00000  Uiso   1.00
C132   C     0.43008   0.32001   0.24995   0.00000  Uiso   1.00
C133   C     0.14649   0.38096   0.21516   0.00000  Uiso   1.00
C134   C     0.36974   0.10357   0.71640   0.00000  Uiso   1.00
C135   C     0.09016   0.11670   0.26539   0.00000  Uiso   1.00
C136   C     0.41057   0.38462   0.73872   0.00000  Uiso   1.00
C137   C     0.36968   0.10301   0.28438   0.00000  Uiso   1.00
C138   C     0.11799   0.40682   0.76819   0.00000  Uiso   1.00
C139   C     0.41076   0.38367   0.26420   0.00000  Uiso   1.00
C140   C     0.08997   0.11719   0.73355   0.00000  Uiso   1.00
C141   C     0.11694   0.08963   0.73468   0.00000  Uiso   1.00
C142   C     0.38378   0.41133   0.26303   0.00000  Uiso   1.00
C143   C     0.08937   0.38434   0.75692   0.00000  Uiso   1.00
C144   C     0.39742   0.12985   0.28408   0.00000  Uiso   1.00
C145   C     0.38206   0.41018   0.73531   0.00000  Uiso   1.00
C146   C     0.11856   0.09078   0.26862   0.00000  Uiso   1.00
C147   C     0.39716   0.13055   0.71677   0.00000  Uiso   1.00
C148   C     0.11941   0.35339   0.21520   0.00000  Uiso   1.00
C149   C     0.37939   0.14802   0.78403   0.00000  Uiso   1.00
C150   C     0.10480   0.36811   0.28407   0.00000  Uiso   1.00
C151   C     0.33919   0.36480   0.76147   0.00000  Uiso   1.00
C152   C     0.15959   0.13207   0.23235   0.00000  Uiso   1.00
C153   C     0.13147   0.34175   0.72562   0.00000  Uiso   1.00
C154   C     0.38055   0.14640   0.21652   0.00000  Uiso   1.00
C155   C     0.15971   0.13336   0.76491   0.00000  Uiso   1.00
C156   C     0.33985   0.36681   0.23639   0.00000  Uiso   1.00
C157   C     0.36767   0.34029   0.23423   0.00000  Uiso   1.00
C158   C     0.13153   0.15964   0.76747   0.00000  Uiso   1.00
C159   C     0.35346   0.11911   0.21659   0.00000  Uiso   1.00
C160   C     0.16019   0.36632   0.73237   0.00000  Uiso   1.00
C161   C     0.13243   0.15948   0.23288   0.00000  Uiso   1.00
C162   C     0.36754   0.33878   0.76377   0.00000  Uiso   1.00
C163   C     0.13217   0.39509   0.28414   0.00000  Uiso   1.00
C164   C     0.35286   0.12001   0.78412   0.00000  Uiso   1.00
C165   C     0.49469   0.21658   0.45907   0.00000  Uiso   1.00
C166   C     0.00166   0.28332   0.54138   0.00000  Uiso   1.00
C167   C     0.28319   0.49581   0.45845   0.00000  Uiso   1.00
C168   C     0.21730   0.00641   0.54098   0.00000  Uiso   1.00
C169   C     0.00526   0.28285   0.45924   0.00000  Uiso   1.00
C170   C     0.49869   0.21608   0.54126   0.00000  Uiso   1.00
C171   C     0.21664   0.00445   0.45881   0.00000  Uiso   1.00
C172   C     0.28274   0.49262   0.54062   0.00000  Uiso   1.00
C173   C     0.24481   0.46695   0.95926   0.00000  Uiso   1.00
C174   C     0.25132   0.03393   0.04139   0.00000  Uiso   1.00
C175   C     0.03250   0.25615   0.95897   0.00000  Uiso   1.00
C176   C     0.46612   0.24828   0.04137   0.00000  Uiso   1.00
C177   C     0.25507   0.03326   0.95922   0.00000  Uiso   1.00
C178   C     0.24920   0.46668   0.04133   0.00000  Uiso   1.00
C179   C     0.46665   0.24463   0.95917   0.00000  Uiso   1.00
C180   C     0.03293   0.25226   0.04102   0.00000  Uiso   1.00
C181   C     0.09846   0.34779   0.24953   0.00000  Uiso   1.00
C182   C     0.40165   0.15238   0.75051   0.00000  Uiso   1.00
C183   C     0.15235   0.09827   0.25059   0.00000  Uiso   1.00
C184   C     0.34728   0.40095   0.74941   0.00000  Uiso   1.00
C185   C     0.40219   0.15150   0.25019   0.00000  Uiso   1.00
C186   C     0.09724   0.34905   0.74375   0.00000  Uiso   1.00
C187   C     0.34838   0.40221   0.25011   0.00000  Uiso   1.00
C188   C     0.15173   0.09821   0.74976   0.00000  Uiso   1.00
C189   C     0.09761   0.15169   0.75021   0.00000  Uiso   1.00
C190   C     0.40221   0.34839   0.24991   0.00000  Uiso   1.00
C191   C     0.15308   0.39988   0.75211   0.00000  Uiso   1.00
C192   C     0.34833   0.09783   0.25050   0.00000  Uiso   1.00
C193   C     0.40261   0.34863   0.75093   0.00000  Uiso   1.00
C194   C     0.09797   0.15150   0.24939   0.00000  Uiso   1.00
C195   C     0.34797   0.09848   0.75011   0.00000  Uiso   1.00
C196   C     0.15238   0.40149   0.24968   0.00000  Uiso   1.00
C197   C     0.49999   0.24971   0.47975   0.00000  Uiso   1.00
C198   C     0.00010   0.24970   0.52076   0.00000  Uiso   1.00
C199   C     0.24993   0.49988   0.47918   0.00000  Uiso   1.00
C200   C     0.25000   0.49961   0.52021   0.00000  Uiso   1.00
C201   C     0.25000   0.00016   0.97983   0.00000  Uiso   1.00
C202   C     0.25014   0.00026   0.02080   0.00000  Uiso   1.00
C203   C     0.49955   0.25038   0.97964   0.00000  Uiso   1.00
C204   C     0.49953   0.25033   0.02062   0.00000  Uiso   1.00
C205   C     0.00402   0.14704   0.45972   0.00000  Uiso   1.00
H206   H     0.01642   0.15103   0.43061   0.00000  Uiso   1.00
H207   H     0.02480   0.13207   0.47683   0.00000  Uiso   1.00
H208   H     0.47949   0.12962   0.45738   0.00000  Uiso   1.00
C209   C     0.02401   0.34975   0.54014   0.00000  Uiso   1.00
H210   H     0.03606   0.34341   0.56884   0.00000  Uiso   1.00
H211   H     0.04686   0.36053   0.52239   0.00000  Uiso   1.00
H212   H     0.00314   0.37153   0.54311   0.00000  Uiso   1.00
C213   C     0.34779   0.46876   0.45970   0.00000  Uiso   1.00
H214   H     0.34066   0.45657   0.43122   0.00000  Uiso   1.00
H215   H     0.37068   0.48818   0.45634   0.00000  Uiso   1.00
H216   H     0.35719   0.44548   0.47774   0.00000  Uiso   1.00
C217   C     0.14785   0.49956   0.53977   0.00000  Uiso   1.00
H218   H     0.13254   0.47990   0.52147   0.00000  Uiso   1.00
H219   H     0.15138   0.48587   0.56823   0.00000  Uiso   1.00
H220   H     0.13109   0.02460   0.54332   0.00000  Uiso   1.00
C221   C     0.49631   0.35245   0.46045   0.00000  Uiso   1.00
H222   H     0.48411   0.34859   0.43131   0.00000  Uiso   1.00
H223   H     0.47544   0.36733   0.47780   0.00000  Uiso   1.00
H224   H     0.02084   0.36989   0.45823   0.00000  Uiso   1.00
C225   C     0.47699   0.14938   0.53984   0.00000  Uiso   1.00
H226   H     0.46497   0.15555   0.56868   0.00000  Uiso   1.00
H227   H     0.45423   0.13831   0.52232   0.00000  Uiso   1.00
H228   H     0.49816   0.12788   0.54244   0.00000  Uiso   1.00
C229   C     0.15208   0.03167   0.46174   0.00000  Uiso   1.00
H230   H     0.15962   0.04583   0.43445   0.00000  Uiso   1.00
H231   H     0.12958   0.01214   0.45669   0.00000  Uiso   1.00
H232   H     0.14192   0.05365   0.48132   0.00000  Uiso   1.00
C233   C     0.35231   0.49847   0.53880   0.00000  Uiso   1.00
H234   H     0.34912   0.01148   0.56776   0.00000  Uiso   1.00
H235   H     0.36873   0.47311   0.54124   0.00000  Uiso   1.00
H236   H     0.36782   0.01840   0.52101   0.00000  Uiso   1.00
C237   C     0.25374   0.39734   0.96001   0.00000  Uiso   1.00
H238   H     0.26577   0.40117   0.93069   0.00000  Uiso   1.00
H239   H     0.27467   0.38231   0.97686   0.00000  Uiso   1.00
H240   H     0.22909   0.38005   0.95810   0.00000  Uiso   1.00
C241   C     0.27264   0.10073   0.04001   0.00000  Uiso   1.00
H242   H     0.28468   0.09468   0.06875   0.00000  Uiso   1.00
H243   H     0.29538   0.11184   0.02233   0.00000  Uiso   1.00
H244   H     0.25139   0.12215   0.04283   0.00000  Uiso   1.00
C245   C     0.10191   0.24810   0.95975   0.00000  Uiso   1.00
H246   H     0.11704   0.22740   0.97690   0.00000  Uiso   1.00
H247   H     0.09829   0.23568   0.93061   0.00000  Uiso   1.00
H248   H     0.11887   0.27303   0.95756   0.00000  Uiso   1.00
C249   C     0.40015   0.22541   0.04036   0.00000  Uiso   1.00
H250   H     0.38947   0.20242   0.02268   0.00000  Uiso   1.00
H251   H     0.40653   0.21333   0.06906   0.00000  Uiso   1.00
H252   H     0.37841   0.24631   0.04339   0.00000  Uiso   1.00
C253   C     0.24561   0.10279   0.96010   0.00000  Uiso   1.00
H254   H     0.23352   0.09872   0.93094   0.00000  Uiso   1.00
H255   H     0.22459   0.11762   0.97728   0.00000  Uiso   1.00
H256   H     0.27004   0.12037   0.95786   0.00000  Uiso   1.00
C257   C     0.22789   0.39992   0.04060   0.00000  Uiso   1.00
H258   H     0.21637   0.40612   0.06972   0.00000  Uiso   1.00
H259   H     0.20485   0.38875   0.02357   0.00000  Uiso   1.00
H260   H     0.24915   0.37847   0.04286   0.00000  Uiso   1.00
C261   C     0.39729   0.25297   0.96054   0.00000  Uiso   1.00
H262   H     0.40103   0.26555   0.93152   0.00000  Uiso   1.00
H263   H     0.38028   0.22810   0.95813   0.00000  Uiso   1.00
H264   H     0.38215   0.27359   0.97801   0.00000  Uiso   1.00
C265   C     0.09878   0.27546   0.03982   0.00000  Uiso   1.00
H266   H     0.09238   0.28697   0.06891   0.00000  Uiso   1.00
H267   H     0.12076   0.25477   0.04210   0.00000  Uiso   1.00
H268   H     0.10912   0.29884   0.02253   0.00000  Uiso   1.00
C269   C     0.16948   0.38883   0.17870   0.00000  Uiso   1.00
C270   C     0.20941   0.37804   0.18383   0.00000  Uiso   1.00
H271   H     0.22474   0.40010   0.19847   0.00000  Uiso   1.00
H272   H     0.21185   0.35256   0.20099   0.00000  Uiso   1.00
H273   H     0.22218   0.37330   0.15494   0.00000  Uiso   1.00
H274   H     0.15978   0.37476   0.15238   0.00000  Uiso   1.00
H275   H     0.16751   0.41810   0.17079   0.00000  Uiso   1.00
C276   C     0.36532   0.07814   0.68136   0.00000  Uiso   1.00
C277   C     0.38578   0.04239   0.68754   0.00000  Uiso   1.00
H278   H     0.37607   0.02875   0.71436   0.00000  Uiso   1.00
H279   H     0.38110   0.02408   0.66232   0.00000  Uiso   1.00
H280   H     0.41540   0.04744   0.69020   0.00000  Uiso   1.00
H281   H     0.33640   0.07228   0.67541   0.00000  Uiso   1.00
H282   H     0.37477   0.09041   0.65381   0.00000  Uiso   1.00
C283   C     0.05113   0.10668   0.27633   0.00000  Uiso   1.00
C284   C     0.03107   0.09090   0.24114   0.00000  Uiso   1.00
H285   H     0.00676   0.07556   0.25093   0.00000  Uiso   1.00
H286   H     0.02198   0.11289   0.22134   0.00000  Uiso   1.00
H287   H     0.04876   0.07193   0.22434   0.00000  Uiso   1.00
H288   H     0.04982   0.08668   0.30029   0.00000  Uiso   1.00
H289   H     0.03587   0.13060   0.28784   0.00000  Uiso   1.00
C290   C     0.44954   0.39714   0.73235   0.00000  Uiso   1.00
C291   C     0.46173   0.42054   0.76691   0.00000  Uiso   1.00
H292   H     0.44032   0.44017   0.77618   0.00000  Uiso   1.00
H293   H     0.46830   0.40272   0.79203   0.00000  Uiso   1.00
H294   H     0.48598   0.43671   0.75887   0.00000  Uiso   1.00
H295   H     0.46892   0.37423   0.72859   0.00000  Uiso   1.00
H296   H     0.45216   0.41276   0.70494   0.00000  Uiso   1.00
C297   C     0.36230   0.07971   0.32057   0.00000  Uiso   1.00
C298   C     0.37338   0.03978   0.31463   0.00000  Uiso   1.00
H299   H     0.37857   0.02675   0.34319   0.00000  Uiso   1.00
H300   H     0.35130   0.02439   0.30025   0.00000  Uiso   1.00
H301   H     0.39856   0.03767   0.29688   0.00000  Uiso   1.00
H302   H     0.37626   0.08955   0.34686   0.00000  Uiso   1.00
H303   H     0.33317   0.08141   0.32872   0.00000  Uiso   1.00
C304   C     0.11064   0.43480   0.80035   0.00000  Uiso   1.00
C305   C     0.13136   0.42512   0.83742   0.00000  Uiso   1.00
H306   H     0.16089   0.42187   0.83194   0.00000  Uiso   1.00
H307   H     0.12721   0.44697   0.85947   0.00000  Uiso   1.00
H308   H     0.12094   0.39903   0.84950   0.00000  Uiso   1.00
H309   H     0.11620   0.46306   0.79056   0.00000  Uiso   1.00
H310   H     0.08166   0.43502   0.80937   0.00000  Uiso   1.00
C311   C     0.44881   0.39145   0.27995   0.00000  Uiso   1.00
C312   C     0.47282   0.41004   0.24948   0.00000  Uiso   1.00
H313   H     0.49777   0.42075   0.26330   0.00000  Uiso   1.00
H314   H     0.48078   0.39028   0.22643   0.00000  Uiso   1.00
H315   H     0.45876   0.43324   0.23561   0.00000  Uiso   1.00
H316   H     0.44776   0.40759   0.30718   0.00000  Uiso   1.00
H317   H     0.46273   0.36617   0.28953   0.00000  Uiso   1.00
C318   C     0.05353   0.11064   0.71336   0.00000  Uiso   1.00
C319   C     0.02521   0.09435   0.74100   0.00000  Uiso   1.00
H320   H     0.03518   0.06870   0.75436   0.00000  Uiso   1.00
H321   H     0.01834   0.11379   0.76467   0.00000  Uiso   1.00
H322   H     0.49997   0.08832   0.72462   0.00000  Uiso   1.00
H323   H     0.04240   0.13629   0.70097   0.00000  Uiso   1.00
H324   H     0.05685   0.09275   0.68754   0.00000  Uiso   1.00
C325   C     0.10967   0.05167   0.71785   0.00000  Uiso   1.00
C326   C     0.12440   0.04840   0.67649   0.00000  Uiso   1.00
H327   H     0.11117   0.06868   0.65717   0.00000  Uiso   1.00
H328   H     0.15413   0.05311   0.67613   0.00000  Uiso   1.00
H329   H     0.11892   0.02057   0.66505   0.00000  Uiso   1.00
H330   H     0.12182   0.03004   0.73619   0.00000  Uiso   1.00
H331   H     0.08048   0.04467   0.71765   0.00000  Uiso   1.00
C332   C     0.39175   0.45056   0.27603   0.00000  Uiso   1.00
C333   C     0.39998   0.47586   0.24153   0.00000  Uiso   1.00
H334   H     0.40178   0.46058   0.21361   0.00000  Uiso   1.00
H335   H     0.37856   0.49701   0.23873   0.00000  Uiso   1.00
H336   H     0.42613   0.49026   0.24621   0.00000  Uiso   1.00
H337   H     0.36836   0.46143   0.29300   0.00000  Uiso   1.00
H338   H     0.41431   0.45259   0.29693   0.00000  Uiso   1.00
C339   C     0.05212   0.40089   0.74935   0.00000  Uiso   1.00
C340   C     0.04225   0.39788   0.70617   0.00000  Uiso   1.00
H341   H     0.06544   0.40674   0.68768   0.00000  Uiso   1.00
H342   H     0.03491   0.36939   0.69846   0.00000  Uiso   1.00
H343   H     0.01880   0.41585   0.69955   0.00000  Uiso   1.00
H344   H     0.03116   0.38779   0.76773   0.00000  Uiso   1.00
H345   H     0.05159   0.43052   0.75607   0.00000  Uiso   1.00
C346   C     0.42247   0.13503   0.31933   0.00000  Uiso   1.00
C347   C     0.45044   0.10431   0.32280   0.00000  Uiso   1.00
H348   H     0.43761   0.07808   0.33066   0.00000  Uiso   1.00
H349   H     0.46527   0.10109   0.29489   0.00000  Uiso   1.00
H350   H     0.47036   0.11117   0.34585   0.00000  Uiso   1.00
H351   H     0.43838   0.16046   0.31819   0.00000  Uiso   1.00
H352   H     0.40663   0.13837   0.34660   0.00000  Uiso   1.00
C353   C     0.38738   0.44487   0.71124   0.00000  Uiso   1.00
C354   C     0.38475   0.43593   0.66789   0.00000  Uiso   1.00
H355   H     0.40502   0.41487   0.65930   0.00000  Uiso   1.00
H356   H     0.35715   0.42557   0.66108   0.00000  Uiso   1.00
H357   H     0.38984   0.46080   0.65038   0.00000  Uiso   1.00
H358   H     0.36675   0.46602   0.71775   0.00000  Uiso   1.00
H359   H     0.41357   0.45847   0.71748   0.00000  Uiso   1.00
C360   C     0.11435   0.05630   0.29342   0.00000  Uiso   1.00
C361   C     0.09689   0.02466   0.27132   0.00000  Uiso   1.00
H362   H     0.10830   0.02227   0.24148   0.00000  Uiso   1.00
H363   H     0.10223   0.49869   0.28697   0.00000  Uiso   1.00
H364   H     0.06705   0.02826   0.26973   0.00000  Uiso   1.00
H365   H     0.14110   0.04683   0.30434   0.00000  Uiso   1.00
H366   H     0.09913   0.06213   0.32064   0.00000  Uiso   1.00
C367   C     0.42277   0.13524   0.68187   0.00000  Uiso   1.00
C368   C     0.40648   0.16049   0.65104   0.00000  Uiso   1.00
H369   H     0.38004   0.15011   0.64041   0.00000  Uiso   1.00
H370   H     0.40201   0.18832   0.66289   0.00000  Uiso   1.00
H371   H     0.42545   0.16251   0.62599   0.00000  Uiso   1.00
H372   H     0.44957   0.14628   0.69066   0.00000  Uiso   1.00
H373   H     0.43002   0.10855   0.66866   0.00000  Uiso   1.00
C374   C     0.11340   0.32931   0.17914   0.00000  Uiso   1.00
C375   C     0.14339   0.30074   0.17406   0.00000  Uiso   1.00
H376   H     0.17041   0.31336   0.17031   0.00000  Uiso   1.00
H377   H     0.14407   0.28239   0.19971   0.00000  Uiso   1.00
H378   H     0.13781   0.28423   0.14765   0.00000  Uiso   1.00
H379   H     0.08775   0.31385   0.17989   0.00000  Uiso   1.00
H380   H     0.11023   0.34613   0.15261   0.00000  Uiso   1.00
C381   C     0.38376   0.17363   0.81926   0.00000  Uiso   1.00
C382   C     0.35069   0.19852   0.82596   0.00000  Uiso   1.00
H383   H     0.35962   0.22555   0.83708   0.00000  Uiso   1.00
H384   H     0.33538   0.20286   0.79863   0.00000  Uiso   1.00
H385   H     0.33210   0.18687   0.84811   0.00000  Uiso   1.00
H386   H     0.38990   0.15765   0.84583   0.00000  Uiso   1.00
H387   H     0.40735   0.19204   0.81648   0.00000  Uiso   1.00
C388   C     0.08069   0.36238   0.32007   0.00000  Uiso   1.00
C389   C     0.04454   0.38229   0.31580   0.00000  Uiso   1.00
H390   H     0.02853   0.36961   0.29217   0.00000  Uiso   1.00
H391   H     0.02871   0.38049   0.34326   0.00000  Uiso   1.00
H392   H     0.04918   0.41158   0.30915   0.00000  Uiso   1.00
H393   H     0.07582   0.33314   0.32576   0.00000  Uiso   1.00
H394   H     0.09336   0.37149   0.34746   0.00000  Uiso   1.00
C395   C     0.29997   0.35232   0.76483   0.00000  Uiso   1.00
C396   C     0.28784   0.33684   0.72566   0.00000  Uiso   1.00
H397   H     0.26453   0.31822   0.72989   0.00000  Uiso   1.00
H398   H     0.28043   0.35944   0.70587   0.00000  Uiso   1.00
H399   H     0.30967   0.32106   0.71100   0.00000  Uiso   1.00
H400   H     0.29608   0.33151   0.78768   0.00000  Uiso   1.00
H401   H     0.28144   0.37478   0.77382   0.00000  Uiso   1.00
C402   C     0.19606   0.13821   0.21177   0.00000  Uiso   1.00
C403   C     0.22387   0.15595   0.23875   0.00000  Uiso   1.00
H404   H     0.21372   0.18244   0.25019   0.00000  Uiso   1.00
H405   H     0.23000   0.13791   0.26373   0.00000  Uiso   1.00
H406   H     0.24953   0.16083   0.22246   0.00000  Uiso   1.00
H407   H     0.20764   0.11223   0.20046   0.00000  Uiso   1.00
H408   H     0.19285   0.15498   0.18522   0.00000  Uiso   1.00
C409   C     0.13669   0.31041   0.69604   0.00000  Uiso   1.00
C410   C     0.11459   0.31703   0.65898   0.00000  Uiso   1.00
H411   H     0.11657   0.29273   0.63970   0.00000  Uiso   1.00
H412   H     0.08548   0.32248   0.66516   0.00000  Uiso   1.00
H413   H     0.12560   0.34097   0.64311   0.00000  Uiso   1.00
H414   H     0.16479   0.30656   0.68573   0.00000  Uiso   1.00
H415   H     0.13117   0.28342   0.70909   0.00000  Uiso   1.00
C416   C     0.38448   0.17225   0.18187   0.00000  Uiso   1.00
C417   C     0.36194   0.20673   0.18826   0.00000  Uiso   1.00
H418   H     0.37109   0.22107   0.21488   0.00000  Uiso   1.00
H419   H     0.36527   0.22503   0.16288   0.00000  Uiso   1.00
H420   H     0.33269   0.20000   0.19151   0.00000  Uiso   1.00
H421   H     0.41310   0.17992   0.17645   0.00000  Uiso   1.00
H422   H     0.37643   0.15955   0.15403   0.00000  Uiso   1.00
C423   C     0.19837   0.14264   0.77762   0.00000  Uiso   1.00
C424   C     0.22099   0.15735   0.74359   0.00000  Uiso   1.00
H425   H     0.23180   0.13486   0.72532   0.00000  Uiso   1.00
H426   H     0.20459   0.17563   0.72480   0.00000  Uiso   1.00
H427   H     0.24444   0.17308   0.75484   0.00000  Uiso   1.00
H428   H     0.19896   0.16283   0.80151   0.00000  Uiso   1.00
H429   H     0.21204   0.11847   0.79031   0.00000  Uiso   1.00
C430   C     0.30100   0.35731   0.22443   0.00000  Uiso   1.00
C431   C     0.28109   0.33798   0.25758   0.00000  Uiso   1.00
H432   H     0.29592   0.31295   0.26652   0.00000  Uiso   1.00
H433   H     0.27849   0.35638   0.28315   0.00000  Uiso   1.00
H434   H     0.25346   0.33000   0.24808   0.00000  Uiso   1.00
H435   H     0.28519   0.38178   0.21600   0.00000  Uiso   1.00
H436   H     0.30027   0.34017   0.19788   0.00000  Uiso   1.00
C437   C     0.36205   0.30526   0.21087   0.00000  Uiso   1.00
C438   C     0.36848   0.31260   0.16765   0.00000  Uiso   1.00
H439   H     0.35022   0.33450   0.15690   0.00000  Uiso   1.00
H440   H     0.39703   0.32124   0.16287   0.00000  Uiso   1.00
H441   H     0.36330   0.28755   0.15044   0.00000  Uiso   1.00
H442   H     0.38077   0.28322   0.21988   0.00000  Uiso   1.00
H443   H     0.33470   0.29347   0.21554   0.00000  Uiso   1.00
C444   C     0.13634   0.19539   0.79020   0.00000  Uiso   1.00
C445   C     0.15580   0.22477   0.76654   0.00000  Uiso   1.00
H446   H     0.18565   0.22131   0.76830   0.00000  Uiso   1.00
H447   H     0.14723   0.22386   0.73563   0.00000  Uiso   1.00
H448   H     0.14907   0.25218   0.77856   0.00000  Uiso   1.00
H449   H     0.10977   0.20675   0.79974   0.00000  Uiso   1.00
H450   H     0.15034   0.19069   0.81823   0.00000  Uiso   1.00
C451   C     0.32869   0.11366   0.18130   0.00000  Uiso   1.00
C452   C     0.34609   0.08837   0.15095   0.00000  Uiso   1.00
H453   H     0.37237   0.09936   0.14040   0.00000  Uiso   1.00
H454   H     0.35112   0.06088   0.16327   0.00000  Uiso   1.00
H455   H     0.32754   0.08543   0.12577   0.00000  Uiso   1.00
H456   H     0.30187   0.10228   0.18969   0.00000  Uiso   1.00
H457   H     0.32128   0.14004   0.16773   0.00000  Uiso   1.00
C458   C     0.19884   0.35398   0.72295   0.00000  Uiso   1.00
C459   C     0.20929   0.36066   0.68007   0.00000  Uiso   1.00
H460   H     0.18505   0.36542   0.66163   0.00000  Uiso   1.00
H461   H     0.22736   0.38464   0.67701   0.00000  Uiso   1.00
H462   H     0.22418   0.33658   0.66837   0.00000  Uiso   1.00
H463   H     0.21884   0.36649   0.74291   0.00000  Uiso   1.00
H464   H     0.20174   0.32457   0.73018   0.00000  Uiso   1.00
C465   C     0.13859   0.19594   0.21248   0.00000  Uiso   1.00
C466   C     0.12456   0.19433   0.17085   0.00000  Uiso   1.00
H467   H     0.13753   0.17156   0.15450   0.00000  Uiso   1.00
H468   H     0.09473   0.19023   0.17097   0.00000  Uiso   1.00
H469   H     0.13084   0.22023   0.15570   0.00000  Uiso   1.00
H470   H     0.12501   0.21872   0.22815   0.00000  Uiso   1.00
H471   H     0.16752   0.20403   0.21210   0.00000  Uiso   1.00
C472   C     0.36160   0.30112   0.78211   0.00000  Uiso   1.00
C473   C     0.34951   0.27237   0.75247   0.00000  Uiso   1.00
H474   H     0.35779   0.27974   0.72242   0.00000  Uiso   1.00
H475   H     0.36237   0.24573   0.75919   0.00000  Uiso   1.00
H476   H     0.31956   0.26899   0.75360   0.00000  Uiso   1.00
H477   H     0.38694   0.29137   0.79621   0.00000  Uiso   1.00
H478   H     0.34245   0.30229   0.80703   0.00000  Uiso   1.00
C479   C     0.13921   0.41772   0.32081   0.00000  Uiso   1.00
C480   C     0.16322   0.39670   0.34945   0.00000  Uiso   1.00
H481   H     0.15533   0.36752   0.35139   0.00000  Uiso   1.00
H482   H     0.19211   0.39795   0.34018   0.00000  Uiso   1.00
H483   H     0.16067   0.40888   0.37891   0.00000  Uiso   1.00
H484   H     0.15212   0.44438   0.31445   0.00000  Uiso   1.00
H485   H     0.11325   0.42597   0.33486   0.00000  Uiso   1.00
C486   C     0.32925   0.11304   0.82009   0.00000  Uiso   1.00
C487   C     0.29045   0.12707   0.81457   0.00000  Uiso   1.00
H488   H     0.29044   0.15441   0.80080   0.00000  Uiso   1.00
H489   H     0.27479   0.10797   0.79614   0.00000  Uiso   1.00
H490   H     0.27654   0.12945   0.84315   0.00000  Uiso   1.00
H491   H     0.32880   0.08360   0.82723   0.00000  Uiso   1.00
H492   H     0.34035   0.12533   0.84683   0.00000  Uiso   1.00
C493   C     0.03506   0.30882   0.39774   0.00000  Uiso   1.00
H494   H     0.05772   0.29497   0.38224   0.00000  Uiso   1.00
H495   H     0.01822   0.32398   0.37648   0.00000  Uiso   1.00
H496   H     0.04874   0.32803   0.41771   0.00000  Uiso   1.00
C497   C     0.02131   0.18435   0.60337   0.00000  Uiso   1.00
H498   H     0.04481   0.19323   0.62112   0.00000  Uiso   1.00
H499   H     0.00064   0.17209   0.62298   0.00000  Uiso   1.00
H500   H     0.03269   0.16345   0.58343   0.00000  Uiso   1.00
C501   C     0.18280   0.48791   0.39589   0.00000  Uiso   1.00
H502   H     0.18935   0.46625   0.37448   0.00000  Uiso   1.00
H503   H     0.16200   0.47559   0.41512   0.00000  Uiso   1.00
H504   H     0.17157   0.01159   0.37976   0.00000  Uiso   1.00
C505   C     0.30804   0.46262   0.60232   0.00000  Uiso   1.00
H506   H     0.29393   0.44065   0.61852   0.00000  Uiso   1.00
H507   H     0.32644   0.44768   0.58231   0.00000  Uiso   1.00
H508   H     0.32400   0.47942   0.62302   0.00000  Uiso   1.00
C509   C     0.46533   0.19031   0.39744   0.00000  Uiso   1.00
H510   H     0.44291   0.20382   0.38147   0.00000  Uiso   1.00
H511   H     0.48256   0.17485   0.37651   0.00000  Uiso   1.00
H512   H     0.45134   0.17134   0.41748   0.00000  Uiso   1.00
C513   C     0.47902   0.31527   0.60365   0.00000  Uiso   1.00
H514   H     0.45536   0.30650   0.62140   0.00000  Uiso   1.00
H515   H     0.49962   0.32749   0.62323   0.00000  Uiso   1.00
H516   H     0.46785   0.33620   0.58380   0.00000  Uiso   1.00
C517   C     0.31648   0.01542   0.39612   0.00000  Uiso   1.00
H518   H     0.30934   0.03931   0.37791   0.00000  Uiso   1.00
H519   H     0.33791   0.02562   0.41581   0.00000  Uiso   1.00
H520   H     0.32723   0.49341   0.37697   0.00000  Uiso   1.00
C521   C     0.19158   0.03598   0.60281   0.00000  Uiso   1.00
H522   H     0.20508   0.05780   0.61978   0.00000  Uiso   1.00
H523   H     0.17338   0.05108   0.58296   0.00000  Uiso   1.00
H524   H     0.17556   0.01835   0.62259   0.00000  Uiso   1.00
C525   C     0.28477   0.05915   0.89763   0.00000  Uiso   1.00
H526   H     0.30751   0.04537   0.88219   0.00000  Uiso   1.00
H527   H     0.26778   0.07403   0.87632   0.00000  Uiso   1.00
H528   H     0.29828   0.07857   0.91752   0.00000  Uiso   1.00
C529   C     0.27348   0.43554   0.10290   0.00000  Uiso   1.00
H530   H     0.29738   0.44503   0.11966   0.00000  Uiso   1.00
H531   H     0.25368   0.42318   0.12334   0.00000  Uiso   1.00
H532   H     0.28449   0.41460   0.08276   0.00000  Uiso   1.00
C533   C     0.44082   0.21488   0.89752   0.00000  Uiso   1.00
H534   H     0.45444   0.19249   0.88125   0.00000  Uiso   1.00
H535   H     0.42214   0.20057   0.91760   0.00000  Uiso   1.00
H536   H     0.42518   0.23202   0.87687   0.00000  Uiso   1.00
C537   C     0.06467   0.22890   0.10245   0.00000  Uiso   1.00
H538   H     0.05570   0.20452   0.11893   0.00000  Uiso   1.00
H539   H     0.08588   0.21848   0.08233   0.00000  Uiso   1.00
H540   H     0.07634   0.24913   0.12296   0.00000  Uiso   1.00
C541   C     0.21478   0.44093   0.89802   0.00000  Uiso   1.00
H542   H     0.19236   0.45505   0.88275   0.00000  Uiso   1.00
H543   H     0.23135   0.42535   0.87658   0.00000  Uiso   1.00
H544   H     0.20086   0.42205   0.91822   0.00000  Uiso   1.00
C545   C     0.22849   0.06556   0.10385   0.00000  Uiso   1.00
H546   H     0.20499   0.05654   0.12168   0.00000  Uiso   1.00
H547   H     0.24904   0.07794   0.12339   0.00000  Uiso   1.00
H548   H     0.21706   0.08642   0.08409   0.00000  Uiso   1.00
C549   C     0.05823   0.28620   0.89741   0.00000  Uiso   1.00
H550   H     0.07680   0.30052   0.91750   0.00000  Uiso   1.00
H551   H     0.07401   0.26939   0.87634   0.00000  Uiso   1.00
H552   H     0.04436   0.30860   0.88161   0.00000  Uiso   1.00
C553   C     0.43442   0.27056   0.10387   0.00000  Uiso   1.00
H554   H     0.41335   0.28162   0.08424   0.00000  Uiso   1.00
H555   H     0.42260   0.24980   0.12367   0.00000  Uiso   1.00
H556   H     0.44325   0.29438   0.12138   0.00000  Uiso   1.00
Zn557  Zn    0.70660  -0.00000   0.21735   0.00000  Uiso   1.00
Zn558  Zn    0.79341  -0.00000   0.78265   0.00000  Uiso   1.00
Zn559  Zn    0.50000   0.20659   0.21735   0.00000  Uiso   1.00
Zn560  Zn    0.50000   0.29340   0.78265   0.00000  Uiso   1.00
Zn561  Zn    0.79341  -0.00000   0.21735   0.00000  Uiso   1.00
Zn562  Zn    0.70660  -0.00000   0.78265   0.00000  Uiso   1.00
Zn563  Zn    0.50000   0.29340   0.21735   0.00000  Uiso   1.00
Zn564  Zn    0.50000   0.20659   0.78265   0.00000  Uiso   1.00
Zn565  Zn    0.95660   0.25000   0.71735   0.00000  Uiso   1.00
Zn566  Zn    0.54341   0.25000   0.28265   0.00000  Uiso   1.00
Zn567  Zn    0.75000   0.45660   0.71735   0.00000  Uiso   1.00
Zn568  Zn    0.75000   0.04340   0.28265   0.00000  Uiso   1.00
Zn569  Zn    0.54341   0.25000   0.71735   0.00000  Uiso   1.00
Zn570  Zn    0.95660   0.25000   0.28265   0.00000  Uiso   1.00
Zn571  Zn    0.75000   0.04340   0.71735   0.00000  Uiso   1.00
Zn572  Zn    0.75000   0.45660   0.28265   0.00000  Uiso   1.00
C573   C     0.51206   0.28074   0.41877   0.00000  Uiso   1.00
C574   C     0.50535   0.21677   0.58181   0.00000  Uiso   1.00
C575   C     0.71671   0.49882   0.41804   0.00000  Uiso   1.00
C576   C     0.78051   0.48624   0.58117   0.00000  Uiso   1.00
C577   C     0.98784   0.21872   0.41862   0.00000  Uiso   1.00
C578   C     0.99499   0.28275   0.58194   0.00000  Uiso   1.00
C579   C     0.78307   0.00228   0.41793   0.00000  Uiso   1.00
C580   C     0.71958   0.01297   0.58144   0.00000  Uiso   1.00
C581   C     0.76194   0.03103   0.91875   0.00000  Uiso   1.00
C582   C     0.75625   0.46749   0.08173   0.00000  Uiso   1.00
C583   C     0.96888   0.23780   0.91867   0.00000  Uiso   1.00
C584   C     0.53241   0.24523   0.08143   0.00000  Uiso   1.00
C585   C     0.73790   0.46898   0.91884   0.00000  Uiso   1.00
C586   C     0.74470   0.03324   0.08201   0.00000  Uiso   1.00
C587   C     0.53038   0.26289   0.91854   0.00000  Uiso   1.00
C588   C     0.96674   0.25479   0.08197   0.00000  Uiso   1.00
C589   C     0.99984   0.24981   0.39834   0.00000  Uiso   1.00
C590   C     0.50018   0.24980   0.60201   0.00000  Uiso   1.00
C591   C     0.74996   0.00027   0.39795   0.00000  Uiso   1.00
C592   C     0.75009   0.49978   0.60163   0.00000  Uiso   1.00
C593   C     0.74987   0.49999   0.89842   0.00000  Uiso   1.00
C594   C     0.75033   0.00030   0.10202   0.00000  Uiso   1.00
C595   C     0.99973   0.25020   0.89830   0.00000  Uiso   1.00
C596   C     0.99964   0.24992   0.10187   0.00000  Uiso   1.00
O597   O     0.75000  -0.00000   0.25000   0.00000  Uiso   1.00
O598   O     0.75000  -0.00000   0.75000   0.00000  Uiso   1.00
O599   O     0.50000   0.25000   0.25000   0.00000  Uiso   1.00
O600   O     0.50000   0.25000   0.75000   0.00000  Uiso   1.00
O601   O     0.75000   0.46964   0.33755   0.00000  Uiso   1.00
O602   O     0.75000   0.03036   0.66245   0.00000  Uiso   1.00
O603   O     0.53037   0.25000   0.33755   0.00000  Uiso   1.00
O604   O     0.96964   0.25000   0.66245   0.00000  Uiso   1.00
O605   O     0.75000   0.03036   0.33755   0.00000  Uiso   1.00
O606   O     0.75000   0.46964   0.66245   0.00000  Uiso   1.00
O607   O     0.96964   0.25000   0.33755   0.00000  Uiso   1.00
O608   O     0.53037   0.25000   0.66245   0.00000  Uiso   1.00
O609   O     0.50000   0.21963   0.83755   0.00000  Uiso   1.00
O610   O     0.50000   0.28036   0.16245   0.00000  Uiso   1.00
O611   O     0.78037  -0.00000   0.83755   0.00000  Uiso   1.00
O612   O     0.71964  -0.00000   0.16245   0.00000  Uiso   1.00
O613   O     0.50000   0.28036   0.83755   0.00000  Uiso   1.00
O614   O     0.50000   0.21963   0.16245   0.00000  Uiso   1.00
O615   O     0.71964  -0.00000   0.83755   0.00000  Uiso   1.00
O616   O     0.78037  -0.00000   0.16245   0.00000  Uiso   1.00
O617   O     0.70725   0.07307   0.27302   0.00000  Uiso   1.00
O618   O     0.79276   0.42692   0.72698   0.00000  Uiso   1.00
O619   O     0.92693   0.20724   0.27302   0.00000  Uiso   1.00
O620   O     0.57308   0.29276   0.72698   0.00000  Uiso   1.00
O621   O     0.79276   0.42692   0.27302   0.00000  Uiso   1.00
O622   O     0.70725   0.07307   0.72698   0.00000  Uiso   1.00
O623   O     0.57308   0.29276   0.27302   0.00000  Uiso   1.00
O624   O     0.92693   0.20724   0.72698   0.00000  Uiso   1.00
O625   O     0.70725   0.42693   0.72698   0.00000  Uiso   1.00
O626   O     0.79276   0.07307   0.27302   0.00000  Uiso   1.00
O627   O     0.92693   0.29275   0.72698   0.00000  Uiso   1.00
O628   O     0.57308   0.20725   0.27302   0.00000  Uiso   1.00
O629   O     0.79276   0.07307   0.72698   0.00000  Uiso   1.00
O630   O     0.70725   0.42693   0.27302   0.00000  Uiso   1.00
O631   O     0.57308   0.20725   0.72698   0.00000  Uiso   1.00
O632   O     0.92693   0.29275   0.27302   0.00000  Uiso   1.00
O633   O     0.95725   0.32307   0.77302   0.00000  Uiso   1.00
O634   O     0.54276   0.17693   0.22698   0.00000  Uiso   1.00
O635   O     0.67693   0.45725   0.77302   0.00000  Uiso   1.00
O636   O     0.82308   0.04275   0.22698   0.00000  Uiso   1.00
O637   O     0.54276   0.17693   0.77302   0.00000  Uiso   1.00
O638   O     0.95725   0.32307   0.22698   0.00000  Uiso   1.00
O639   O     0.82308   0.04275   0.77302   0.00000  Uiso   1.00
O640   O     0.67693   0.45725   0.22698   0.00000  Uiso   1.00
O641   O     0.95725   0.17692   0.22698   0.00000  Uiso   1.00
O642   O     0.54276   0.32308   0.77302   0.00000  Uiso   1.00
O643   O     0.67693   0.04275   0.22698   0.00000  Uiso   1.00
O644   O     0.82308   0.45724   0.77302   0.00000  Uiso   1.00
O645   O     0.54276   0.32308   0.22698   0.00000  Uiso   1.00
O646   O     0.95725   0.17692   0.77302   0.00000  Uiso   1.00
O647   O     0.82308   0.45724   0.22698   0.00000  Uiso   1.00
O648   O     0.67693   0.04275   0.77302   0.00000  Uiso   1.00
C649   C     0.99499   0.18303   0.47960   0.00000  Uiso   1.00
C650   C     0.50821   0.31615   0.52068   0.00000  Uiso   1.00
C651   C     0.81543   0.48718   0.47907   0.00000  Uiso   1.00
C652   C     0.68401   0.00823   0.52052   0.00000  Uiso   1.00
C653   C     0.50524   0.31639   0.47996   0.00000  Uiso   1.00
C654   C     0.99230   0.18321   0.52040   0.00000  Uiso   1.00
C655   C     0.68445   0.01265   0.48003   0.00000  Uiso   1.00
C656   C     0.81599   0.49076   0.51972   0.00000  Uiso   1.00
C657   C     0.74514   0.43342   0.97988   0.00000  Uiso   1.00
C658   C     0.75747   0.06680   0.02059   0.00000  Uiso   1.00
C659   C     0.56587   0.25656   0.97951   0.00000  Uiso   1.00
C660   C     0.93351   0.24142   0.02074   0.00000  Uiso   1.00
C661   C     0.75471   0.06687   0.97983   0.00000  Uiso   1.00
C662   C     0.74280   0.43372   0.02071   0.00000  Uiso   1.00
C663   C     0.93326   0.24432   0.97998   0.00000  Uiso   1.00
C664   C     0.56553   0.25938   0.02026   0.00000  Uiso   1.00
C665   C     0.75014   0.00007   0.35568   0.00000  Uiso   1.00
C666   C     0.75007   0.49994   0.64415   0.00000  Uiso   1.00
C667   C     0.99994   0.24989   0.35581   0.00000  Uiso   1.00
C668   C     0.50007   0.24990   0.64433   0.00000  Uiso   1.00
C669   C     0.99991   0.25005   0.85583   0.00000  Uiso   1.00
C670   C     0.99986   0.24996   0.14425   0.00000  Uiso   1.00
C671   C     0.74994   0.49993   0.85583   0.00000  Uiso   1.00
C672   C     0.75009   0.00012   0.14433   0.00000  Uiso   1.00
C673   C     0.68020   0.07002   0.25010   0.00000  Uiso   1.00
C674   C     0.81926   0.42928   0.75060   0.00000  Uiso   1.00
C675   C     0.92997   0.17999   0.24988   0.00000  Uiso   1.00
C676   C     0.56956   0.32056   0.74836   0.00000  Uiso   1.00
C677   C     0.82017   0.43024   0.25026   0.00000  Uiso   1.00
C678   C     0.67996   0.07000   0.74991   0.00000  Uiso   1.00
C679   C     0.57007   0.31990   0.24984   0.00000  Uiso   1.00
C680   C     0.92987   0.18028   0.75034   0.00000  Uiso   1.00
C681   C     0.68062   0.42906   0.75123   0.00000  Uiso   1.00
C682   C     0.82018   0.06980   0.25038   0.00000  Uiso   1.00
C683   C     0.93070   0.32057   0.74949   0.00000  Uiso   1.00
C684   C     0.56989   0.17986   0.24990   0.00000  Uiso   1.00
C685   C     0.82003   0.07001   0.74991   0.00000  Uiso   1.00
C686   C     0.68017   0.42990   0.24987   0.00000  Uiso   1.00
C687   C     0.56968   0.17984   0.74975   0.00000  Uiso   1.00
C688   C     0.93008   0.32001   0.24995   0.00000  Uiso   1.00
C689   C     0.64649   0.38096   0.21516   0.00000  Uiso   1.00
C690   C     0.86974   0.10357   0.71640   0.00000  Uiso   1.00
C691   C     0.59016   0.11670   0.26539   0.00000  Uiso   1.00
C692   C     0.91057   0.38462   0.73872   0.00000  Uiso   1.00
C693   C     0.86968   0.10301   0.28438   0.00000  Uiso   1.00
C694   C     0.61799   0.40682   0.76819   0.00000  Uiso   1.00
C695   C     0.91076   0.38367   0.26420   0.00000  Uiso   1.00
C696   C     0.58997   0.11719   0.73355   0.00000  Uiso   1.00
C697   C     0.61694   0.08963   0.73468   0.00000  Uiso   1.00
C698   C     0.88378   0.41133   0.26303   0.00000  Uiso   1.00
C699   C     0.58937   0.38434   0.75692   0.00000  Uiso   1.00
C700   C     0.89742   0.12985   0.28408   0.00000  Uiso   1.00
C701   C     0.88206   0.41018   0.73531   0.00000  Uiso   1.00
C702   C     0.61856   0.09078   0.26862   0.00000  Uiso   1.00
C703   C     0.89716   0.13055   0.71677   0.00000  Uiso   1.00
C704   C     0.61941   0.35339   0.21520   0.00000  Uiso   1.00
C705   C     0.87939   0.14802   0.78403   0.00000  Uiso   1.00
C706   C     0.60480   0.36811   0.28407   0.00000  Uiso   1.00
C707   C     0.83919   0.36480   0.76147   0.00000  Uiso   1.00
C708   C     0.65959   0.13207   0.23235   0.00000  Uiso   1.00
C709   C     0.63147   0.34175   0.72562   0.00000  Uiso   1.00
C710   C     0.88055   0.14640   0.21652   0.00000  Uiso   1.00
C711   C     0.65971   0.13336   0.76491   0.00000  Uiso   1.00
C712   C     0.83985   0.36681   0.23639   0.00000  Uiso   1.00
C713   C     0.86767   0.34029   0.23423   0.00000  Uiso   1.00
C714   C     0.63153   0.15964   0.76747   0.00000  Uiso   1.00
C715   C     0.85346   0.11911   0.21659   0.00000  Uiso   1.00
C716   C     0.66019   0.36632   0.73237   0.00000  Uiso   1.00
C717   C     0.63243   0.15948   0.23288   0.00000  Uiso   1.00
C718   C     0.86754   0.33878   0.76377   0.00000  Uiso   1.00
C719   C     0.63217   0.39509   0.28414   0.00000  Uiso   1.00
C720   C     0.85286   0.12001   0.78412   0.00000  Uiso   1.00
C721   C     0.99469   0.21658   0.45907   0.00000  Uiso   1.00
C722   C     0.50166   0.28332   0.54138   0.00000  Uiso   1.00
C723   C     0.78319   0.49581   0.45845   0.00000  Uiso   1.00
C724   C     0.71730   0.00641   0.54098   0.00000  Uiso   1.00
C725   C     0.50526   0.28285   0.45924   0.00000  Uiso   1.00
C726   C     0.99869   0.21608   0.54126   0.00000  Uiso   1.00
C727   C     0.71664   0.00445   0.45881   0.00000  Uiso   1.00
C728   C     0.78274   0.49262   0.54062   0.00000  Uiso   1.00
C729   C     0.74481   0.46695   0.95926   0.00000  Uiso   1.00
C730   C     0.75132   0.03393   0.04139   0.00000  Uiso   1.00
C731   C     0.53250   0.25615   0.95897   0.00000  Uiso   1.00
C732   C     0.96612   0.24828   0.04137   0.00000  Uiso   1.00
C733   C     0.75507   0.03326   0.95922   0.00000  Uiso   1.00
C734   C     0.74920   0.46668   0.04133   0.00000  Uiso   1.00
C735   C     0.96665   0.24463   0.95917   0.00000  Uiso   1.00
C736   C     0.53293   0.25226   0.04102   0.00000  Uiso   1.00
C737   C     0.59846   0.34779   0.24953   0.00000  Uiso   1.00
C738   C     0.90165   0.15238   0.75051   0.00000  Uiso   1.00
C739   C     0.65235   0.09827   0.25059   0.00000  Uiso   1.00
C740   C     0.84728   0.40095   0.74941   0.00000  Uiso   1.00
C741   C     0.90219   0.15150   0.25019   0.00000  Uiso   1.00
C742   C     0.59724   0.34905   0.74375   0.00000  Uiso   1.00
C743   C     0.84838   0.40221   0.25011   0.00000  Uiso   1.00
C744   C     0.65173   0.09821   0.74976   0.00000  Uiso   1.00
C745   C     0.59761   0.15169   0.75021   0.00000  Uiso   1.00
C746   C     0.90221   0.34839   0.24991   0.00000  Uiso   1.00
C747   C     0.65308   0.39988   0.75211   0.00000  Uiso   1.00
C748   C     0.84833   0.09783   0.25050   0.00000  Uiso   1.00
C749   C     0.90261   0.34863   0.75093   0.00000  Uiso   1.00
C750   C     0.59797   0.15150   0.24939   0.00000  Uiso   1.00
C751   C     0.84797   0.09848   0.75011   0.00000  Uiso   1.00
C752   C     0.65238   0.40149   0.24968   0.00000  Uiso   1.00
C753   C     0.99999   0.24971   0.47975   0.00000  Uiso   1.00
C754   C     0.50010   0.24970   0.52076   0.00000  Uiso   1.00
C755   C     0.74993   0.49988   0.47918   0.00000  Uiso   1.00
C756   C     0.75000   0.49961   0.52021   0.00000  Uiso   1.00
C757   C     0.75000   0.00016   0.97983   0.00000  Uiso   1.00
C758   C     0.75014   0.00026   0.02080   0.00000  Uiso   1.00
C759   C     0.99955   0.25038   0.97964   0.00000  Uiso   1.00
C760   C     0.99953   0.25033   0.02062   0.00000  Uiso   1.00
C761   C     0.50402   0.14704   0.45972   0.00000  Uiso   1.00
H762   H     0.51642   0.15103   0.43061   0.00000  Uiso   1.00
H763   H     0.52480   0.13207   0.47683   0.00000  Uiso   1.00
H764   H     0.97949   0.12962   0.45738   0.00000  Uiso   1.00
C765   C     0.52401   0.34975   0.54014   0.00000  Uiso   1.00
H766   H     0.53606   0.34341   0.56884   0.00000  Uiso   1.00
H767   H     0.54686   0.36053   0.52239   0.00000  Uiso   1.00
H768   H     0.50314   0.37153   0.54311   0.00000  Uiso   1.00
C769   C     0.84779   0.46876   0.45970   0.00000  Uiso   1.00
H770   H     0.84066   0.45657   0.43122   0.00000  Uiso   1.00
H771   H     0.87068   0.48818   0.45634   0.00000  Uiso   1.00
H772   H     0.85719   0.44548   0.47774   0.00000  Uiso   1.00
C773   C     0.64785   0.49956   0.53977   0.00000  Uiso   1.00
H774   H     0.63254   0.47990   0.52147   0.00000  Uiso   1.00
H775   H     0.65138   0.48587   0.56823   0.00000  Uiso   1.00
H776   H     0.63109   0.02460   0.54332   0.00000  Uiso   1.00
C777   C     0.99631   0.35245   0.46045   0.00000  Uiso   1.00
H778   H     0.98411   0.34859   0.43131   0.00000  Uiso   1.00
H779   H     0.97544   0.36733   0.47780   0.00000  Uiso   1.00
H780   H     0.52084   0.36989   0.45823   0.00000  Uiso   1.00
C781   C     0.97699   0.14938   0.53984   0.00000  Uiso   1.00
H782   H     0.96497   0.15555   0.56868   0.00000  Uiso   1.00
H783   H     0.95423   0.13831   0.52232   0.00000  Uiso   1.00
H784   H     0.99816   0.12788   0.54244   0.00000  Uiso   1.00
C785   C     0.65208   0.03167   0.46174   0.00000  Uiso   1.00
H786   H     0.65962   0.04583   0.43445   0.00000  Uiso   1.00
H787   H     0.62958   0.01214   0.45669   0.00000  Uiso   1.00
H788   H     0.64192   0.05365   0.48132   0.00000  Uiso   1.00
C789   C     0.85231   0.49847   0.53880   0.00000  Uiso   1.00
H790   H     0.84912   0.01148   0.56776   0.00000  Uiso   1.00
H791   H     0.86873   0.47311   0.54124   0.00000  Uiso   1.00
H792   H     0.86782   0.01840   0.52101   0.00000  Uiso   1.00
C793   C     0.75374   0.39734   0.96001   0.00000  Uiso   1.00
H794   H     0.76577   0.40117   0.93069   0.00000  Uiso   1.00
H795   H     0.77467   0.38231   0.97686   0.00000  Uiso   1.00
H796   H     0.72909   0.38005   0.95810   0.00000  Uiso   1.00
C797   C     0.77264   0.10073   0.04001   0.00000  Uiso   1.00
H798   H     0.78468   0.09468   0.06875   0.00000  Uiso   1.00
H799   H     0.79538   0.11184   0.02233   0.00000  Uiso   1.00
H800   H     0.75139   0.12215   0.04283   0.00000  Uiso   1.00
C801   C     0.60191   0.24810   0.95975   0.00000  Uiso   1.00
H802   H     0.61704   0.22740   0.97690   0.00000  Uiso   1.00
H803   H     0.59829   0.23568   0.93061   0.00000  Uiso   1.00
H804   H     0.61887   0.27303   0.95756   0.00000  Uiso   1.00
C805   C     0.90015   0.22541   0.04036   0.00000  Uiso   1.00
H806   H     0.88947   0.20242   0.02268   0.00000  Uiso   1.00
H807   H     0.90653   0.21333   0.06906   0.00000  Uiso   1.00
H808   H     0.87841   0.24631   0.04339   0.00000  Uiso   1.00
C809   C     0.74561   0.10279   0.96010   0.00000  Uiso   1.00
H810   H     0.73352   0.09872   0.93094   0.00000  Uiso   1.00
H811   H     0.72459   0.11762   0.97728   0.00000  Uiso   1.00
H812   H     0.77004   0.12037   0.95786   0.00000  Uiso   1.00
C813   C     0.72789   0.39992   0.04060   0.00000  Uiso   1.00
H814   H     0.71637   0.40612   0.06972   0.00000  Uiso   1.00
H815   H     0.70485   0.38875   0.02357   0.00000  Uiso   1.00
H816   H     0.74915   0.37847   0.04286   0.00000  Uiso   1.00
C817   C     0.89729   0.25297   0.96054   0.00000  Uiso   1.00
H818   H     0.90103   0.26555   0.93152   0.00000  Uiso   1.00
H819   H     0.88028   0.22810   0.95813   0.00000  Uiso   1.00
H820   H     0.88215   0.27359   0.97801   0.00000  Uiso   1.00
C821   C     0.59878   0.27546   0.03982   0.00000  Uiso   1.00
H822   H     0.59238   0.28697   0.06891   0.00000  Uiso   1.00
H823   H     0.62076   0.25477   0.04210   0.00000  Uiso   1.00
H824   H     0.60912   0.29884   0.02253   0.00000  Uiso   1.00
C825   C     0.66948   0.38883   0.17870   0.00000  Uiso   1.00
C826   C     0.70941   0.37804   0.18383   0.00000  Uiso   1.00
H827   H     0.72474   0.40010   0.19847   0.00000  Uiso   1.00
H828   H     0.71185   0.35256   0.20099   0.00000  Uiso   1.00
H829   H     0.72218   0.37330   0.15494   0.00000  Uiso   1.00
H830   H     0.65978   0.37476   0.15238   0.00000  Uiso   1.00
H831   H     0.66751   0.41810   0.17079   0.00000  Uiso   1.00
C832   C     0.86532   0.07814   0.68136   0.00000  Uiso   1.00
C833   C     0.88578   0.04239   0.68754   0.00000  Uiso   1.00
H834   H     0.87607   0.02875   0.71436   0.00000  Uiso   1.00
H835   H     0.88110   0.02408   0.66232   0.00000  Uiso   1.00
H836   H     0.91540   0.04744   0.69020   0.00000  Uiso   1.00
H837   H     0.83640   0.07228   0.67541   0.00000  Uiso   1.00
H838   H     0.87477   0.09041   0.65381   0.00000  Uiso   1.00
C839   C     0.55113   0.10668   0.27633   0.00000  Uiso   1.00
C840   C     0.53107   0.09090   0.24114   0.00000  Uiso   1.00
H841   H     0.50676   0.07556   0.25093   0.00000  Uiso   1.00
H842   H     0.52198   0.11289   0.22134   0.00000  Uiso   1.00
H843   H     0.54876   0.07193   0.22434   0.00000  Uiso   1.00
H844   H     0.54982   0.08668   0.30029   0.00000  Uiso   1.00
H845   H     0.53587   0.13060   0.28784   0.00000  Uiso   1.00
C846   C     0.94954   0.39714   0.73235   0.00000  Uiso   1.00
C847   C     0.96173   0.42054   0.76691   0.00000  Uiso   1.00
H848   H     0.94032   0.44017   0.77618   0.00000  Uiso   1.00
H849   H     0.96830   0.40272   0.79203   0.00000  Uiso   1.00
H850   H     0.98598   0.43671   0.75887   0.00000  Uiso   1.00
H851   H     0.96892   0.37423   0.72859   0.00000  Uiso   1.00
H852   H     0.95216   0.41276   0.70494   0.00000  Uiso   1.00
C853   C     0.86230   0.07971   0.32057   0.00000  Uiso   1.00
C854   C     0.87338   0.03978   0.31463   0.00000  Uiso   1.00
H855   H     0.87857   0.02675   0.34319   0.00000  Uiso   1.00
H856   H     0.85130   0.02439   0.30025   0.00000  Uiso   1.00
H857   H     0.89856   0.03767   0.29688   0.00000  Uiso   1.00
H858   H     0.87626   0.08955   0.34686   0.00000  Uiso   1.00
H859   H     0.83317   0.08141   0.32872   0.00000  Uiso   1.00
C860   C     0.61064   0.43480   0.80035   0.00000  Uiso   1.00
C861   C     0.63136   0.42512   0.83742   0.00000  Uiso   1.00
H862   H     0.66089   0.42187   0.83194   0.00000  Uiso   1.00
H863   H     0.62721   0.44697   0.85947   0.00000  Uiso   1.00
H864   H     0.62094   0.39903   0.84950   0.00000  Uiso   1.00
H865   H     0.61620   0.46306   0.79056   0.00000  Uiso   1.00
H866   H     0.58166   0.43502   0.80937   0.00000  Uiso   1.00
C867   C     0.94881   0.39145   0.27995   0.00000  Uiso   1.00
C868   C     0.97282   0.41004   0.24948   0.00000  Uiso   1.00
H869   H     0.99777   0.42075   0.26330   0.00000  Uiso   1.00
H870   H     0.98078   0.39028   0.22643   0.00000  Uiso   1.00
H871   H     0.95876   0.43324   0.23561   0.00000  Uiso   1.00
H872   H     0.94776   0.40759   0.30718   0.00000  Uiso   1.00
H873   H     0.96273   0.36617   0.28953   0.00000  Uiso   1.00
C874   C     0.55353   0.11064   0.71336   0.00000  Uiso   1.00
C875   C     0.52521   0.09435   0.74100   0.00000  Uiso   1.00
H876   H     0.53518   0.06870   0.75436   0.00000  Uiso   1.00
H877   H     0.51834   0.11379   0.76467   0.00000  Uiso   1.00
H878   H     0.99997   0.08832   0.72462   0.00000  Uiso   1.00
H879   H     0.54240   0.13629   0.70097   0.00000  Uiso   1.00
H880   H     0.55685   0.09275   0.68754   0.00000  Uiso   1.00
C881   C     0.60967   0.05167   0.71785   0.00000  Uiso   1.00
C882   C     0.62440   0.04840   0.67649   0.00000  Uiso   1.00
H883   H     0.61117   0.06868   0.65717   0.00000  Uiso   1.00
H884   H     0.65413   0.05311   0.67613   0.00000  Uiso   1.00
H885   H     0.61892   0.02057   0.66505   0.00000  Uiso   1.00
H886   H     0.62182   0.03004   0.73619   0.00000  Uiso   1.00
H887   H     0.58048   0.04467   0.71765   0.00000  Uiso   1.00
C888   C     0.89175   0.45056   0.27603   0.00000  Uiso   1.00
C889   C     0.89998   0.47586   0.24153   0.00000  Uiso   1.00
H890   H     0.90178   0.46058   0.21361   0.00000  Uiso   1.00
H891   H     0.87856   0.49701   0.23873   0.00000  Uiso   1.00
H892   H     0.92613   0.49026   0.24621   0.00000  Uiso   1.00
H893   H     0.86836   0.46143   0.29300   0.00000  Uiso   1.00
H894   H     0.91431   0.45259   0.29693   0.00000  Uiso   1.00
C895   C     0.55212   0.40089   0.74935   0.00000  Uiso   1.00
C896   C     0.54225   0.39788   0.70617   0.00000  Uiso   1.00
H897   H     0.56544   0.40674   0.68768   0.00000  Uiso   1.00
H898   H     0.53491   0.36939   0.69846   0.00000  Uiso   1.00
H899   H     0.51880   0.41585   0.69955   0.00000  Uiso   1.00
H900   H     0.53116   0.38779   0.76773   0.00000  Uiso   1.00
H901   H     0.55159   0.43052   0.75607   0.00000  Uiso   1.00
C902   C     0.92247   0.13503   0.31933   0.00000  Uiso   1.00
C903   C     0.95044   0.10431   0.32280   0.00000  Uiso   1.00
H904   H     0.93761   0.07808   0.33066   0.00000  Uiso   1.00
H905   H     0.96527   0.10109   0.29489   0.00000  Uiso   1.00
H906   H     0.97036   0.11117   0.34585   0.00000  Uiso   1.00
H907   H     0.93838   0.16046   0.31819   0.00000  Uiso   1.00
H908   H     0.90663   0.13837   0.34660   0.00000  Uiso   1.00
C909   C     0.88738   0.44487   0.71124   0.00000  Uiso   1.00
C910   C     0.88475   0.43593   0.66789   0.00000  Uiso   1.00
H911   H     0.90502   0.41487   0.65930   0.00000  Uiso   1.00
H912   H     0.85715   0.42557   0.66108   0.00000  Uiso   1.00
H913   H     0.88984   0.46080   0.65038   0.00000  Uiso   1.00
H914   H     0.86675   0.46602   0.71775   0.00000  Uiso   1.00
H915   H     0.91357   0.45847   0.71748   0.00000  Uiso   1.00
C916   C     0.61435   0.05630   0.29342   0.00000  Uiso   1.00
C917   C     0.59689   0.02466   0.27132   0.00000  Uiso   1.00
H918   H     0.60830   0.02227   0.24148   0.00000  Uiso   1.00
H919   H     0.60223   0.49869   0.28697   0.00000  Uiso   1.00
H920   H     0.56705   0.02826   0.26973   0.00000  Uiso   1.00
H921   H     0.64110   0.04683   0.30434   0.00000  Uiso   1.00
H922   H     0.59913   0.06213   0.32064   0.00000  Uiso   1.00
C923   C     0.92277   0.13524   0.68187   0.00000  Uiso   1.00
C924   C     0.90648   0.16049   0.65104   0.00000  Uiso   1.00
H925   H     0.88004   0.15011   0.64041   0.00000  Uiso   1.00
H926   H     0.90201   0.18832   0.66289   0.00000  Uiso   1.00
H927   H     0.92545   0.16251   0.62599   0.00000  Uiso   1.00
H928   H     0.94957   0.14628   0.69066   0.00000  Uiso   1.00
H929   H     0.93002   0.10855   0.66866   0.00000  Uiso   1.00
C930   C     0.61340   0.32931   0.17914   0.00000  Uiso   1.00
C931   C     0.64339   0.30074   0.17406   0.00000  Uiso   1.00
H932   H     0.67041   0.31336   0.17031   0.00000  Uiso   1.00
H933   H     0.64407   0.28239   0.19971   0.00000  Uiso   1.00
H934   H     0.63781   0.28423   0.14765   0.00000  Uiso   1.00
H935   H     0.58775   0.31385   0.17989   0.00000  Uiso   1.00
H936   H     0.61023   0.34613   0.15261   0.00000  Uiso   1.00
C937   C     0.88376   0.17363   0.81926   0.00000  Uiso   1.00
C938   C     0.85069   0.19852   0.82596   0.00000  Uiso   1.00
H939   H     0.85962   0.22555   0.83708   0.00000  Uiso   1.00
H940   H     0.83538   0.20286   0.79863   0.00000  Uiso   1.00
H941   H     0.83210   0.18687   0.84811   0.00000  Uiso   1.00
H942   H     0.88990   0.15765   0.84583   0.00000  Uiso   1.00
H943   H     0.90735   0.19204   0.81648   0.00000  Uiso   1.00
C944   C     0.58069   0.36238   0.32007   0.00000  Uiso   1.00
C945   C     0.54454   0.38229   0.31580   0.00000  Uiso   1.00
H946   H     0.52853   0.36961   0.29217   0.00000  Uiso   1.00
H947   H     0.52871   0.38049   0.34326   0.00000  Uiso   1.00
H948   H     0.54918   0.41158   0.30915   0.00000  Uiso   1.00
H949   H     0.57582   0.33314   0.32576   0.00000  Uiso   1.00
H950   H     0.59336   0.37149   0.34746   0.00000  Uiso   1.00
C951   C     0.79997   0.35232   0.76483   0.00000  Uiso   1.00
C952   C     0.78784   0.33684   0.72566   0.00000  Uiso   1.00
H953   H     0.76453   0.31822   0.72989   0.00000  Uiso   1.00
H954   H     0.78043   0.35944   0.70587   0.00000  Uiso   1.00
H955   H     0.80967   0.32106   0.71100   0.00000  Uiso   1.00
H956   H     0.79608   0.33151   0.78768   0.00000  Uiso   1.00
H957   H     0.78144   0.37478   0.77382   0.00000  Uiso   1.00
C958   C     0.69606   0.13821   0.21177   0.00000  Uiso   1.00
C959   C     0.72387   0.15595   0.23875   0.00000  Uiso   1.00
H960   H     0.71372   0.18244   0.25019   0.00000  Uiso   1.00
H961   H     0.73000   0.13791   0.26373   0.00000  Uiso   1.00
H962   H     0.74953   0.16083   0.22246   0.00000  Uiso   1.00
H963   H     0.70764   0.11223   0.20046   0.00000  Uiso   1.00
H964   H     0.69285   0.15498   0.18522   0.00000  Uiso   1.00
C965   C     0.63669   0.31041   0.69604   0.00000  Uiso   1.00
C966   C     0.61459   0.31703   0.65898   0.00000  Uiso   1.00
H967   H     0.61657   0.29273   0.63970   0.00000  Uiso   1.00
H968   H     0.58548   0.32248   0.66516   0.00000  Uiso   1.00
H969   H     0.62560   0.34097   0.64311   0.00000  Uiso   1.00
H970   H     0.66479   0.30656   0.68573   0.00000  Uiso   1.00
H971   H     0.63117   0.28342   0.70909   0.00000  Uiso   1.00
C972   C     0.88448   0.17225   0.18187   0.00000  Uiso   1.00
C973   C     0.86194   0.20673   0.18826   0.00000  Uiso   1.00
H974   H     0.87109   0.22107   0.21488   0.00000  Uiso   1.00
H975   H     0.86527   0.22503   0.16288   0.00000  Uiso   1.00
H976   H     0.83269   0.20000   0.19151   0.00000  Uiso   1.00
H977   H     0.91310   0.17992   0.17645   0.00000  Uiso   1.00
H978   H     0.87643   0.15955   0.15403   0.00000  Uiso   1.00
C979   C     0.69837   0.14264   0.77762   0.00000  Uiso   1.00
C980   C     0.72099   0.15735   0.74359   0.00000  Uiso   1.00
H981   H     0.73180   0.13486   0.72532   0.00000  Uiso   1.00
H982   H     0.70459   0.17563   0.72480   0.00000  Uiso   1.00
H983   H     0.74444   0.17308   0.75484   0.00000  Uiso   1.00
H984   H     0.69896   0.16283   0.80151   0.00000  Uiso   1.00
H985   H     0.71204   0.11847   0.79031   0.00000  Uiso   1.00
C986   C     0.80100   0.35731   0.22443   0.00000  Uiso   1.00
C987   C     0.78109   0.33798   0.25758   0.00000  Uiso   1.00
H988   H     0.79592   0.31295   0.26652   0.00000  Uiso   1.00
H989   H     0.77849   0.35638   0.28315   0.00000  Uiso   1.00
H990   H     0.75346   0.33000   0.24808   0.00000  Uiso   1.00
H991   H     0.78519   0.38178   0.21600   0.00000  Uiso   1.00
H992   H     0.80027   0.34017   0.19788   0.00000  Uiso   1.00
C993   C     0.86205   0.30526   0.21087   0.00000  Uiso   1.00
C994   C     0.86848   0.31260   0.16765   0.00000  Uiso   1.00
H995   H     0.85022   0.33450   0.15690   0.00000  Uiso   1.00
H996   H     0.89703   0.32124   0.16287   0.00000  Uiso   1.00
H997   H     0.86330   0.28755   0.15044   0.00000  Uiso   1.00
H998   H     0.88077   0.28322   0.21988   0.00000  Uiso   1.00
H999   H     0.83470   0.29347   0.21554   0.00000  Uiso   1.00
C1000  C     0.63634   0.19539   0.79020   0.00000  Uiso   1.00
C1001  C     0.65580   0.22477   0.76654   0.00000  Uiso   1.00
H1002  H     0.68565   0.22131   0.76830   0.00000  Uiso   1.00
H1003  H     0.64723   0.22386   0.73563   0.00000  Uiso   1.00
H1004  H     0.64907   0.25218   0.77856   0.00000  Uiso   1.00
H1005  H     0.60977   0.20675   0.79974   0.00000  Uiso   1.00
H1006  H     0.65034   0.19069   0.81823   0.00000  Uiso   1.00
C1007  C     0.82869   0.11366   0.18130   0.00000  Uiso   1.00
C1008  C     0.84609   0.08837   0.15095   0.00000  Uiso   1.00
H1009  H     0.87237   0.09936   0.14040   0.00000  Uiso   1.00
H1010  H     0.85112   0.06088   0.16327   0.00000  Uiso   1.00
H1011  H     0.82754   0.08543   0.12577   0.00000  Uiso   1.00
H1012  H     0.80187   0.10228   0.18969   0.00000  Uiso   1.00
H1013  H     0.82128   0.14004   0.16773   0.00000  Uiso   1.00
C1014  C     0.69884   0.35398   0.72295   0.00000  Uiso   1.00
C1015  C     0.70929   0.36066   0.68007   0.00000  Uiso   1.00
H1016  H     0.68505   0.36542   0.66163   0.00000  Uiso   1.00
H1017  H     0.72736   0.38464   0.67701   0.00000  Uiso   1.00
H1018  H     0.72418   0.33658   0.66837   0.00000  Uiso   1.00
H1019  H     0.71884   0.36649   0.74291   0.00000  Uiso   1.00
H1020  H     0.70174   0.32457   0.73018   0.00000  Uiso   1.00
C1021  C     0.63859   0.19594   0.21248   0.00000  Uiso   1.00
C1022  C     0.62456   0.19433   0.17085   0.00000  Uiso   1.00
H1023  H     0.63753   0.17156   0.15450   0.00000  Uiso   1.00
H1024  H     0.59473   0.19023   0.17097   0.00000  Uiso   1.00
H1025  H     0.63084   0.22023   0.15570   0.00000  Uiso   1.00
H1026  H     0.62501   0.21872   0.22815   0.00000  Uiso   1.00
H1027  H     0.66752   0.20403   0.21210   0.00000  Uiso   1.00
C1028  C     0.86160   0.30112   0.78211   0.00000  Uiso   1.00
C1029  C     0.84951   0.27237   0.75247   0.00000  Uiso   1.00
H1030  H     0.85779   0.27974   0.72242   0.00000  Uiso   1.00
H1031  H     0.86237   0.24573   0.75919   0.00000  Uiso   1.00
H1032  H     0.81956   0.26899   0.75360   0.00000  Uiso   1.00
H1033  H     0.88694   0.29137   0.79621   0.00000  Uiso   1.00
H1034  H     0.84245   0.30229   0.80703   0.00000  Uiso   1.00
C1035  C     0.63921   0.41772   0.32081   0.00000  Uiso   1.00
C1036  C     0.66322   0.39670   0.34945   0.00000  Uiso   1.00
H1037  H     0.65533   0.36752   0.35139   0.00000  Uiso   1.00
H1038  H     0.69211   0.39795   0.34018   0.00000  Uiso   1.00
H1039  H     0.66067   0.40888   0.37891   0.00000  Uiso   1.00
H1040  H     0.65212   0.44438   0.31445   0.00000  Uiso   1.00
H1041  H     0.61325   0.42597   0.33486   0.00000  Uiso   1.00
C1042  C     0.82925   0.11304   0.82009   0.00000  Uiso   1.00
C1043  C     0.79045   0.12707   0.81457   0.00000  Uiso   1.00
H1044  H     0.79044   0.15441   0.80080   0.00000  Uiso   1.00
H1045  H     0.77479   0.10797   0.79614   0.00000  Uiso   1.00
H1046  H     0.77654   0.12945   0.84315   0.00000  Uiso   1.00
H1047  H     0.82880   0.08360   0.82723   0.00000  Uiso   1.00
H1048  H     0.84035   0.12533   0.84683   0.00000  Uiso   1.00
C1049  C     0.53506   0.30882   0.39774   0.00000  Uiso   1.00
H1050  H     0.55772   0.29497   0.38224   0.00000  Uiso   1.00
H1051  H     0.51822   0.32398   0.37648   0.00000  Uiso   1.00
H1052  H     0.54874   0.32803   0.41771   0.00000  Uiso   1.00
C1053  C     0.52131   0.18435   0.60337   0.00000  Uiso   1.00
H1054  H     0.54481   0.19323   0.62112   0.00000  Uiso   1.00
H1055  H     0.50064   0.17209   0.62298   0.00000  Uiso   1.00
H1056  H     0.53269   0.16345   0.58343   0.00000  Uiso   1.00
C1057  C     0.68280   0.48791   0.39589   0.00000  Uiso   1.00
H1058  H     0.68935   0.46625   0.37448   0.00000  Uiso   1.00
H1059  H     0.66200   0.47559   0.41512   0.00000  Uiso   1.00
H1060  H     0.67157   0.01159   0.37976   0.00000  Uiso   1.00
C1061  C     0.80804   0.46262   0.60232   0.00000  Uiso   1.00
H1062  H     0.79393   0.44065   0.61852   0.00000  Uiso   1.00
H1063  H     0.82644   0.44768   0.58231   0.00000  Uiso   1.00
H1064  H     0.82400   0.47942   0.62302   0.00000  Uiso   1.00
C1065  C     0.96533   0.19031   0.39744   0.00000  Uiso   1.00
H1066  H     0.94291   0.20382   0.38147   0.00000  Uiso   1.00
H1067  H     0.98256   0.17485   0.37651   0.00000  Uiso   1.00
H1068  H     0.95134   0.17134   0.41748   0.00000  Uiso   1.00
C1069  C     0.97902   0.31527   0.60365   0.00000  Uiso   1.00
H1070  H     0.95536   0.30650   0.62140   0.00000  Uiso   1.00
H1071  H     0.99962   0.32749   0.62323   0.00000  Uiso   1.00
H1072  H     0.96785   0.33620   0.58380   0.00000  Uiso   1.00
C1073  C     0.81648   0.01542   0.39612   0.00000  Uiso   1.00
H1074  H     0.80934   0.03931   0.37791   0.00000  Uiso   1.00
H1075  H     0.83791   0.02562   0.41581   0.00000  Uiso   1.00
H1076  H     0.82723   0.49341   0.37697   0.00000  Uiso   1.00
C1077  C     0.69158   0.03598   0.60281   0.00000  Uiso   1.00
H1078  H     0.70508   0.05780   0.61978   0.00000  Uiso   1.00
H1079  H     0.67338   0.05108   0.58296   0.00000  Uiso   1.00
H1080  H     0.67556   0.01835   0.62259   0.00000  Uiso   1.00
C1081  C     0.78477   0.05915   0.89763   0.00000  Uiso   1.00
H1082  H     0.80751   0.04537   0.88219   0.00000  Uiso   1.00
H1083  H     0.76778   0.07403   0.87632   0.00000  Uiso   1.00
H1084  H     0.79828   0.07857   0.91752   0.00000  Uiso   1.00
C1085  C     0.77348   0.43554   0.10290   0.00000  Uiso   1.00
H1086  H     0.79738   0.44503   0.11966   0.00000  Uiso   1.00
H1087  H     0.75368   0.42318   0.12334   0.00000  Uiso   1.00
H1088  H     0.78449   0.41460   0.08276   0.00000  Uiso   1.00
C1089  C     0.94082   0.21488   0.89752   0.00000  Uiso   1.00
H1090  H     0.95444   0.19249   0.88125   0.00000  Uiso   1.00
H1091  H     0.92214   0.20057   0.91760   0.00000  Uiso   1.00
H1092  H     0.92518   0.23202   0.87687   0.00000  Uiso   1.00
C1093  C     0.56467   0.22890   0.10245   0.00000  Uiso   1.00
H1094  H     0.55570   0.20452   0.11893   0.00000  Uiso   1.00
H1095  H     0.58588   0.21848   0.08233   0.00000  Uiso   1.00
H1096  H     0.57634   0.24913   0.12296   0.00000  Uiso   1.00
C1097  C     0.71478   0.44093   0.89802   0.00000  Uiso   1.00
H1098  H     0.69236   0.45505   0.88275   0.00000  Uiso   1.00
H1099  H     0.73135   0.42535   0.87658   0.00000  Uiso   1.00
H1100  H     0.70086   0.42205   0.91822   0.00000  Uiso   1.00
C1101  C     0.72849   0.06556   0.10385   0.00000  Uiso   1.00
H1102  H     0.70499   0.05654   0.12168   0.00000  Uiso   1.00
H1103  H     0.74904   0.07794   0.12339   0.00000  Uiso   1.00
H1104  H     0.71706   0.08642   0.08409   0.00000  Uiso   1.00
C1105  C     0.55823   0.28620   0.89741   0.00000  Uiso   1.00
H1106  H     0.57680   0.30052   0.91750   0.00000  Uiso   1.00
H1107  H     0.57401   0.26939   0.87634   0.00000  Uiso   1.00
H1108  H     0.54436   0.30860   0.88161   0.00000  Uiso   1.00
C1109  C     0.93442   0.27056   0.10387   0.00000  Uiso   1.00
H1110  H     0.91335   0.28162   0.08424   0.00000  Uiso   1.00
H1111  H     0.92260   0.24980   0.12367   0.00000  Uiso   1.00
H1112  H     0.94325   0.29438   0.12138   0.00000  Uiso   1.00
Zn1113 Zn    0.20660   0.50000   0.21735   0.00000  Uiso   1.00
Zn1114 Zn    0.29341   0.50000   0.78265   0.00000  Uiso   1.00
Zn1115 Zn    0.00000   0.70659   0.21735   0.00000  Uiso   1.00
Zn1116 Zn    0.00000   0.79340   0.78265   0.00000  Uiso   1.00
Zn1117 Zn    0.29341   0.50000   0.21735   0.00000  Uiso   1.00
Zn1118 Zn    0.20660   0.50000   0.78265   0.00000  Uiso   1.00
Zn1119 Zn    0.00000   0.79340   0.21735   0.00000  Uiso   1.00
Zn1120 Zn    0.00000   0.70659   0.78265   0.00000  Uiso   1.00
Zn1121 Zn    0.45660   0.75000   0.71735   0.00000  Uiso   1.00
Zn1122 Zn    0.04341   0.75000   0.28265   0.00000  Uiso   1.00
Zn1123 Zn    0.25000   0.95660   0.71735   0.00000  Uiso   1.00
Zn1124 Zn    0.25000   0.54340   0.28265   0.00000  Uiso   1.00
Zn1125 Zn    0.04341   0.75000   0.71735   0.00000  Uiso   1.00
Zn1126 Zn    0.45660   0.75000   0.28265   0.00000  Uiso   1.00
Zn1127 Zn    0.25000   0.54340   0.71735   0.00000  Uiso   1.00
Zn1128 Zn    0.25000   0.95660   0.28265   0.00000  Uiso   1.00
C1129  C     0.01206   0.78074   0.41877   0.00000  Uiso   1.00
C1130  C     0.00535   0.71677   0.58181   0.00000  Uiso   1.00
C1131  C     0.21671   0.99882   0.41804   0.00000  Uiso   1.00
C1132  C     0.28051   0.98624   0.58117   0.00000  Uiso   1.00
C1133  C     0.48784   0.71872   0.41862   0.00000  Uiso   1.00
C1134  C     0.49499   0.78275   0.58194   0.00000  Uiso   1.00
C1135  C     0.28307   0.50228   0.41793   0.00000  Uiso   1.00
C1136  C     0.21958   0.51297   0.58144   0.00000  Uiso   1.00
C1137  C     0.26194   0.53103   0.91875   0.00000  Uiso   1.00
C1138  C     0.25625   0.96749   0.08173   0.00000  Uiso   1.00
C1139  C     0.46888   0.73780   0.91867   0.00000  Uiso   1.00
C1140  C     0.03241   0.74523   0.08143   0.00000  Uiso   1.00
C1141  C     0.23790   0.96898   0.91884   0.00000  Uiso   1.00
C1142  C     0.24470   0.53324   0.08201   0.00000  Uiso   1.00
C1143  C     0.03038   0.76289   0.91854   0.00000  Uiso   1.00
C1144  C     0.46674   0.75479   0.08197   0.00000  Uiso   1.00
C1145  C     0.49984   0.74981   0.39834   0.00000  Uiso   1.00
C1146  C     0.00018   0.74980   0.60201   0.00000  Uiso   1.00
C1147  C     0.24996   0.50027   0.39795   0.00000  Uiso   1.00
C1148  C     0.25009   0.99978   0.60163   0.00000  Uiso   1.00
C1149  C     0.24987   0.99999   0.89842   0.00000  Uiso   1.00
C1150  C     0.25033   0.50030   0.10202   0.00000  Uiso   1.00
C1151  C     0.49973   0.75020   0.89830   0.00000  Uiso   1.00
C1152  C     0.49964   0.74992   0.10187   0.00000  Uiso   1.00
O1153  O     0.25000   0.50000   0.25000   0.00000  Uiso   1.00
O1154  O     0.25000   0.50000   0.75000   0.00000  Uiso   1.00
O1155  O     0.00000   0.75000   0.25000   0.00000  Uiso   1.00
O1156  O     0.00000   0.75000   0.75000   0.00000  Uiso   1.00
O1157  O     0.25000   0.96964   0.33755   0.00000  Uiso   1.00
O1158  O     0.25000   0.53036   0.66245   0.00000  Uiso   1.00
O1159  O     0.03037   0.75000   0.33755   0.00000  Uiso   1.00
O1160  O     0.46964   0.75000   0.66245   0.00000  Uiso   1.00
O1161  O     0.25000   0.53036   0.33755   0.00000  Uiso   1.00
O1162  O     0.25000   0.96964   0.66245   0.00000  Uiso   1.00
O1163  O     0.46964   0.75000   0.33755   0.00000  Uiso   1.00
O1164  O     0.03037   0.75000   0.66245   0.00000  Uiso   1.00
O1165  O     0.00000   0.71963   0.83755   0.00000  Uiso   1.00
O1166  O     0.00000   0.78036   0.16245   0.00000  Uiso   1.00
O1167  O     0.28037   0.50000   0.83755   0.00000  Uiso   1.00
O1168  O     0.21964   0.50000   0.16245   0.00000  Uiso   1.00
O1169  O     0.00000   0.78036   0.83755   0.00000  Uiso   1.00
O1170  O     0.00000   0.71963   0.16245   0.00000  Uiso   1.00
O1171  O     0.21964   0.50000   0.83755   0.00000  Uiso   1.00
O1172  O     0.28037   0.50000   0.16245   0.00000  Uiso   1.00
O1173  O     0.20725   0.57307   0.27302   0.00000  Uiso   1.00
O1174  O     0.29276   0.92692   0.72698   0.00000  Uiso   1.00
O1175  O     0.42693   0.70724   0.27302   0.00000  Uiso   1.00
O1176  O     0.07308   0.79276   0.72698   0.00000  Uiso   1.00
O1177  O     0.29276   0.92692   0.27302   0.00000  Uiso   1.00
O1178  O     0.20725   0.57307   0.72698   0.00000  Uiso   1.00
O1179  O     0.07308   0.79276   0.27302   0.00000  Uiso   1.00
O1180  O     0.42693   0.70724   0.72698   0.00000  Uiso   1.00
O1181  O     0.20725   0.92693   0.72698   0.00000  Uiso   1.00
O1182  O     0.29276   0.57307   0.27302   0.00000  Uiso   1.00
O1183  O     0.42693   0.79275   0.72698   0.00000  Uiso   1.00
O1184  O     0.07308   0.70725   0.27302   0.00000  Uiso   1.00
O1185  O     0.29276   0.57307   0.72698   0.00000  Uiso   1.00
O1186  O     0.20725   0.92693   0.27302   0.00000  Uiso   1.00
O1187  O     0.07308   0.70725   0.72698   0.00000  Uiso   1.00
O1188  O     0.42693   0.79275   0.27302   0.00000  Uiso   1.00
O1189  O     0.45725   0.82307   0.77302   0.00000  Uiso   1.00
O1190  O     0.04276   0.67693   0.22698   0.00000  Uiso   1.00
O1191  O     0.17693   0.95725   0.77302   0.00000  Uiso   1.00
O1192  O     0.32308   0.54275   0.22698   0.00000  Uiso   1.00
O1193  O     0.04276   0.67693   0.77302   0.00000  Uiso   1.00
O1194  O     0.45725   0.82307   0.22698   0.00000  Uiso   1.00
O1195  O     0.32308   0.54275   0.77302   0.00000  Uiso   1.00
O1196  O     0.17693   0.95725   0.22698   0.00000  Uiso   1.00
O1197  O     0.45725   0.67692   0.22698   0.00000  Uiso   1.00
O1198  O     0.04276   0.82308   0.77302   0.00000  Uiso   1.00
O1199  O     0.17693   0.54275   0.22698   0.00000  Uiso   1.00
O1200  O     0.32308   0.95724   0.77302   0.00000  Uiso   1.00
O1201  O     0.04276   0.82308   0.22698   0.00000  Uiso   1.00
O1202  O     0.45725   0.67692   0.77302   0.00000  Uiso   1.00
O1203  O     0.32308   0.95724   0.22698   0.00000  Uiso   1.00
O1204  O     0.17693   0.54275   0.77302   0.00000  Uiso   1.00
C1205  C     0.49499   0.68303   0.47960   0.00000  Uiso   1.00
C1206  C     0.00821   0.81615   0.52068   0.00000  Uiso   1.00
C1207  C     0.31543   0.98718   0.47907   0.00000  Uiso   1.00
C1208  C     0.18401   0.50823   0.52052   0.00000  Uiso   1.00
C1209  C     0.00524   0.81639   0.47996   0.00000  Uiso   1.00
C1210  C     0.49230   0.68321   0.52040   0.00000  Uiso   1.00
C1211  C     0.18445   0.51265   0.48003   0.00000  Uiso   1.00
C1212  C     0.31599   0.99076   0.51972   0.00000  Uiso   1.00
C1213  C     0.24514   0.93342   0.97988   0.00000  Uiso   1.00
C1214  C     0.25747   0.56680   0.02059   0.00000  Uiso   1.00
C1215  C     0.06587   0.75656   0.97951   0.00000  Uiso   1.00
C1216  C     0.43351   0.74142   0.02074   0.00000  Uiso   1.00
C1217  C     0.25471   0.56687   0.97983   0.00000  Uiso   1.00
C1218  C     0.24280   0.93372   0.02071   0.00000  Uiso   1.00
C1219  C     0.43326   0.74432   0.97998   0.00000  Uiso   1.00
C1220  C     0.06553   0.75938   0.02026   0.00000  Uiso   1.00
C1221  C     0.25014   0.50007   0.35568   0.00000  Uiso   1.00
C1222  C     0.25007   0.99994   0.64415   0.00000  Uiso   1.00
C1223  C     0.49994   0.74989   0.35581   0.00000  Uiso   1.00
C1224  C     0.00007   0.74990   0.64433   0.00000  Uiso   1.00
C1225  C     0.49991   0.75005   0.85583   0.00000  Uiso   1.00
C1226  C     0.49986   0.74996   0.14425   0.00000  Uiso   1.00
C1227  C     0.24994   0.99993   0.85583   0.00000  Uiso   1.00
C1228  C     0.25009   0.50012   0.14433   0.00000  Uiso   1.00
C1229  C     0.18020   0.57002   0.25010   0.00000  Uiso   1.00
C1230  C     0.31926   0.92928   0.75060   0.00000  Uiso   1.00
C1231  C     0.42997   0.67999   0.24988   0.00000  Uiso   1.00
C1232  C     0.06956   0.82056   0.74836   0.00000  Uiso   1.00
C1233  C     0.32017   0.93024   0.25026   0.00000  Uiso   1.00
C1234  C     0.17996   0.57000   0.74991   0.00000  Uiso   1.00
C1235  C     0.07007   0.81990   0.24984   0.00000  Uiso   1.00
C1236  C     0.42987   0.68028   0.75034   0.00000  Uiso   1.00
C1237  C     0.18062   0.92906   0.75123   0.00000  Uiso   1.00
C1238  C     0.32018   0.56980   0.25038   0.00000  Uiso   1.00
C1239  C     0.43070   0.82057   0.74949   0.00000  Uiso   1.00
C1240  C     0.06989   0.67986   0.24990   0.00000  Uiso   1.00
C1241  C     0.32003   0.57001   0.74991   0.00000  Uiso   1.00
C1242  C     0.18017   0.92990   0.24987   0.00000  Uiso   1.00
C1243  C     0.06968   0.67984   0.74975   0.00000  Uiso   1.00
C1244  C     0.43008   0.82001   0.24995   0.00000  Uiso   1.00
C1245  C     0.14649   0.88096   0.21516   0.00000  Uiso   1.00
C1246  C     0.36974   0.60357   0.71640   0.00000  Uiso   1.00
C1247  C     0.09016   0.61670   0.26539   0.00000  Uiso   1.00
C1248  C     0.41057   0.88462   0.73872   0.00000  Uiso   1.00
C1249  C     0.36968   0.60301   0.28438   0.00000  Uiso   1.00
C1250  C     0.11799   0.90682   0.76819   0.00000  Uiso   1.00
C1251  C     0.41076   0.88367   0.26420   0.00000  Uiso   1.00
C1252  C     0.08997   0.61719   0.73355   0.00000  Uiso   1.00
C1253  C     0.11694   0.58963   0.73468   0.00000  Uiso   1.00
C1254  C     0.38378   0.91133   0.26303   0.00000  Uiso   1.00
C1255  C     0.08937   0.88434   0.75692   0.00000  Uiso   1.00
C1256  C     0.39742   0.62985   0.28408   0.00000  Uiso   1.00
C1257  C     0.38206   0.91018   0.73531   0.00000  Uiso   1.00
C1258  C     0.11856   0.59078   0.26862   0.00000  Uiso   1.00
C1259  C     0.39716   0.63055   0.71677   0.00000  Uiso   1.00
C1260  C     0.11941   0.85339   0.21520   0.00000  Uiso   1.00
C1261  C     0.37939   0.64802   0.78403   0.00000  Uiso   1.00
C1262  C     0.10480   0.86811   0.28407   0.00000  Uiso   1.00
C1263  C     0.33919   0.86480   0.76147   0.00000  Uiso   1.00
C1264  C     0.15959   0.63207   0.23235   0.00000  Uiso   1.00
C1265  C     0.13147   0.84175   0.72562   0.00000  Uiso   1.00
C1266  C     0.38055   0.64640   0.21652   0.00000  Uiso   1.00
C1267  C     0.15971   0.63336   0.76491   0.00000  Uiso   1.00
C1268  C     0.33985   0.86681   0.23639   0.00000  Uiso   1.00
C1269  C     0.36767   0.84029   0.23423   0.00000  Uiso   1.00
C1270  C     0.13153   0.65964   0.76747   0.00000  Uiso   1.00
C1271  C     0.35346   0.61911   0.21659   0.00000  Uiso   1.00
C1272  C     0.16019   0.86632   0.73237   0.00000  Uiso   1.00
C1273  C     0.13243   0.65948   0.23288   0.00000  Uiso   1.00
C1274  C     0.36754   0.83878   0.76377   0.00000  Uiso   1.00
C1275  C     0.13217   0.89509   0.28414   0.00000  Uiso   1.00
C1276  C     0.35286   0.62001   0.78412   0.00000  Uiso   1.00
C1277  C     0.49469   0.71658   0.45907   0.00000  Uiso   1.00
C1278  C     0.00166   0.78332   0.54138   0.00000  Uiso   1.00
C1279  C     0.28319   0.99581   0.45845   0.00000  Uiso   1.00
C1280  C     0.21730   0.50641   0.54098   0.00000  Uiso   1.00
C1281  C     0.00526   0.78285   0.45924   0.00000  Uiso   1.00
C1282  C     0.49869   0.71608   0.54126   0.00000  Uiso   1.00
C1283  C     0.21664   0.50445   0.45881   0.00000  Uiso   1.00
C1284  C     0.28274   0.99262   0.54062   0.00000  Uiso   1.00
C1285  C     0.24481   0.96695   0.95926   0.00000  Uiso   1.00
C1286  C     0.25132   0.53393   0.04139   0.00000  Uiso   1.00
C1287  C     0.03250   0.75615   0.95897   0.00000  Uiso   1.00
C1288  C     0.46612   0.74828   0.04137   0.00000  Uiso   1.00
C1289  C     0.25507   0.53326   0.95922   0.00000  Uiso   1.00
C1290  C     0.24920   0.96668   0.04133   0.00000  Uiso   1.00
C1291  C     0.46665   0.74463   0.95917   0.00000  Uiso   1.00
C1292  C     0.03293   0.75226   0.04102   0.00000  Uiso   1.00
C1293  C     0.09846   0.84779   0.24953   0.00000  Uiso   1.00
C1294  C     0.40165   0.65238   0.75051   0.00000  Uiso   1.00
C1295  C     0.15235   0.59827   0.25059   0.00000  Uiso   1.00
C1296  C     0.34728   0.90095   0.74941   0.00000  Uiso   1.00
C1297  C     0.40219   0.65150   0.25019   0.00000  Uiso   1.00
C1298  C     0.09724   0.84905   0.74375   0.00000  Uiso   1.00
C1299  C     0.34838   0.90221   0.25011   0.00000  Uiso   1.00
C1300  C     0.15173   0.59821   0.74976   0.00000  Uiso   1.00
C1301  C     0.09761   0.65169   0.75021   0.00000  Uiso   1.00
C1302  C     0.40221   0.84839   0.24991   0.00000  Uiso   1.00
C1303  C     0.15308   0.89988   0.75211   0.00000  Uiso   1.00
C1304  C     0.34833   0.59783   0.25050   0.00000  Uiso   1.00
C1305  C     0.40261   0.84863   0.75093   0.00000  Uiso   1.00
C1306  C     0.09797   0.65150   0.24939   0.00000  Uiso   1.00
C1307  C     0.34797   0.59848   0.75011   0.00000  Uiso   1.00
C1308  C     0.15238   0.90149   0.24968   0.00000  Uiso   1.00
C1309  C     0.49999   0.74971   0.47975   0.00000  Uiso   1.00
C1310  C     0.00010   0.74970   0.52076   0.00000  Uiso   1.00
C1311  C     0.24993   0.99988   0.47918   0.00000  Uiso   1.00
C1312  C     0.25000   0.99961   0.52021   0.00000  Uiso   1.00
C1313  C     0.25000   0.50016   0.97983   0.00000  Uiso   1.00
C1314  C     0.25014   0.50026   0.02080   0.00000  Uiso   1.00
C1315  C     0.49955   0.75038   0.97964   0.00000  Uiso   1.00
C1316  C     0.49953   0.75033   0.02062   0.00000  Uiso   1.00
C1317  C     0.00402   0.64704   0.45972   0.00000  Uiso   1.00
H1318  H     0.01642   0.65103   0.43061   0.00000  Uiso   1.00
H1319  H     0.02480   0.63207   0.47683   0.00000  Uiso   1.00
H1320  H     0.47949   0.62962   0.45738   0.00000  Uiso   1.00
C1321  C     0.02401   0.84975   0.54014   0.00000  Uiso   1.00
H1322  H     0.03606   0.84341   0.56884   0.00000  Uiso   1.00
H1323  H     0.04686   0.86053   0.52239   0.00000  Uiso   1.00
H1324  H     0.00314   0.87153   0.54311   0.00000  Uiso   1.00
C1325  C     0.34779   0.96876   0.45970   0.00000  Uiso   1.00
H1326  H     0.34066   0.95657   0.43122   0.00000  Uiso   1.00
H1327  H     0.37068   0.98818   0.45634   0.00000  Uiso   1.00
H1328  H     0.35719   0.94548   0.47774   0.00000  Uiso   1.00
C1329  C     0.14785   0.99956   0.53977   0.00000  Uiso   1.00
H1330  H     0.13254   0.97990   0.52147   0.00000  Uiso   1.00
H1331  H     0.15138   0.98587   0.56823   0.00000  Uiso   1.00
H1332  H     0.13109   0.52460   0.54332   0.00000  Uiso   1.00
C1333  C     0.49631   0.85245   0.46045   0.00000  Uiso   1.00
H1334  H     0.48411   0.84859   0.43131   0.00000  Uiso   1.00
H1335  H     0.47544   0.86733   0.47780   0.00000  Uiso   1.00
H1336  H     0.02084   0.86989   0.45823   0.00000  Uiso   1.00
C1337  C     0.47699   0.64938   0.53984   0.00000  Uiso   1.00
H1338  H     0.46497   0.65555   0.56868   0.00000  Uiso   1.00
H1339  H     0.45423   0.63831   0.52232   0.00000  Uiso   1.00
H1340  H     0.49816   0.62788   0.54244   0.00000  Uiso   1.00
C1341  C     0.15208   0.53167   0.46174   0.00000  Uiso   1.00
H1342  H     0.15962   0.54583   0.43445   0.00000  Uiso   1.00
H1343  H     0.12958   0.51214   0.45669   0.00000  Uiso   1.00
H1344  H     0.14192   0.55365   0.48132   0.00000  Uiso   1.00
C1345  C     0.35231   0.99847   0.53880   0.00000  Uiso   1.00
H1346  H     0.34912   0.51148   0.56776   0.00000  Uiso   1.00
H1347  H     0.36873   0.97311   0.54124   0.00000  Uiso   1.00
H1348  H     0.36782   0.51840   0.52101   0.00000  Uiso   1.00
C1349  C     0.25374   0.89734   0.96001   0.00000  Uiso   1.00
H1350  H     0.26577   0.90117   0.93069   0.00000  Uiso   1.00
H1351  H     0.27467   0.88231   0.97686   0.00000  Uiso   1.00
H1352  H     0.22909   0.88005   0.95810   0.00000  Uiso   1.00
C1353  C     0.27264   0.60073   0.04001   0.00000  Uiso   1.00
H1354  H     0.28468   0.59468   0.06875   0.00000  Uiso   1.00
H1355  H     0.29538   0.61184   0.02233   0.00000  Uiso   1.00
H1356  H     0.25139   0.62215   0.04283   0.00000  Uiso   1.00
C1357  C     0.10191   0.74810   0.95975   0.00000  Uiso   1.00
H1358  H     0.11704   0.72740   0.97690   0.00000  Uiso   1.00
H1359  H     0.09829   0.73568   0.93061   0.00000  Uiso   1.00
H1360  H     0.11887   0.77303   0.95756   0.00000  Uiso   1.00
C1361  C     0.40015   0.72541   0.04036   0.00000  Uiso   1.00
H1362  H     0.38947   0.70242   0.02268   0.00000  Uiso   1.00
H1363  H     0.40653   0.71333   0.06906   0.00000  Uiso   1.00
H1364  H     0.37841   0.74631   0.04339   0.00000  Uiso   1.00
C1365  C     0.24561   0.60279   0.96010   0.00000  Uiso   1.00
H1366  H     0.23352   0.59872   0.93094   0.00000  Uiso   1.00
H1367  H     0.22459   0.61762   0.97728   0.00000  Uiso   1.00
H1368  H     0.27004   0.62037   0.95786   0.00000  Uiso   1.00
C1369  C     0.22789   0.89992   0.04060   0.00000  Uiso   1.00
H1370  H     0.21637   0.90612   0.06972   0.00000  Uiso   1.00
H1371  H     0.20485   0.88875   0.02357   0.00000  Uiso   1.00
H1372  H     0.24915   0.87847   0.04286   0.00000  Uiso   1.00
C1373  C     0.39729   0.75297   0.96054   0.00000  Uiso   1.00
H1374  H     0.40103   0.76555   0.93152   0.00000  Uiso   1.00
H1375  H     0.38028   0.72810   0.95813   0.00000  Uiso   1.00
H1376  H     0.38215   0.77359   0.97801   0.00000  Uiso   1.00
C1377  C     0.09878   0.77546   0.03982   0.00000  Uiso   1.00
H1378  H     0.09238   0.78697   0.06891   0.00000  Uiso   1.00
H1379  H     0.12076   0.75477   0.04210   0.00000  Uiso   1.00
H1380  H     0.10912   0.79884   0.02253   0.00000  Uiso   1.00
C1381  C     0.16948   0.88883   0.17870   0.00000  Uiso   1.00
C1382  C     0.20941   0.87804   0.18383   0.00000  Uiso   1.00
H1383  H     0.22474   0.90010   0.19847   0.00000  Uiso   1.00
H1384  H     0.21185   0.85256   0.20099   0.00000  Uiso   1.00
H1385  H     0.22218   0.87330   0.15494   0.00000  Uiso   1.00
H1386  H     0.15978   0.87476   0.15238   0.00000  Uiso   1.00
H1387  H     0.16751   0.91810   0.17079   0.00000  Uiso   1.00
C1388  C     0.36532   0.57814   0.68136   0.00000  Uiso   1.00
C1389  C     0.38578   0.54239   0.68754   0.00000  Uiso   1.00
H1390  H     0.37607   0.52875   0.71436   0.00000  Uiso   1.00
H1391  H     0.38110   0.52408   0.66232   0.00000  Uiso   1.00
H1392  H     0.41540   0.54744   0.69020   0.00000  Uiso   1.00
H1393  H     0.33640   0.57228   0.67541   0.00000  Uiso   1.00
H1394  H     0.37477   0.59041   0.65381   0.00000  Uiso   1.00
C1395  C     0.05113   0.60668   0.27633   0.00000  Uiso   1.00
C1396  C     0.03107   0.59090   0.24114   0.00000  Uiso   1.00
H1397  H     0.00676   0.57556   0.25093   0.00000  Uiso   1.00
H1398  H     0.02198   0.61289   0.22134   0.00000  Uiso   1.00
H1399  H     0.04876   0.57193   0.22434   0.00000  Uiso   1.00
H1400  H     0.04982   0.58668   0.30029   0.00000  Uiso   1.00
H1401  H     0.03587   0.63060   0.28784   0.00000  Uiso   1.00
C1402  C     0.44954   0.89714   0.73235   0.00000  Uiso   1.00
C1403  C     0.46173   0.92054   0.76691   0.00000  Uiso   1.00
H1404  H     0.44032   0.94017   0.77618   0.00000  Uiso   1.00
H1405  H     0.46830   0.90272   0.79203   0.00000  Uiso   1.00
H1406  H     0.48598   0.93671   0.75887   0.00000  Uiso   1.00
H1407  H     0.46892   0.87423   0.72859   0.00000  Uiso   1.00
H1408  H     0.45216   0.91276   0.70494   0.00000  Uiso   1.00
C1409  C     0.36230   0.57971   0.32057   0.00000  Uiso   1.00
C1410  C     0.37338   0.53978   0.31463   0.00000  Uiso   1.00
H1411  H     0.37857   0.52675   0.34319   0.00000  Uiso   1.00
H1412  H     0.35130   0.52439   0.30025   0.00000  Uiso   1.00
H1413  H     0.39856   0.53767   0.29688   0.00000  Uiso   1.00
H1414  H     0.37626   0.58955   0.34686   0.00000  Uiso   1.00
H1415  H     0.33317   0.58141   0.32872   0.00000  Uiso   1.00
C1416  C     0.11064   0.93480   0.80035   0.00000  Uiso   1.00
C1417  C     0.13136   0.92512   0.83742   0.00000  Uiso   1.00
H1418  H     0.16089   0.92187   0.83194   0.00000  Uiso   1.00
H1419  H     0.12721   0.94697   0.85947   0.00000  Uiso   1.00
H1420  H     0.12094   0.89903   0.84950   0.00000  Uiso   1.00
H1421  H     0.11620   0.96306   0.79056   0.00000  Uiso   1.00
H1422  H     0.08166   0.93502   0.80937   0.00000  Uiso   1.00
C1423  C     0.44881   0.89145   0.27995   0.00000  Uiso   1.00
C1424  C     0.47282   0.91004   0.24948   0.00000  Uiso   1.00
H1425  H     0.49777   0.92075   0.26330   0.00000  Uiso   1.00
H1426  H     0.48078   0.89028   0.22643   0.00000  Uiso   1.00
H1427  H     0.45876   0.93324   0.23561   0.00000  Uiso   1.00
H1428  H     0.44776   0.90759   0.30718   0.00000  Uiso   1.00
H1429  H     0.46273   0.86617   0.28953   0.00000  Uiso   1.00
C1430  C     0.05353   0.61064   0.71336   0.00000  Uiso   1.00
C1431  C     0.02521   0.59435   0.74100   0.00000  Uiso   1.00
H1432  H     0.03518   0.56870   0.75436   0.00000  Uiso   1.00
H1433  H     0.01834   0.61379   0.76467   0.00000  Uiso   1.00
H1434  H     0.49997   0.58832   0.72462   0.00000  Uiso   1.00
H1435  H     0.04240   0.63629   0.70097   0.00000  Uiso   1.00
H1436  H     0.05685   0.59275   0.68754   0.00000  Uiso   1.00
C1437  C     0.10967   0.55167   0.71785   0.00000  Uiso   1.00
C1438  C     0.12440   0.54840   0.67649   0.00000  Uiso   1.00
H1439  H     0.11117   0.56868   0.65717   0.00000  Uiso   1.00
H1440  H     0.15413   0.55311   0.67613   0.00000  Uiso   1.00
H1441  H     0.11892   0.52057   0.66505   0.00000  Uiso   1.00
H1442  H     0.12182   0.53004   0.73619   0.00000  Uiso   1.00
H1443  H     0.08048   0.54467   0.71765   0.00000  Uiso   1.00
C1444  C     0.39175   0.95056   0.27603   0.00000  Uiso   1.00
C1445  C     0.39998   0.97586   0.24153   0.00000  Uiso   1.00
H1446  H     0.40178   0.96058   0.21361   0.00000  Uiso   1.00
H1447  H     0.37856   0.99701   0.23873   0.00000  Uiso   1.00
H1448  H     0.42613   0.99026   0.24621   0.00000  Uiso   1.00
H1449  H     0.36836   0.96143   0.29300   0.00000  Uiso   1.00
H1450  H     0.41431   0.95259   0.29693   0.00000  Uiso   1.00
C1451  C     0.05212   0.90089   0.74935   0.00000  Uiso   1.00
C1452  C     0.04225   0.89788   0.70617   0.00000  Uiso   1.00
H1453  H     0.06544   0.90674   0.68768   0.00000  Uiso   1.00
H1454  H     0.03491   0.86939   0.69846   0.00000  Uiso   1.00
H1455  H     0.01880   0.91585   0.69955   0.00000  Uiso   1.00
H1456  H     0.03116   0.88779   0.76773   0.00000  Uiso   1.00
H1457  H     0.05159   0.93052   0.75607   0.00000  Uiso   1.00
C1458  C     0.42247   0.63503   0.31933   0.00000  Uiso   1.00
C1459  C     0.45044   0.60431   0.32280   0.00000  Uiso   1.00
H1460  H     0.43761   0.57808   0.33066   0.00000  Uiso   1.00
H1461  H     0.46527   0.60109   0.29489   0.00000  Uiso   1.00
H1462  H     0.47036   0.61117   0.34585   0.00000  Uiso   1.00
H1463  H     0.43838   0.66046   0.31819   0.00000  Uiso   1.00
H1464  H     0.40663   0.63837   0.34660   0.00000  Uiso   1.00
C1465  C     0.38738   0.94487   0.71124   0.00000  Uiso   1.00
C1466  C     0.38475   0.93593   0.66789   0.00000  Uiso   1.00
H1467  H     0.40502   0.91487   0.65930   0.00000  Uiso   1.00
H1468  H     0.35715   0.92557   0.66108   0.00000  Uiso   1.00
H1469  H     0.38984   0.96080   0.65038   0.00000  Uiso   1.00
H1470  H     0.36675   0.96602   0.71775   0.00000  Uiso   1.00
H1471  H     0.41357   0.95847   0.71748   0.00000  Uiso   1.00
C1472  C     0.11435   0.55630   0.29342   0.00000  Uiso   1.00
C1473  C     0.09689   0.52466   0.27132   0.00000  Uiso   1.00
H1474  H     0.10830   0.52227   0.24148   0.00000  Uiso   1.00
H1475  H     0.10223   0.99869   0.28697   0.00000  Uiso   1.00
H1476  H     0.06705   0.52826   0.26973   0.00000  Uiso   1.00
H1477  H     0.14110   0.54683   0.30434   0.00000  Uiso   1.00
H1478  H     0.09913   0.56213   0.32064   0.00000  Uiso   1.00
C1479  C     0.42277   0.63524   0.68187   0.00000  Uiso   1.00
C1480  C     0.40648   0.66049   0.65104   0.00000  Uiso   1.00
H1481  H     0.38004   0.65011   0.64041   0.00000  Uiso   1.00
H1482  H     0.40201   0.68832   0.66289   0.00000  Uiso   1.00
H1483  H     0.42545   0.66251   0.62599   0.00000  Uiso   1.00
H1484  H     0.44957   0.64628   0.69066   0.00000  Uiso   1.00
H1485  H     0.43002   0.60855   0.66866   0.00000  Uiso   1.00
C1486  C     0.11340   0.82931   0.17914   0.00000  Uiso   1.00
C1487  C     0.14339   0.80074   0.17406   0.00000  Uiso   1.00
H1488  H     0.17041   0.81336   0.17031   0.00000  Uiso   1.00
H1489  H     0.14407   0.78239   0.19971   0.00000  Uiso   1.00
H1490  H     0.13781   0.78423   0.14765   0.00000  Uiso   1.00
H1491  H     0.08775   0.81385   0.17989   0.00000  Uiso   1.00
H1492  H     0.11023   0.84613   0.15261   0.00000  Uiso   1.00
C1493  C     0.38376   0.67363   0.81926   0.00000  Uiso   1.00
C1494  C     0.35069   0.69852   0.82596   0.00000  Uiso   1.00
H1495  H     0.35962   0.72555   0.83708   0.00000  Uiso   1.00
H1496  H     0.33538   0.70286   0.79863   0.00000  Uiso   1.00
H1497  H     0.33210   0.68687   0.84811   0.00000  Uiso   1.00
H1498  H     0.38990   0.65765   0.84583   0.00000  Uiso   1.00
H1499  H     0.40735   0.69204   0.81648   0.00000  Uiso   1.00
C1500  C     0.08069   0.86238   0.32007   0.00000  Uiso   1.00
C1501  C     0.04454   0.88229   0.31580   0.00000  Uiso   1.00
H1502  H     0.02853   0.86961   0.29217   0.00000  Uiso   1.00
H1503  H     0.02871   0.88049   0.34326   0.00000  Uiso   1.00
H1504  H     0.04918   0.91158   0.30915   0.00000  Uiso   1.00
H1505  H     0.07582   0.83314   0.32576   0.00000  Uiso   1.00
H1506  H     0.09336   0.87149   0.34746   0.00000  Uiso   1.00
C1507  C     0.29997   0.85232   0.76483   0.00000  Uiso   1.00
C1508  C     0.28784   0.83684   0.72566   0.00000  Uiso   1.00
H1509  H     0.26453   0.81822   0.72989   0.00000  Uiso   1.00
H1510  H     0.28043   0.85944   0.70587   0.00000  Uiso   1.00
H1511  H     0.30967   0.82106   0.71100   0.00000  Uiso   1.00
H1512  H     0.29608   0.83151   0.78768   0.00000  Uiso   1.00
H1513  H     0.28144   0.87478   0.77382   0.00000  Uiso   1.00
C1514  C     0.19606   0.63821   0.21177   0.00000  Uiso   1.00
C1515  C     0.22387   0.65595   0.23875   0.00000  Uiso   1.00
H1516  H     0.21372   0.68244   0.25019   0.00000  Uiso   1.00
H1517  H     0.23000   0.63791   0.26373   0.00000  Uiso   1.00
H1518  H     0.24953   0.66083   0.22246   0.00000  Uiso   1.00
H1519  H     0.20764   0.61223   0.20046   0.00000  Uiso   1.00
H1520  H     0.19285   0.65498   0.18522   0.00000  Uiso   1.00
C1521  C     0.13669   0.81041   0.69604   0.00000  Uiso   1.00
C1522  C     0.11459   0.81703   0.65898   0.00000  Uiso   1.00
H1523  H     0.11657   0.79273   0.63970   0.00000  Uiso   1.00
H1524  H     0.08548   0.82248   0.66516   0.00000  Uiso   1.00
H1525  H     0.12560   0.84097   0.64311   0.00000  Uiso   1.00
H1526  H     0.16479   0.80656   0.68573   0.00000  Uiso   1.00
H1527  H     0.13117   0.78342   0.70909   0.00000  Uiso   1.00
C1528  C     0.38448   0.67225   0.18187   0.00000  Uiso   1.00
C1529  C     0.36194   0.70673   0.18826   0.00000  Uiso   1.00
H1530  H     0.37109   0.72107   0.21488   0.00000  Uiso   1.00
H1531  H     0.36527   0.72503   0.16288   0.00000  Uiso   1.00
H1532  H     0.33269   0.70000   0.19151   0.00000  Uiso   1.00
H1533  H     0.41310   0.67992   0.17645   0.00000  Uiso   1.00
H1534  H     0.37643   0.65955   0.15403   0.00000  Uiso   1.00
C1535  C     0.19837   0.64264   0.77762   0.00000  Uiso   1.00
C1536  C     0.22099   0.65735   0.74359   0.00000  Uiso   1.00
H1537  H     0.23180   0.63486   0.72532   0.00000  Uiso   1.00
H1538  H     0.20459   0.67563   0.72480   0.00000  Uiso   1.00
H1539  H     0.24444   0.67308   0.75484   0.00000  Uiso   1.00
H1540  H     0.19896   0.66283   0.80151   0.00000  Uiso   1.00
H1541  H     0.21204   0.61847   0.79031   0.00000  Uiso   1.00
C1542  C     0.30100   0.85731   0.22443   0.00000  Uiso   1.00
C1543  C     0.28109   0.83798   0.25758   0.00000  Uiso   1.00
H1544  H     0.29592   0.81295   0.26652   0.00000  Uiso   1.00
H1545  H     0.27849   0.85638   0.28315   0.00000  Uiso   1.00
H1546  H     0.25346   0.83000   0.24808   0.00000  Uiso   1.00
H1547  H     0.28519   0.88178   0.21600   0.00000  Uiso   1.00
H1548  H     0.30027   0.84017   0.19788   0.00000  Uiso   1.00
C1549  C     0.36205   0.80526   0.21087   0.00000  Uiso   1.00
C1550  C     0.36848   0.81260   0.16765   0.00000  Uiso   1.00
H1551  H     0.35022   0.83450   0.15690   0.00000  Uiso   1.00
H1552  H     0.39703   0.82124   0.16287   0.00000  Uiso   1.00
H1553  H     0.36330   0.78755   0.15044   0.00000  Uiso   1.00
H1554  H     0.38077   0.78322   0.21988   0.00000  Uiso   1.00
H1555  H     0.33470   0.79347   0.21554   0.00000  Uiso   1.00
C1556  C     0.13634   0.69539   0.79020   0.00000  Uiso   1.00
C1557  C     0.15580   0.72477   0.76654   0.00000  Uiso   1.00
H1558  H     0.18565   0.72131   0.76830   0.00000  Uiso   1.00
H1559  H     0.14723   0.72386   0.73563   0.00000  Uiso   1.00
H1560  H     0.14907   0.75218   0.77856   0.00000  Uiso   1.00
H1561  H     0.10977   0.70675   0.79974   0.00000  Uiso   1.00
H1562  H     0.15034   0.69069   0.81823   0.00000  Uiso   1.00
C1563  C     0.32869   0.61366   0.18130   0.00000  Uiso   1.00
C1564  C     0.34609   0.58837   0.15095   0.00000  Uiso   1.00
H1565  H     0.37237   0.59936   0.14040   0.00000  Uiso   1.00
H1566  H     0.35112   0.56088   0.16327   0.00000  Uiso   1.00
H1567  H     0.32754   0.58543   0.12577   0.00000  Uiso   1.00
H1568  H     0.30187   0.60228   0.18969   0.00000  Uiso   1.00
H1569  H     0.32128   0.64004   0.16773   0.00000  Uiso   1.00
C1570  C     0.19884   0.85398   0.72295   0.00000  Uiso   1.00
C1571  C     0.20929   0.86066   0.68007   0.00000  Uiso   1.00
H1572  H     0.18505   0.86542   0.66163   0.00000  Uiso   1.00
H1573  H     0.22736   0.88464   0.67701   0.00000  Uiso   1.00
H1574  H     0.22418   0.83658   0.66837   0.00000  Uiso   1.00
H1575  H     0.21884   0.86649   0.74291   0.00000  Uiso   1.00
H1576  H     0.20174   0.82457   0.73018   0.00000  Uiso   1.00
C1577  C     0.13859   0.69594   0.21248   0.00000  Uiso   1.00
C1578  C     0.12456   0.69433   0.17085   0.00000  Uiso   1.00
H1579  H     0.13753   0.67156   0.15450   0.00000  Uiso   1.00
H1580  H     0.09473   0.69023   0.17097   0.00000  Uiso   1.00
H1581  H     0.13084   0.72023   0.15570   0.00000  Uiso   1.00
H1582  H     0.12501   0.71872   0.22815   0.00000  Uiso   1.00
H1583  H     0.16752   0.70403   0.21210   0.00000  Uiso   1.00
C1584  C     0.36160   0.80112   0.78211   0.00000  Uiso   1.00
C1585  C     0.34951   0.77237   0.75247   0.00000  Uiso   1.00
H1586  H     0.35779   0.77974   0.72242   0.00000  Uiso   1.00
H1587  H     0.36237   0.74573   0.75919   0.00000  Uiso   1.00
H1588  H     0.31956   0.76899   0.75360   0.00000  Uiso   1.00
H1589  H     0.38694   0.79137   0.79621   0.00000  Uiso   1.00
H1590  H     0.34245   0.80229   0.80703   0.00000  Uiso   1.00
C1591  C     0.13921   0.91772   0.32081   0.00000  Uiso   1.00
C1592  C     0.16322   0.89670   0.34945   0.00000  Uiso   1.00
H1593  H     0.15533   0.86752   0.35139   0.00000  Uiso   1.00
H1594  H     0.19211   0.89795   0.34018   0.00000  Uiso   1.00
H1595  H     0.16067   0.90888   0.37891   0.00000  Uiso   1.00
H1596  H     0.15212   0.94438   0.31445   0.00000  Uiso   1.00
H1597  H     0.11325   0.92597   0.33486   0.00000  Uiso   1.00
C1598  C     0.32925   0.61304   0.82009   0.00000  Uiso   1.00
C1599  C     0.29045   0.62707   0.81457   0.00000  Uiso   1.00
H1600  H     0.29044   0.65441   0.80080   0.00000  Uiso   1.00
H1601  H     0.27479   0.60797   0.79614   0.00000  Uiso   1.00
H1602  H     0.27654   0.62945   0.84315   0.00000  Uiso   1.00
H1603  H     0.32880   0.58360   0.82723   0.00000  Uiso   1.00
H1604  H     0.34035   0.62533   0.84683   0.00000  Uiso   1.00
C1605  C     0.03506   0.80882   0.39774   0.00000  Uiso   1.00
H1606  H     0.05772   0.79497   0.38224   0.00000  Uiso   1.00
H1607  H     0.01822   0.82398   0.37648   0.00000  Uiso   1.00
H1608  H     0.04874   0.82803   0.41771   0.00000  Uiso   1.00
C1609  C     0.02131   0.68435   0.60337   0.00000  Uiso   1.00
H1610  H     0.04481   0.69323   0.62112   0.00000  Uiso   1.00
H1611  H     0.00064   0.67209   0.62298   0.00000  Uiso   1.00
H1612  H     0.03269   0.66345   0.58343   0.00000  Uiso   1.00
C1613  C     0.18280   0.98791   0.39589   0.00000  Uiso   1.00
H1614  H     0.18935   0.96625   0.37448   0.00000  Uiso   1.00
H1615  H     0.16200   0.97559   0.41512   0.00000  Uiso   1.00
H1616  H     0.17157   0.51159   0.37976   0.00000  Uiso   1.00
C1617  C     0.30804   0.96262   0.60232   0.00000  Uiso   1.00
H1618  H     0.29393   0.94065   0.61852   0.00000  Uiso   1.00
H1619  H     0.32644   0.94768   0.58231   0.00000  Uiso   1.00
H1620  H     0.32400   0.97942   0.62302   0.00000  Uiso   1.00
C1621  C     0.46533   0.69031   0.39744   0.00000  Uiso   1.00
H1622  H     0.44291   0.70382   0.38147   0.00000  Uiso   1.00
H1623  H     0.48256   0.67485   0.37651   0.00000  Uiso   1.00
H1624  H     0.45134   0.67134   0.41748   0.00000  Uiso   1.00
C1625  C     0.47902   0.81527   0.60365   0.00000  Uiso   1.00
H1626  H     0.45536   0.80650   0.62140   0.00000  Uiso   1.00
H1627  H     0.49962   0.82749   0.62323   0.00000  Uiso   1.00
H1628  H     0.46785   0.83620   0.58380   0.00000  Uiso   1.00
C1629  C     0.31648   0.51542   0.39612   0.00000  Uiso   1.00
H1630  H     0.30934   0.53931   0.37791   0.00000  Uiso   1.00
H1631  H     0.33791   0.52562   0.41581   0.00000  Uiso   1.00
H1632  H     0.32723   0.99341   0.37697   0.00000  Uiso   1.00
C1633  C     0.19158   0.53598   0.60281   0.00000  Uiso   1.00
H1634  H     0.20508   0.55780   0.61978   0.00000  Uiso   1.00
H1635  H     0.17338   0.55108   0.58296   0.00000  Uiso   1.00
H1636  H     0.17556   0.51835   0.62259   0.00000  Uiso   1.00
C1637  C     0.28477   0.55915   0.89763   0.00000  Uiso   1.00
H1638  H     0.30751   0.54537   0.88219   0.00000  Uiso   1.00
H1639  H     0.26778   0.57403   0.87632   0.00000  Uiso   1.00
H1640  H     0.29828   0.57857   0.91752   0.00000  Uiso   1.00
C1641  C     0.27348   0.93554   0.10290   0.00000  Uiso   1.00
H1642  H     0.29738   0.94503   0.11966   0.00000  Uiso   1.00
H1643  H     0.25368   0.92318   0.12334   0.00000  Uiso   1.00
H1644  H     0.28449   0.91460   0.08276   0.00000  Uiso   1.00
C1645  C     0.44082   0.71488   0.89752   0.00000  Uiso   1.00
H1646  H     0.45444   0.69249   0.88125   0.00000  Uiso   1.00
H1647  H     0.42214   0.70057   0.91760   0.00000  Uiso   1.00
H1648  H     0.42518   0.73202   0.87687   0.00000  Uiso   1.00
C1649  C     0.06467   0.72890   0.10245   0.00000  Uiso   1.00
H1650  H     0.05570   0.70452   0.11893   0.00000  Uiso   1.00
H1651  H     0.08588   0.71848   0.08233   0.00000  Uiso   1.00
H1652  H     0.07634   0.74913   0.12296   0.00000  Uiso   1.00
C1653  C     0.21478   0.94093   0.89802   0.00000  Uiso   1.00
H1654  H     0.19236   0.95505   0.88275   0.00000  Uiso   1.00
H1655  H     0.23135   0.92535   0.87658   0.00000  Uiso   1.00
H1656  H     0.20086   0.92205   0.91822   0.00000  Uiso   1.00
C1657  C     0.22849   0.56556   0.10385   0.00000  Uiso   1.00
H1658  H     0.20499   0.55654   0.12168   0.00000  Uiso   1.00
H1659  H     0.24904   0.57794   0.12339   0.00000  Uiso   1.00
H1660  H     0.21706   0.58642   0.08409   0.00000  Uiso   1.00
C1661  C     0.05823   0.78620   0.89741   0.00000  Uiso   1.00
H1662  H     0.07680   0.80052   0.91750   0.00000  Uiso   1.00
H1663  H     0.07401   0.76939   0.87634   0.00000  Uiso   1.00
H1664  H     0.04436   0.80860   0.88161   0.00000  Uiso   1.00
C1665  C     0.43442   0.77056   0.10387   0.00000  Uiso   1.00
H1666  H     0.41335   0.78162   0.08424   0.00000  Uiso   1.00
H1667  H     0.42260   0.74980   0.12367   0.00000  Uiso   1.00
H1668  H     0.44325   0.79438   0.12138   0.00000  Uiso   1.00
Zn1669 Zn    0.70660   0.50000   0.21735   0.00000  Uiso   1.00
Zn1670 Zn    0.79341   0.50000   0.78265   0.00000  Uiso   1.00
Zn1671 Zn    0.50000   0.70659   0.21735   0.00000  Uiso   1.00
Zn1672 Zn    0.50000   0.79340   0.78265   0.00000  Uiso   1.00
Zn1673 Zn    0.79341   0.50000   0.21735   0.00000  Uiso   1.00
Zn1674 Zn    0.70660   0.50000   0.78265   0.00000  Uiso   1.00
Zn1675 Zn    0.50000   0.79340   0.21735   0.00000  Uiso   1.00
Zn1676 Zn    0.50000   0.70659   0.78265   0.00000  Uiso   1.00
Zn1677 Zn    0.95660   0.75000   0.71735   0.00000  Uiso   1.00
Zn1678 Zn    0.54341   0.75000   0.28265   0.00000  Uiso   1.00
Zn1679 Zn    0.75000   0.95660   0.71735   0.00000  Uiso   1.00
Zn1680 Zn    0.75000   0.54340   0.28265   0.00000  Uiso   1.00
Zn1681 Zn    0.54341   0.75000   0.71735   0.00000  Uiso   1.00
Zn1682 Zn    0.95660   0.75000   0.28265   0.00000  Uiso   1.00
Zn1683 Zn    0.75000   0.54340   0.71735   0.00000  Uiso   1.00
Zn1684 Zn    0.75000   0.95660   0.28265   0.00000  Uiso   1.00
C1685  C     0.51206   0.78074   0.41877   0.00000  Uiso   1.00
C1686  C     0.50535   0.71677   0.58181   0.00000  Uiso   1.00
C1687  C     0.71671   0.99882   0.41804   0.00000  Uiso   1.00
C1688  C     0.78051   0.98624   0.58117   0.00000  Uiso   1.00
C1689  C     0.98784   0.71872   0.41862   0.00000  Uiso   1.00
C1690  C     0.99499   0.78275   0.58194   0.00000  Uiso   1.00
C1691  C     0.78307   0.50228   0.41793   0.00000  Uiso   1.00
C1692  C     0.71958   0.51297   0.58144   0.00000  Uiso   1.00
C1693  C     0.76194   0.53103   0.91875   0.00000  Uiso   1.00
C1694  C     0.75625   0.96749   0.08173   0.00000  Uiso   1.00
C1695  C     0.96888   0.73780   0.91867   0.00000  Uiso   1.00
C1696  C     0.53241   0.74523   0.08143   0.00000  Uiso   1.00
C1697  C     0.73790   0.96898   0.91884   0.00000  Uiso   1.00
C1698  C     0.74470   0.53324   0.08201   0.00000  Uiso   1.00
C1699  C     0.53038   0.76289   0.91854   0.00000  Uiso   1.00
C1700  C     0.96674   0.75479   0.08197   0.00000  Uiso   1.00
C1701  C     0.99984   0.74981   0.39834   0.00000  Uiso   1.00
C1702  C     0.50018   0.74980   0.60201   0.00000  Uiso   1.00
C1703  C     0.74996   0.50027   0.39795   0.00000  Uiso   1.00
C1704  C     0.75009   0.99978   0.60163   0.00000  Uiso   1.00
C1705  C     0.74987   0.99999   0.89842   0.00000  Uiso   1.00
C1706  C     0.75033   0.50030   0.10202   0.00000  Uiso   1.00
C1707  C     0.99973   0.75020   0.89830   0.00000  Uiso   1.00
C1708  C     0.99964   0.74992   0.10187   0.00000  Uiso   1.00
O1709  O     0.75000   0.50000   0.25000   0.00000  Uiso   1.00
O1710  O     0.75000   0.50000   0.75000   0.00000  Uiso   1.00
O1711  O     0.50000   0.75000   0.25000   0.00000  Uiso   1.00
O1712  O     0.50000   0.75000   0.75000   0.00000  Uiso   1.00
O1713  O     0.75000   0.96964   0.33755   0.00000  Uiso   1.00
O1714  O     0.75000   0.53036   0.66245   0.00000  Uiso   1.00
O1715  O     0.53037   0.75000   0.33755   0.00000  Uiso   1.00
O1716  O     0.96964   0.75000   0.66245   0.00000  Uiso   1.00
O1717  O     0.75000   0.53036   0.33755   0.00000  Uiso   1.00
O1718  O     0.75000   0.96964   0.66245   0.00000  Uiso   1.00
O1719  O     0.96964   0.75000   0.33755   0.00000  Uiso   1.00
O1720  O     0.53037   0.75000   0.66245   0.00000  Uiso   1.00
O1721  O     0.50000   0.71963   0.83755   0.00000  Uiso   1.00
O1722  O     0.50000   0.78036   0.16245   0.00000  Uiso   1.00
O1723  O     0.78037   0.50000   0.83755   0.00000  Uiso   1.00
O1724  O     0.71964   0.50000   0.16245   0.00000  Uiso   1.00
O1725  O     0.50000   0.78036   0.83755   0.00000  Uiso   1.00
O1726  O     0.50000   0.71963   0.16245   0.00000  Uiso   1.00
O1727  O     0.71964   0.50000   0.83755   0.00000  Uiso   1.00
O1728  O     0.78037   0.50000   0.16245   0.00000  Uiso   1.00
O1729  O     0.70725   0.57307   0.27302   0.00000  Uiso   1.00
O1730  O     0.79276   0.92692   0.72698   0.00000  Uiso   1.00
O1731  O     0.92693   0.70724   0.27302   0.00000  Uiso   1.00
O1732  O     0.57308   0.79276   0.72698   0.00000  Uiso   1.00
O1733  O     0.79276   0.92692   0.27302   0.00000  Uiso   1.00
O1734  O     0.70725   0.57307   0.72698   0.00000  Uiso   1.00
O1735  O     0.57308   0.79276   0.27302   0.00000  Uiso   1.00
O1736  O     0.92693   0.70724   0.72698   0.00000  Uiso   1.00
O1737  O     0.70725   0.92693   0.72698   0.00000  Uiso   1.00
O1738  O     0.79276   0.57307   0.27302   0.00000  Uiso   1.00
O1739  O     0.92693   0.79275   0.72698   0.00000  Uiso   1.00
O1740  O     0.57308   0.70725   0.27302   0.00000  Uiso   1.00
O1741  O     0.79276   0.57307   0.72698   0.00000  Uiso   1.00
O1742  O     0.70725   0.92693   0.27302   0.00000  Uiso   1.00
O1743  O     0.57308   0.70725   0.72698   0.00000  Uiso   1.00
O1744  O     0.92693   0.79275   0.27302   0.00000  Uiso   1.00
O1745  O     0.95725   0.82307   0.77302   0.00000  Uiso   1.00
O1746  O     0.54276   0.67693   0.22698   0.00000  Uiso   1.00
O1747  O     0.67693   0.95725   0.77302   0.00000  Uiso   1.00
O1748  O     0.82308   0.54275   0.22698   0.00000  Uiso   1.00
O1749  O     0.54276   0.67693   0.77302   0.00000  Uiso   1.00
O1750  O     0.95725   0.82307   0.22698   0.00000  Uiso   1.00
O1751  O     0.82308   0.54275   0.77302   0.00000  Uiso   1.00
O1752  O     0.67693   0.95725   0.22698   0.00000  Uiso   1.00
O1753  O     0.95725   0.67692   0.22698   0.00000  Uiso   1.00
O1754  O     0.54276   0.82308   0.77302   0.00000  Uiso   1.00
O1755  O     0.67693   0.54275   0.22698   0.00000  Uiso   1.00
O1756  O     0.82308   0.95724   0.77302   0.00000  Uiso   1.00
O1757  O     0.54276   0.82308   0.22698   0.00000  Uiso   1.00
O1758  O     0.95725   0.67692   0.77302   0.00000  Uiso   1.00
O1759  O     0.82308   0.95724   0.22698   0.00000  Uiso   1.00
O1760  O     0.67693   0.54275   0.77302   0.00000  Uiso   1.00
C1761  C     0.99499   0.68303   0.47960   0.00000  Uiso   1.00
C1762  C     0.50821   0.81615   0.52068   0.00000  Uiso   1.00
C1763  C     0.81543   0.98718   0.47907   0.00000  Uiso   1.00
C1764  C     0.68401   0.50823   0.52052   0.00000  Uiso   1.00
C1765  C     0.50524   0.81639   0.47996   0.00000  Uiso   1.00
C1766  C     0.99230   0.68321   0.52040   0.00000  Uiso   1.00
C1767  C     0.68445   0.51265   0.48003   0.00000  Uiso   1.00
C1768  C     0.81599   0.99076   0.51972   0.00000  Uiso   1.00
C1769  C     0.74514   0.93342   0.97988   0.00000  Uiso   1.00
C1770  C     0.75747   0.56680   0.02059   0.00000  Uiso   1.00
C1771  C     0.56587   0.75656   0.97951   0.00000  Uiso   1.00
C1772  C     0.93351   0.74142   0.02074   0.00000  Uiso   1.00
C1773  C     0.75471   0.56687   0.97983   0.00000  Uiso   1.00
C1774  C     0.74280   0.93372   0.02071   0.00000  Uiso   1.00
C1775  C     0.93326   0.74432   0.97998   0.00000  Uiso   1.00
C1776  C     0.56553   0.75938   0.02026   0.00000  Uiso   1.00
C1777  C     0.75014   0.50007   0.35568   0.00000  Uiso   1.00
C1778  C     0.75007   0.99994   0.64415   0.00000  Uiso   1.00
C1779  C     0.99994   0.74989   0.35581   0.00000  Uiso   1.00
C1780  C     0.50007   0.74990   0.64433   0.00000  Uiso   1.00
C1781  C     0.99991   0.75005   0.85583   0.00000  Uiso   1.00
C1782  C     0.99986   0.74996   0.14425   0.00000  Uiso   1.00
C1783  C     0.74994   0.99993   0.85583   0.00000  Uiso   1.00
C1784  C     0.75009   0.50012   0.14433   0.00000  Uiso   1.00
C1785  C     0.68020   0.57002   0.25010   0.00000  Uiso   1.00
C1786  C     0.81926   0.92928   0.75060   0.00000  Uiso   1.00
C1787  C     0.92997   0.67999   0.24988   0.00000  Uiso   1.00
C1788  C     0.56956   0.82056   0.74836   0.00000  Uiso   1.00
C1789  C     0.82017   0.93024   0.25026   0.00000  Uiso   1.00
C1790  C     0.67996   0.57000   0.74991   0.00000  Uiso   1.00
C1791  C     0.57007   0.81990   0.24984   0.00000  Uiso   1.00
C1792  C     0.92987   0.68028   0.75034   0.00000  Uiso   1.00
C1793  C     0.68062   0.92906   0.75123   0.00000  Uiso   1.00
C1794  C     0.82018   0.56980   0.25038   0.00000  Uiso   1.00
C1795  C     0.93070   0.82057   0.74949   0.00000  Uiso   1.00
C1796  C     0.56989   0.67986   0.24990   0.00000  Uiso   1.00
C1797  C     0.82003   0.57001   0.74991   0.00000  Uiso   1.00
C1798  C     0.68017   0.92990   0.24987   0.00000  Uiso   1.00
C1799  C     0.56968   0.67984   0.74975   0.00000  Uiso   1.00
C1800  C     0.93008   0.82001   0.24995   0.00000  Uiso   1.00
C1801  C     0.64649   0.88096   0.21516   0.00000  Uiso   1.00
C1802  C     0.86974   0.60357   0.71640   0.00000  Uiso   1.00
C1803  C     0.59016   0.61670   0.26539   0.00000  Uiso   1.00
C1804  C     0.91057   0.88462   0.73872   0.00000  Uiso   1.00
C1805  C     0.86968   0.60301   0.28438   0.00000  Uiso   1.00
C1806  C     0.61799   0.90682   0.76819   0.00000  Uiso   1.00
C1807  C     0.91076   0.88367   0.26420   0.00000  Uiso   1.00
C1808  C     0.58997   0.61719   0.73355   0.00000  Uiso   1.00
C1809  C     0.61694   0.58963   0.73468   0.00000  Uiso   1.00
C1810  C     0.88378   0.91133   0.26303   0.00000  Uiso   1.00
C1811  C     0.58937   0.88434   0.75692   0.00000  Uiso   1.00
C1812  C     0.89742   0.62985   0.28408   0.00000  Uiso   1.00
C1813  C     0.88206   0.91018   0.73531   0.00000  Uiso   1.00
C1814  C     0.61856   0.59078   0.26862   0.00000  Uiso   1.00
C1815  C     0.89716   0.63055   0.71677   0.00000  Uiso   1.00
C1816  C     0.61941   0.85339   0.21520   0.00000  Uiso   1.00
C1817  C     0.87939   0.64802   0.78403   0.00000  Uiso   1.00
C1818  C     0.60480   0.86811   0.28407   0.00000  Uiso   1.00
C1819  C     0.83919   0.86480   0.76147   0.00000  Uiso   1.00
C1820  C     0.65959   0.63207   0.23235   0.00000  Uiso   1.00
C1821  C     0.63147   0.84175   0.72562   0.00000  Uiso   1.00
C1822  C     0.88055   0.64640   0.21652   0.00000  Uiso   1.00
C1823  C     0.65971   0.63336   0.76491   0.00000  Uiso   1.00
C1824  C     0.83985   0.86681   0.23639   0.00000  Uiso   1.00
C1825  C     0.86767   0.84029   0.23423   0.00000  Uiso   1.00
C1826  C     0.63153   0.65964   0.76747   0.00000  Uiso   1.00
C1827  C     0.85346   0.61911   0.21659   0.00000  Uiso   1.00
C1828  C     0.66019   0.86632   0.73237   0.00000  Uiso   1.00
C1829  C     0.63243   0.65948   0.23288   0.00000  Uiso   1.00
C1830  C     0.86754   0.83878   0.76377   0.00000  Uiso   1.00
C1831  C     0.63217   0.89509   0.28414   0.00000  Uiso   1.00
C1832  C     0.85286   0.62001   0.78412   0.00000  Uiso   1.00
C1833  C     0.99469   0.71658   0.45907   0.00000  Uiso   1.00
C1834  C     0.50166   0.78332   0.54138   0.00000  Uiso   1.00
C1835  C     0.78319   0.99581   0.45845   0.00000  Uiso   1.00
C1836  C     0.71730   0.50641   0.54098   0.00000  Uiso   1.00
C1837  C     0.50526   0.78285   0.45924   0.00000  Uiso   1.00
C1838  C     0.99869   0.71608   0.54126   0.00000  Uiso   1.00
C1839  C     0.71664   0.50445   0.45881   0.00000  Uiso   1.00
C1840  C     0.78274   0.99262   0.54062   0.00000  Uiso   1.00
C1841  C     0.74481   0.96695   0.95926   0.00000  Uiso   1.00
C1842  C     0.75132   0.53393   0.04139   0.00000  Uiso   1.00
C1843  C     0.53250   0.75615   0.95897   0.00000  Uiso   1.00
C1844  C     0.96612   0.74828   0.04137   0.00000  Uiso   1.00
C1845  C     0.75507   0.53326   0.95922   0.00000  Uiso   1.00
C1846  C     0.74920   0.96668   0.04133   0.00000  Uiso   1.00
C1847  C     0.96665   0.74463   0.95917   0.00000  Uiso   1.00
C1848  C     0.53293   0.75226   0.04102   0.00000  Uiso   1.00
C1849  C     0.59846   0.84779   0.24953   0.00000  Uiso   1.00
C1850  C     0.90165   0.65238   0.75051   0.00000  Uiso   1.00
C1851  C     0.65235   0.59827   0.25059   0.00000  Uiso   1.00
C1852  C     0.84728   0.90095   0.74941   0.00000  Uiso   1.00
C1853  C     0.90219   0.65150   0.25019   0.00000  Uiso   1.00
C1854  C     0.59724   0.84905   0.74375   0.00000  Uiso   1.00
C1855  C     0.84838   0.90221   0.25011   0.00000  Uiso   1.00
C1856  C     0.65173   0.59821   0.74976   0.00000  Uiso   1.00
C1857  C     0.59761   0.65169   0.75021   0.00000  Uiso   1.00
C1858  C     0.90221   0.84839   0.24991   0.00000  Uiso   1.00
C1859  C     0.65308   0.89988   0.75211   0.00000  Uiso   1.00
C1860  C     0.84833   0.59783   0.25050   0.00000  Uiso   1.00
C1861  C     0.90261   0.84863   0.75093   0.00000  Uiso   1.00
C1862  C     0.59797   0.65150   0.24939   0.00000  Uiso   1.00
C1863  C     0.84797   0.59848   0.75011   0.00000  Uiso   1.00
C1864  C     0.65238   0.90149   0.24968   0.00000  Uiso   1.00
C1865  C     0.99999   0.74971   0.47975   0.00000  Uiso   1.00
C1866  C     0.50010   0.74970   0.52076   0.00000  Uiso   1.00
C1867  C     0.74993   0.99988   0.47918   0.00000  Uiso   1.00
C1868  C     0.75000   0.99961   0.52021   0.00000  Uiso   1.00
C1869  C     0.75000   0.50016   0.97983   0.00000  Uiso   1.00
C1870  C     0.75014   0.50026   0.02080   0.00000  Uiso   1.00
C1871  C     0.99955   0.75038   0.97964   0.00000  Uiso   1.00
C1872  C     0.99953   0.75033   0.02062   0.00000  Uiso   1.00
C1873  C     0.50402   0.64704   0.45972   0.00000  Uiso   1.00
H1874  H     0.51642   0.65103   0.43061   0.00000  Uiso   1.00
H1875  H     0.52480   0.63207   0.47683   0.00000  Uiso   1.00
H1876  H     0.97949   0.62962   0.45738   0.00000  Uiso   1.00
C1877  C     0.52401   0.84975   0.54014   0.00000  Uiso   1.00
H1878  H     0.53606   0.84341   0.56884   0.00000  Uiso   1.00
H1879  H     0.54686   0.86053   0.52239   0.00000  Uiso   1.00
H1880  H     0.50314   0.87153   0.54311   0.00000  Uiso   1.00
C1881  C     0.84779   0.96876   0.45970   0.00000  Uiso   1.00
H1882  H     0.84066   0.95657   0.43122   0.00000  Uiso   1.00
H1883  H     0.87068   0.98818   0.45634   0.00000  Uiso   1.00
H1884  H     0.85719   0.94548   0.47774   0.00000  Uiso   1.00
C1885  C     0.64785   0.99956   0.53977   0.00000  Uiso   1.00
H1886  H     0.63254   0.97990   0.52147   0.00000  Uiso   1.00
H1887  H     0.65138   0.98587   0.56823   0.00000  Uiso   1.00
H1888  H     0.63109   0.52460   0.54332   0.00000  Uiso   1.00
C1889  C     0.99631   0.85245   0.46045   0.00000  Uiso   1.00
H1890  H     0.98411   0.84859   0.43131   0.00000  Uiso   1.00
H1891  H     0.97544   0.86733   0.47780   0.00000  Uiso   1.00
H1892  H     0.52084   0.86989   0.45823   0.00000  Uiso   1.00
C1893  C     0.97699   0.64938   0.53984   0.00000  Uiso   1.00
H1894  H     0.96497   0.65555   0.56868   0.00000  Uiso   1.00
H1895  H     0.95423   0.63831   0.52232   0.00000  Uiso   1.00
H1896  H     0.99816   0.62788   0.54244   0.00000  Uiso   1.00
C1897  C     0.65208   0.53167   0.46174   0.00000  Uiso   1.00
H1898  H     0.65962   0.54583   0.43445   0.00000  Uiso   1.00
H1899  H     0.62958   0.51214   0.45669   0.00000  Uiso   1.00
H1900  H     0.64192   0.55365   0.48132   0.00000  Uiso   1.00
C1901  C     0.85231   0.99847   0.53880   0.00000  Uiso   1.00
H1902  H     0.84912   0.51148   0.56776   0.00000  Uiso   1.00
H1903  H     0.86873   0.97311   0.54124   0.00000  Uiso   1.00
H1904  H     0.86782   0.51840   0.52101   0.00000  Uiso   1.00
C1905  C     0.75374   0.89734   0.96001   0.00000  Uiso   1.00
H1906  H     0.76577   0.90117   0.93069   0.00000  Uiso   1.00
H1907  H     0.77467   0.88231   0.97686   0.00000  Uiso   1.00
H1908  H     0.72909   0.88005   0.95810   0.00000  Uiso   1.00
C1909  C     0.77264   0.60073   0.04001   0.00000  Uiso   1.00
H1910  H     0.78468   0.59468   0.06875   0.00000  Uiso   1.00
H1911  H     0.79538   0.61184   0.02233   0.00000  Uiso   1.00
H1912  H     0.75139   0.62215   0.04283   0.00000  Uiso   1.00
C1913  C     0.60191   0.74810   0.95975   0.00000  Uiso   1.00
H1914  H     0.61704   0.72740   0.97690   0.00000  Uiso   1.00
H1915  H     0.59829   0.73568   0.93061   0.00000  Uiso   1.00
H1916  H     0.61887   0.77303   0.95756   0.00000  Uiso   1.00
C1917  C     0.90015   0.72541   0.04036   0.00000  Uiso   1.00
H1918  H     0.88947   0.70242   0.02268   0.00000  Uiso   1.00
H1919  H     0.90653   0.71333   0.06906   0.00000  Uiso   1.00
H1920  H     0.87841   0.74631   0.04339   0.00000  Uiso   1.00
C1921  C     0.74561   0.60279   0.96010   0.00000  Uiso   1.00
H1922  H     0.73352   0.59872   0.93094   0.00000  Uiso   1.00
H1923  H     0.72459   0.61762   0.97728   0.00000  Uiso   1.00
H1924  H     0.77004   0.62037   0.95786   0.00000  Uiso   1.00
C1925  C     0.72789   0.89992   0.04060   0.00000  Uiso   1.00
H1926  H     0.71637   0.90612   0.06972   0.00000  Uiso   1.00
H1927  H     0.70485   0.88875   0.02357   0.00000  Uiso   1.00
H1928  H     0.74915   0.87847   0.04286   0.00000  Uiso   1.00
C1929  C     0.89729   0.75297   0.96054   0.00000  Uiso   1.00
H1930  H     0.90103   0.76555   0.93152   0.00000  Uiso   1.00
H1931  H     0.88028   0.72810   0.95813   0.00000  Uiso   1.00
H1932  H     0.88215   0.77359   0.97801   0.00000  Uiso   1.00
C1933  C     0.59878   0.77546   0.03982   0.00000  Uiso   1.00
H1934  H     0.59238   0.78697   0.06891   0.00000  Uiso   1.00
H1935  H     0.62076   0.75477   0.04210   0.00000  Uiso   1.00
H1936  H     0.60912   0.79884   0.02253   0.00000  Uiso   1.00
C1937  C     0.66948   0.88883   0.17870   0.00000  Uiso   1.00
C1938  C     0.70941   0.87804   0.18383   0.00000  Uiso   1.00
H1939  H     0.72474   0.90010   0.19847   0.00000  Uiso   1.00
H1940  H     0.71185   0.85256   0.20099   0.00000  Uiso   1.00
H1941  H     0.72218   0.87330   0.15494   0.00000  Uiso   1.00
H1942  H     0.65978   0.87476   0.15238   0.00000  Uiso   1.00
H1943  H     0.66751   0.91810   0.17079   0.00000  Uiso   1.00
C1944  C     0.86532   0.57814   0.68136   0.00000  Uiso   1.00
C1945  C     0.88578   0.54239   0.68754   0.00000  Uiso   1.00
H1946  H     0.87607   0.52875   0.71436   0.00000  Uiso   1.00
H1947  H     0.88110   0.52408   0.66232   0.00000  Uiso   1.00
H1948  H     0.91540   0.54744   0.69020   0.00000  Uiso   1.00
H1949  H     0.83640   0.57228   0.67541   0.00000  Uiso   1.00
H1950  H     0.87477   0.59041   0.65381   0.00000  Uiso   1.00
C1951  C     0.55113   0.60668   0.27633   0.00000  Uiso   1.00
C1952  C     0.53107   0.59090   0.24114   0.00000  Uiso   1.00
H1953  H     0.50676   0.57556   0.25093   0.00000  Uiso   1.00
H1954  H     0.52198   0.61289   0.22134   0.00000  Uiso   1.00
H1955  H     0.54876   0.57193   0.22434   0.00000  Uiso   1.00
H1956  H     0.54982   0.58668   0.30029   0.00000  Uiso   1.00
H1957  H     0.53587   0.63060   0.28784   0.00000  Uiso   1.00
C1958  C     0.94954   0.89714   0.73235   0.00000  Uiso   1.00
C1959  C     0.96173   0.92054   0.76691   0.00000  Uiso   1.00
H1960  H     0.94032   0.94017   0.77618   0.00000  Uiso   1.00
H1961  H     0.96830   0.90272   0.79203   0.00000  Uiso   1.00
H1962  H     0.98598   0.93671   0.75887   0.00000  Uiso   1.00
H1963  H     0.96892   0.87423   0.72859   0.00000  Uiso   1.00
H1964  H     0.95216   0.91276   0.70494   0.00000  Uiso   1.00
C1965  C     0.86230   0.57971   0.32057   0.00000  Uiso   1.00
C1966  C     0.87338   0.53978   0.31463   0.00000  Uiso   1.00
H1967  H     0.87857   0.52675   0.34319   0.00000  Uiso   1.00
H1968  H     0.85130   0.52439   0.30025   0.00000  Uiso   1.00
H1969  H     0.89856   0.53767   0.29688   0.00000  Uiso   1.00
H1970  H     0.87626   0.58955   0.34686   0.00000  Uiso   1.00
H1971  H     0.83317   0.58141   0.32872   0.00000  Uiso   1.00
C1972  C     0.61064   0.93480   0.80035   0.00000  Uiso   1.00
C1973  C     0.63136   0.92512   0.83742   0.00000  Uiso   1.00
H1974  H     0.66089   0.92187   0.83194   0.00000  Uiso   1.00
H1975  H     0.62721   0.94697   0.85947   0.00000  Uiso   1.00
H1976  H     0.62094   0.89903   0.84950   0.00000  Uiso   1.00
H1977  H     0.61620   0.96306   0.79056   0.00000  Uiso   1.00
H1978  H     0.58166   0.93502   0.80937   0.00000  Uiso   1.00
C1979  C     0.94881   0.89145   0.27995   0.00000  Uiso   1.00
C1980  C     0.97282   0.91004   0.24948   0.00000  Uiso   1.00
H1981  H     0.99777   0.92075   0.26330   0.00000  Uiso   1.00
H1982  H     0.98078   0.89028   0.22643   0.00000  Uiso   1.00
H1983  H     0.95876   0.93324   0.23561   0.00000  Uiso   1.00
H1984  H     0.94776   0.90759   0.30718   0.00000  Uiso   1.00
H1985  H     0.96273   0.86617   0.28953   0.00000  Uiso   1.00
C1986  C     0.55353   0.61064   0.71336   0.00000  Uiso   1.00
C1987  C     0.52521   0.59435   0.74100   0.00000  Uiso   1.00
H1988  H     0.53518   0.56870   0.75436   0.00000  Uiso   1.00
H1989  H     0.51834   0.61379   0.76467   0.00000  Uiso   1.00
H1990  H     0.99997   0.58832   0.72462   0.00000  Uiso   1.00
H1991  H     0.54240   0.63629   0.70097   0.00000  Uiso   1.00
H1992  H     0.55685   0.59275   0.68754   0.00000  Uiso   1.00
C1993  C     0.60967   0.55167   0.71785   0.00000  Uiso   1.00
C1994  C     0.62440   0.54840   0.67649   0.00000  Uiso   1.00
H1995  H     0.61117   0.56868   0.65717   0.00000  Uiso   1.00
H1996  H     0.65413   0.55311   0.67613   0.00000  Uiso   1.00
H1997  H     0.61892   0.52057   0.66505   0.00000  Uiso   1.00
H1998  H     0.62182   0.53004   0.73619   0.00000  Uiso   1.00
H1999  H     0.58048   0.54467   0.71765   0.00000  Uiso   1.00
C2000  C     0.89175   0.95056   0.27603   0.00000  Uiso   1.00
C2001  C     0.89998   0.97586   0.24153   0.00000  Uiso   1.00
H2002  H     0.90178   0.96058   0.21361   0.00000  Uiso   1.00
H2003  H     0.87856   0.99701   0.23873   0.00000  Uiso   1.00
H2004  H     0.92613   0.99026   0.24621   0.00000  Uiso   1.00
H2005  H     0.86836   0.96143   0.29300   0.00000  Uiso   1.00
H2006  H     0.91431   0.95259   0.29693   0.00000  Uiso   1.00
C2007  C     0.55212   0.90089   0.74935   0.00000  Uiso   1.00
C2008  C     0.54225   0.89788   0.70617   0.00000  Uiso   1.00
H2009  H     0.56544   0.90674   0.68768   0.00000  Uiso   1.00
H2010  H     0.53491   0.86939   0.69846   0.00000  Uiso   1.00
H2011  H     0.51880   0.91585   0.69955   0.00000  Uiso   1.00
H2012  H     0.53116   0.88779   0.76773   0.00000  Uiso   1.00
H2013  H     0.55159   0.93052   0.75607   0.00000  Uiso   1.00
C2014  C     0.92247   0.63503   0.31933   0.00000  Uiso   1.00
C2015  C     0.95044   0.60431   0.32280   0.00000  Uiso   1.00
H2016  H     0.93761   0.57808   0.33066   0.00000  Uiso   1.00
H2017  H     0.96527   0.60109   0.29489   0.00000  Uiso   1.00
H2018  H     0.97036   0.61117   0.34585   0.00000  Uiso   1.00
H2019  H     0.93838   0.66046   0.31819   0.00000  Uiso   1.00
H2020  H     0.90663   0.63837   0.34660   0.00000  Uiso   1.00
C2021  C     0.88738   0.94487   0.71124   0.00000  Uiso   1.00
C2022  C     0.88475   0.93593   0.66789   0.00000  Uiso   1.00
H2023  H     0.90502   0.91487   0.65930   0.00000  Uiso   1.00
H2024  H     0.85715   0.92557   0.66108   0.00000  Uiso   1.00
H2025  H     0.88984   0.96080   0.65038   0.00000  Uiso   1.00
H2026  H     0.86675   0.96602   0.71775   0.00000  Uiso   1.00
H2027  H     0.91357   0.95847   0.71748   0.00000  Uiso   1.00
C2028  C     0.61435   0.55630   0.29342   0.00000  Uiso   1.00
C2029  C     0.59689   0.52466   0.27132   0.00000  Uiso   1.00
H2030  H     0.60830   0.52227   0.24148   0.00000  Uiso   1.00
H2031  H     0.60223   0.99869   0.28697   0.00000  Uiso   1.00
H2032  H     0.56705   0.52826   0.26973   0.00000  Uiso   1.00
H2033  H     0.64110   0.54683   0.30434   0.00000  Uiso   1.00
H2034  H     0.59913   0.56213   0.32064   0.00000  Uiso   1.00
C2035  C     0.92277   0.63524   0.68187   0.00000  Uiso   1.00
C2036  C     0.90648   0.66049   0.65104   0.00000  Uiso   1.00
H2037  H     0.88004   0.65011   0.64041   0.00000  Uiso   1.00
H2038  H     0.90201   0.68832   0.66289   0.00000  Uiso   1.00
H2039  H     0.92545   0.66251   0.62599   0.00000  Uiso   1.00
H2040  H     0.94957   0.64628   0.69066   0.00000  Uiso   1.00
H2041  H     0.93002   0.60855   0.66866   0.00000  Uiso   1.00
C2042  C     0.61340   0.82931   0.17914   0.00000  Uiso   1.00
C2043  C     0.64339   0.80074   0.17406   0.00000  Uiso   1.00
H2044  H     0.67041   0.81336   0.17031   0.00000  Uiso   1.00
H2045  H     0.64407   0.78239   0.19971   0.00000  Uiso   1.00
H2046  H     0.63781   0.78423   0.14765   0.00000  Uiso   1.00
H2047  H     0.58775   0.81385   0.17989   0.00000  Uiso   1.00
H2048  H     0.61023   0.84613   0.15261   0.00000  Uiso   1.00
C2049  C     0.88376   0.67363   0.81926   0.00000  Uiso   1.00
C2050  C     0.85069   0.69852   0.82596   0.00000  Uiso   1.00
H2051  H     0.85962   0.72555   0.83708   0.00000  Uiso   1.00
H2052  H     0.83538   0.70286   0.79863   0.00000  Uiso   1.00
H2053  H     0.83210   0.68687   0.84811   0.00000  Uiso   1.00
H2054  H     0.88990   0.65765   0.84583   0.00000  Uiso   1.00
H2055  H     0.90735   0.69204   0.81648   0.00000  Uiso   1.00
C2056  C     0.58069   0.86238   0.32007   0.00000  Uiso   1.00
C2057  C     0.54454   0.88229   0.31580   0.00000  Uiso   1.00
H2058  H     0.52853   0.86961   0.29217   0.00000  Uiso   1.00
H2059  H     0.52871   0.88049   0.34326   0.00000  Uiso   1.00
H2060  H     0.54918   0.91158   0.30915   0.00000  Uiso   1.00
H2061  H     0.57582   0.83314   0.32576   0.00000  Uiso   1.00
H2062  H     0.59336   0.87149   0.34746   0.00000  Uiso   1.00
C2063  C     0.79997   0.85232   0.76483   0.00000  Uiso   1.00
C2064  C     0.78784   0.83684   0.72566   0.00000  Uiso   1.00
H2065  H     0.76453   0.81822   0.72989   0.00000  Uiso   1.00
H2066  H     0.78043   0.85944   0.70587   0.00000  Uiso   1.00
H2067  H     0.80967   0.82106   0.71100   0.00000  Uiso   1.00
H2068  H     0.79608   0.83151   0.78768   0.00000  Uiso   1.00
H2069  H     0.78144   0.87478   0.77382   0.00000  Uiso   1.00
C2070  C     0.69606   0.63821   0.21177   0.00000  Uiso   1.00
C2071  C     0.72387   0.65595   0.23875   0.00000  Uiso   1.00
H2072  H     0.71372   0.68244   0.25019   0.00000  Uiso   1.00
H2073  H     0.73000   0.63791   0.26373   0.00000  Uiso   1.00
H2074  H     0.74953   0.66083   0.22246   0.00000  Uiso   1.00
H2075  H     0.70764   0.61223   0.20046   0.00000  Uiso   1.00
H2076  H     0.69285   0.65498   0.18522   0.00000  Uiso   1.00
C2077  C     0.63669   0.81041   0.69604   0.00000  Uiso   1.00
C2078  C     0.61459   0.81703   0.65898   0.00000  Uiso   1.00
H2079  H     0.61657   0.79273   0.63970   0.00000  Uiso   1.00
H2080  H     0.58548   0.82248   0.66516   0.00000  Uiso   1.00
H2081  H     0.62560   0.84097   0.64311   0.00000  Uiso   1.00
H2082  H     0.66479   0.80656   0.68573   0.00000  Uiso   1.00
H2083  H     0.63117   0.78342   0.70909   0.00000  Uiso   1.00
C2084  C     0.88448   0.67225   0.18187   0.00000  Uiso   1.00
C2085  C     0.86194   0.70673   0.18826   0.00000  Uiso   1.00
H2086  H     0.87109   0.72107   0.21488   0.00000  Uiso   1.00
H2087  H     0.86527   0.72503   0.16288   0.00000  Uiso   1.00
H2088  H     0.83269   0.70000   0.19151   0.00000  Uiso   1.00
H2089  H     0.91310   0.67992   0.17645   0.00000  Uiso   1.00
H2090  H     0.87643   0.65955   0.15403   0.00000  Uiso   1.00
C2091  C     0.69837   0.64264   0.77762   0.00000  Uiso   1.00
C2092  C     0.72099   0.65735   0.74359   0.00000  Uiso   1.00
H2093  H     0.73180   0.63486   0.72532   0.00000  Uiso   1.00
H2094  H     0.70459   0.67563   0.72480   0.00000  Uiso   1.00
H2095  H     0.74444   0.67308   0.75484   0.00000  Uiso   1.00
H2096  H     0.69896   0.66283   0.80151   0.00000  Uiso   1.00
H2097  H     0.71204   0.61847   0.79031   0.00000  Uiso   1.00
C2098  C     0.80100   0.85731   0.22443   0.00000  Uiso   1.00
C2099  C     0.78109   0.83798   0.25758   0.00000  Uiso   1.00
H2100  H     0.79592   0.81295   0.26652   0.00000  Uiso   1.00
H2101  H     0.77849   0.85638   0.28315   0.00000  Uiso   1.00
H2102  H     0.75346   0.83000   0.24808   0.00000  Uiso   1.00
H2103  H     0.78519   0.88178   0.21600   0.00000  Uiso   1.00
H2104  H     0.80027   0.84017   0.19788   0.00000  Uiso   1.00
C2105  C     0.86205   0.80526   0.21087   0.00000  Uiso   1.00
C2106  C     0.86848   0.81260   0.16765   0.00000  Uiso   1.00
H2107  H     0.85022   0.83450   0.15690   0.00000  Uiso   1.00
H2108  H     0.89703   0.82124   0.16287   0.00000  Uiso   1.00
H2109  H     0.86330   0.78755   0.15044   0.00000  Uiso   1.00
H2110  H     0.88077   0.78322   0.21988   0.00000  Uiso   1.00
H2111  H     0.83470   0.79347   0.21554   0.00000  Uiso   1.00
C2112  C     0.63634   0.69539   0.79020   0.00000  Uiso   1.00
C2113  C     0.65580   0.72477   0.76654   0.00000  Uiso   1.00
H2114  H     0.68565   0.72131   0.76830   0.00000  Uiso   1.00
H2115  H     0.64723   0.72386   0.73563   0.00000  Uiso   1.00
H2116  H     0.64907   0.75218   0.77856   0.00000  Uiso   1.00
H2117  H     0.60977   0.70675   0.79974   0.00000  Uiso   1.00
H2118  H     0.65034   0.69069   0.81823   0.00000  Uiso   1.00
C2119  C     0.82869   0.61366   0.18130   0.00000  Uiso   1.00
C2120  C     0.84609   0.58837   0.15095   0.00000  Uiso   1.00
H2121  H     0.87237   0.59936   0.14040   0.00000  Uiso   1.00
H2122  H     0.85112   0.56088   0.16327   0.00000  Uiso   1.00
H2123  H     0.82754   0.58543   0.12577   0.00000  Uiso   1.00
H2124  H     0.80187   0.60228   0.18969   0.00000  Uiso   1.00
H2125  H     0.82128   0.64004   0.16773   0.00000  Uiso   1.00
C2126  C     0.69884   0.85398   0.72295   0.00000  Uiso   1.00
C2127  C     0.70929   0.86066   0.68007   0.00000  Uiso   1.00
H2128  H     0.68505   0.86542   0.66163   0.00000  Uiso   1.00
H2129  H     0.72736   0.88464   0.67701   0.00000  Uiso   1.00
H2130  H     0.72418   0.83658   0.66837   0.00000  Uiso   1.00
H2131  H     0.71884   0.86649   0.74291   0.00000  Uiso   1.00
H2132  H     0.70174   0.82457   0.73018   0.00000  Uiso   1.00
C2133  C     0.63859   0.69594   0.21248   0.00000  Uiso   1.00
C2134  C     0.62456   0.69433   0.17085   0.00000  Uiso   1.00
H2135  H     0.63753   0.67156   0.15450   0.00000  Uiso   1.00
H2136  H     0.59473   0.69023   0.17097   0.00000  Uiso   1.00
H2137  H     0.63084   0.72023   0.15570   0.00000  Uiso   1.00
H2138  H     0.62501   0.71872   0.22815   0.00000  Uiso   1.00
H2139  H     0.66752   0.70403   0.21210   0.00000  Uiso   1.00
C2140  C     0.86160   0.80112   0.78211   0.00000  Uiso   1.00
C2141  C     0.84951   0.77237   0.75247   0.00000  Uiso   1.00
H2142  H     0.85779   0.77974   0.72242   0.00000  Uiso   1.00
H2143  H     0.86237   0.74573   0.75919   0.00000  Uiso   1.00
H2144  H     0.81956   0.76899   0.75360   0.00000  Uiso   1.00
H2145  H     0.88694   0.79137   0.79621   0.00000  Uiso   1.00
H2146  H     0.84245   0.80229   0.80703   0.00000  Uiso   1.00
C2147  C     0.63921   0.91772   0.32081   0.00000  Uiso   1.00
C2148  C     0.66322   0.89670   0.34945   0.00000  Uiso   1.00
H2149  H     0.65533   0.86752   0.35139   0.00000  Uiso   1.00
H2150  H     0.69211   0.89795   0.34018   0.00000  Uiso   1.00
H2151  H     0.66067   0.90888   0.37891   0.00000  Uiso   1.00
H2152  H     0.65212   0.94438   0.31445   0.00000  Uiso   1.00
H2153  H     0.61325   0.92597   0.33486   0.00000  Uiso   1.00
C2154  C     0.82925   0.61304   0.82009   0.00000  Uiso   1.00
C2155  C     0.79045   0.62707   0.81457   0.00000  Uiso   1.00
H2156  H     0.79044   0.65441   0.80080   0.00000  Uiso   1.00
H2157  H     0.77479   0.60797   0.79614   0.00000  Uiso   1.00
H2158  H     0.77654   0.62945   0.84315   0.00000  Uiso   1.00
H2159  H     0.82880   0.58360   0.82723   0.00000  Uiso   1.00
H2160  H     0.84035   0.62533   0.84683   0.00000  Uiso   1.00
C2161  C     0.53506   0.80882   0.39774   0.00000  Uiso   1.00
H2162  H     0.55772   0.79497   0.38224   0.00000  Uiso   1.00
H2163  H     0.51822   0.82398   0.37648   0.00000  Uiso   1.00
H2164  H     0.54874   0.82803   0.41771   0.00000  Uiso   1.00
C2165  C     0.52131   0.68435   0.60337   0.00000  Uiso   1.00
H2166  H     0.54481   0.69323   0.62112   0.00000  Uiso   1.00
H2167  H     0.50064   0.67209   0.62298   0.00000  Uiso   1.00
H2168  H     0.53269   0.66345   0.58343   0.00000  Uiso   1.00
C2169  C     0.68280   0.98791   0.39589   0.00000  Uiso   1.00
H2170  H     0.68935   0.96625   0.37448   0.00000  Uiso   1.00
H2171  H     0.66200   0.97559   0.41512   0.00000  Uiso   1.00
H2172  H     0.67157   0.51159   0.37976   0.00000  Uiso   1.00
C2173  C     0.80804   0.96262   0.60232   0.00000  Uiso   1.00
H2174  H     0.79393   0.94065   0.61852   0.00000  Uiso   1.00
H2175  H     0.82644   0.94768   0.58231   0.00000  Uiso   1.00
H2176  H     0.82400   0.97942   0.62302   0.00000  Uiso   1.00
C2177  C     0.96533   0.69031   0.39744   0.00000  Uiso   1.00
H2178  H     0.94291   0.70382   0.38147   0.00000  Uiso   1.00
H2179  H     0.98256   0.67485   0.37651   0.00000  Uiso   1.00
H2180  H     0.95134   0.67134   0.41748   0.00000  Uiso   1.00
C2181  C     0.97902   0.81527   0.60365   0.00000  Uiso   1.00
H2182  H     0.95536   0.80650   0.62140   0.00000  Uiso   1.00
H2183  H     0.99962   0.82749   0.62323   0.00000  Uiso   1.00
H2184  H     0.96785   0.83620   0.58380   0.00000  Uiso   1.00
C2185  C     0.81648   0.51542   0.39612   0.00000  Uiso   1.00
H2186  H     0.80934   0.53931   0.37791   0.00000  Uiso   1.00
H2187  H     0.83791   0.52562   0.41581   0.00000  Uiso   1.00
H2188  H     0.82723   0.99341   0.37697   0.00000  Uiso   1.00
C2189  C     0.69158   0.53598   0.60281   0.00000  Uiso   1.00
H2190  H     0.70508   0.55780   0.61978   0.00000  Uiso   1.00
H2191  H     0.67338   0.55108   0.58296   0.00000  Uiso   1.00
H2192  H     0.67556   0.51835   0.62259   0.00000  Uiso   1.00
C2193  C     0.78477   0.55915   0.89763   0.00000  Uiso   1.00
H2194  H     0.80751   0.54537   0.88219   0.00000  Uiso   1.00
H2195  H     0.76778   0.57403   0.87632   0.00000  Uiso   1.00
H2196  H     0.79828   0.57857   0.91752   0.00000  Uiso   1.00
C2197  C     0.77348   0.93554   0.10290   0.00000  Uiso   1.00
H2198  H     0.79738   0.94503   0.11966   0.00000  Uiso   1.00
H2199  H     0.75368   0.92318   0.12334   0.00000  Uiso   1.00
H2200  H     0.78449   0.91460   0.08276   0.00000  Uiso   1.00
C2201  C     0.94082   0.71488   0.89752   0.00000  Uiso   1.00
H2202  H     0.95444   0.69249   0.88125   0.00000  Uiso   1.00
H2203  H     0.92214   0.70057   0.91760   0.00000  Uiso   1.00
H2204  H     0.92518   0.73202   0.87687   0.00000  Uiso   1.00
C2205  C     0.56467   0.72890   0.10245   0.00000  Uiso   1.00
H2206  H     0.55570   0.70452   0.11893   0.00000  Uiso   1.00
H2207  H     0.58588   0.71848   0.08233   0.00000  Uiso   1.00
H2208  H     0.57634   0.74913   0.12296   0.00000  Uiso   1.00
C2209  C     0.71478   0.94093   0.89802   0.00000  Uiso   1.00
H2210  H     0.69236   0.95505   0.88275   0.00000  Uiso   1.00
H2211  H     0.73135   0.92535   0.87658   0.00000  Uiso   1.00
H2212  H     0.70086   0.92205   0.91822   0.00000  Uiso   1.00
C2213  C     0.72849   0.56556   0.10385   0.00000  Uiso   1.00
H2214  H     0.70499   0.55654   0.12168   0.00000  Uiso   1.00
H2215  H     0.74904   0.57794   0.12339   0.00000  Uiso   1.00
H2216  H     0.71706   0.58642   0.08409   0.00000  Uiso   1.00
C2217  C     0.55823   0.78620   0.89741   0.00000  Uiso   1.00
H2218  H     0.57680   0.80052   0.91750   0.00000  Uiso   1.00
H2219  H     0.57401   0.76939   0.87634   0.00000  Uiso   1.00
H2220  H     0.54436   0.80860   0.88161   0.00000  Uiso   1.00
C2221  C     0.93442   0.77056   0.10387   0.00000  Uiso   1.00
H2222  H     0.91335   0.78162   0.08424   0.00000  Uiso   1.00
H2223  H     0.92260   0.74980   0.12367   0.00000  Uiso   1.00
H2224  H     0.94325   0.79438   0.12138   0.00000  Uiso   1.00
loop_
_geom_bond_atom_site_label_1
_geom_bond_atom_site_label_2
_geom_bond_distance
_geom_bond_site_symmetry_2
_ccdc_geom_bond_type
Zn1    O87     1.933   .     S
Zn1    O56     1.946   .     S
Zn1    O41     1.956   .     S
Zn1    O1196   1.940   1_545 S
Zn2    O83     1.940   .     S
Zn2    O55     1.946   .     S
Zn2    O42     1.956   .     S
Zn2    O1200   1.933   1_545 S
Zn3    O641    1.942   1_455 S
Zn3    O58     1.948   .     S
Zn3    O43     1.944   .     S
Zn3    O78     1.939   .     S
Zn4    O633    1.939   1_455 S
Zn4    O57     1.948   .     S
Zn4    O44     1.944   .     S
Zn4    O86     1.942   .     S
Zn5    O60     1.950   .     S
Zn5    O80     1.940   .     S
Zn5    O41     1.948   .     S
Zn5    O1203   1.936   1_545 S
Zn6    O92     1.936   .     S
Zn6    O42     1.948   .     S
Zn6    O59     1.950   .     S
Zn6    O1191   1.940   1_545 S
Zn7    O43     1.948   .     S
Zn7    O54     1.946   .     S
Zn7    O638    1.936   1_455 S
Zn7    O89     1.944   .     S
Zn8    O53     1.946   .     S
Zn8    O646    1.944   1_455 S
Zn8    O44     1.948   .     S
Zn8    O81     1.936   .     S
Zn9    O48     1.946   .     S
Zn9    O71     1.933   .     S
Zn9    O68     1.940   .     S
Zn9    O600    1.956   .     S
Zn10   O47     1.946   .     S
Zn10   O72     1.933   .     S
Zn10   O67     1.940   .     S
Zn10   O43     1.956   .     S
Zn11   O62     1.939   .     S
Zn11   O69     1.942   .     S
Zn11   O50     1.948   .     S
Zn11   O1154   1.944   .     S
Zn12   O49     1.948   .     S
Zn12   O70     1.942   .     S
Zn12   O41     1.944   .     S
Zn12   O61     1.939   .     S
Zn13   O75     1.936   .     S
Zn13   O64     1.940   .     S
Zn13   O52     1.950   .     S
Zn13   O44     1.948   .     S
Zn14   O76     1.936   .     S
Zn14   O599    1.948   .     S
Zn14   O51     1.950   .     S
Zn14   O63     1.940   .     S
Zn15   O42     1.948   .     S
Zn15   O66     1.936   .     S
Zn15   O46     1.946   .     S
Zn15   O73     1.944   .     S
Zn16   O45     1.946   .     S
Zn16   O65     1.936   .     S
Zn16   O74     1.944   .     S
Zn16   O1153   1.948   .     S
C17    C493    1.516   .     S
C17    C169    1.415   .     A
C17    C589    1.407   1_455 S
C18    C34     1.405   .     A
C18    C497    1.519   .     S
C18    C726    1.417   1_455 S
C19    C501    1.518   .     S
C19    C1147   1.404   .     S
C19    C1283   1.416   .     S
C20    C172    1.416   .     A
C20    C505    1.519   .     S
C20    C36     1.408   .     A
C21    C33     1.408   .     A
C21    C509    1.518   .     S
C21    C165    1.417   .     A
C22    C513    1.519   .     S
C22    C590    1.404   .     S
C22    C722    1.415   .     S
C23    C517    1.517   .     S
C23    C35     1.403   .     A
C23    C1279   1.414   1_545 S
C24    C168    1.414   .     A
C24    C521    1.515   .     S
C24    C1148   1.407   1_545 S
C25    C177    1.415   .     A
C25    C525    1.515   .     S
C25    C1149   1.407   1_545 S
C26    C178    1.414   .     A
C26    C529    1.518   .     S
C26    C1150   1.404   .     S
C27    C533    1.519   .     S
C27    C179    1.416   .     A
C27    C39     1.408   .     A
C28    C180    1.414   .     A
C28    C537    1.515   .     S
C28    C596    1.403   1_455 S
C29    C541    1.516   .     S
C29    C37     1.407   .     A
C29    C173    1.416   .     A
C30    C38     1.405   .     A
C30    C174    1.417   .     A
C30    C545    1.519   .     S
C31    C549    1.519   .     S
C31    C175    1.415   .     A
C31    C595    1.407   1_455 S
C32    C553    1.517   .     S
C32    C176    1.416   .     A
C32    C40     1.404   .     A
C33    C111    1.462   .     S
C33    C573    1.407   .     S
C34    C112    1.455   .     S
C34    C578    1.404   1_455 S
C35    C109    1.453   .     S
C35    C1131   1.404   1_545 S
C36    C110    1.462   .     S
C36    C1136   1.407   .     S
C37    C115    1.464   .     S
C37    C1137   1.407   .     S
C38    C116    1.455   .     S
C38    C1138   1.404   1_545 S
C39    C113    1.460   .     S
C39    C587    1.407   .     S
C40    C114    1.457   .     S
C40    C584    1.403   .     S
O41    Zn1128  1.948   1_545 S
O42    Zn1123  1.944   1_545 S
O43    Zn570   1.948   1_455 S
O44    Zn565   1.956   1_455 S
O45    C1221   1.276   .     S
O46    C1222   1.278   1_545 S
O47    C667    1.281   1_455 S
O48    C668    1.279   .     S
O49    C109    1.274   .     A
O50    C110    1.277   .     A
O51    C111    1.282   .     A
O52    C112    1.279   .     A
O53    C669    1.277   1_455 A
O54    C670    1.276   1_455 A
O55    C1227   1.281   1_545 S
O56    C116    1.280   .     A
O57    C669    1.277   1_455 A
O58    C670    1.276   1_455 A
O59    C1227   1.282   1_545 S
O60    C116    1.279   .     A
O61    C117    1.277   .     A
O62    C118    1.275   .     A
O63    C119    1.279   .     A
O64    C120    1.260   .     A
O65    C121    1.280   .     A
O66    C122    1.279   .     A
O67    C123    1.280   .     A
O68    C124    1.279   .     A
O69    C125    1.286   .     A
O70    C126    1.277   .     A
O71    C127    1.286   .     A
O72    C128    1.284   .     A
O73    C129    1.284   .     A
O74    C130    1.282   .     A
O75    C131    1.280   .     A
O76    C132    1.282   .     A
O77    C127    1.274   .     A
O77    Zn560   1.939   .     S
O78    C128    1.279   .     A
O79    C125    1.280   .     A
O79    Zn1118  1.940   .     S
O80    C126    1.278   .     A
O81    C131    1.275   .     A
O82    C132    1.277   .     A
O82    Zn563   1.936   .     S
O83    C129    1.282   .     A
O84    C130    1.281   .     A
O84    Zn1113  1.940   .     S
O85    Zn559   1.942   .     S
O85    C119    1.277   .     A
O86    C120    1.301   .     A
O87    C117    1.281   .     A
O88    C118    1.288   .     A
O88    Zn1114  1.933   .     S
O89    C123    1.284   .     A
O90    C124    1.282   .     A
O90    Zn564   1.944   .     S
O91    C121    1.278   .     A
O91    Zn1117  1.936   .     S
O92    C122    1.282   .     A
C93    C165    1.418   .     A
C93    C98     1.406   .     A
C93    C761    1.518   .     S
C94    C97     1.405   .     A
C94    C166    1.419   .     A
C94    C209    1.518   .     S
C95    C100    1.404   .     A
C95    C167    1.420   .     A
C95    C213    1.518   .     S
C96    C99     1.402   .     A
C96    C168    1.417   .     A
C96    C1329   1.518   1_545 S
C97    C169    1.418   .     A
C97    C777    1.518   1_455 S
C98    C170    1.420   .     A
C98    C225    1.518   .     S
C99    C229    1.517   .     S
C99    C171    1.419   .     A
C100   C172    1.418   .     A
C100   C233    1.518   .     S
C101   C173    1.419   .     A
C101   C237    1.518   .     S
C101   C106    1.406   1_556 S
C102   C241    1.518   .     S
C102   C174    1.420   .     A
C102   C105    1.406   1_554 S
C103   C175    1.419   .     A
C103   C245    1.518   .     S
C103   C108    1.405   1_556 S
C104   C176    1.419   .     A
C104   C249    1.518   .     S
C104   C107    1.406   1_554 S
C105   C253    1.518   .     S
C105   C177    1.419   .     A
C105   C102    1.406   1_556 S
C106   C178    1.419   .     A
C106   C257    1.518   .     S
C106   C101    1.406   1_554 S
C107   C261    1.518   .     S
C107   C179    1.419   .     A
C107   C104    1.406   1_556 S
C108   C180    1.418   .     A
C108   C265    1.518   .     S
C108   C103    1.405   1_554 S
C109   O1157   1.276   1_545 S
C110   O1158   1.278   .     S
C111   O603    1.281   .     S
C112   O604    1.279   1_455 S
C113   O609    1.277   .     A
C113   O613    1.277   .     A
C114   O610    1.276   .     A
C114   O614    1.276   .     A
C115   O1167   1.281   .     S
C115   O1171   1.282   .     S
C117   C183    1.454   .     S
C118   C184    1.461   .     S
C119   C185    1.463   .     S
C120   C186    1.469   .     S
C121   C187    1.458   .     S
C122   C188    1.462   .     S
C123   C181    1.463   .     S
C124   C182    1.459   .     S
C125   C191    1.475   .     S
C126   C192    1.460   .     S
C127   C193    1.456   .     S
C128   C194    1.463   .     S
C129   C195    1.466   .     S
C130   C196    1.461   .     S
C131   C189    1.453   .     S
C132   C190    1.458   .     S
C133   C196    1.421   .     A
C133   C269    1.538   .     S
C133   C148    1.421   .     A
C134   C147    1.414   .     A
C134   C195    1.419   .     A
C134   C276    1.530   .     S
C135   C146    1.415   .     A
C135   C194    1.419   .     A
C135   C283    1.529   .     S
C136   C145    1.409   .     A
C136   C290    1.522   .     S
C136   C193    1.415   .     A
C137   C297    1.534   .     S
C137   C144    1.419   .     A
C137   C192    1.421   .     A
C138   C143    1.394   .     A
C138   C191    1.424   .     A
C138   C304    1.528   .     S
C139   C142    1.417   .     A
C139   C190    1.418   .     A
C139   C311    1.530   .     S
C140   C141    1.414   .     A
C140   C189    1.415   .     A
C140   C318    1.532   .     S
C141   C325    1.529   .     S
C141   C188    1.419   .     A
C142   C332    1.533   .     S
C142   C187    1.419   .     A
C143   C186    1.397   .     A
C143   C339    1.521   .     S
C144   C185    1.421   .     A
C144   C346    1.538   .     S
C145   C184    1.409   .     A
C145   C353    1.530   .     S
C146   C183    1.414   .     A
C146   C360    1.533   .     S
C147   C367    1.533   .     S
C147   C182    1.418   .     A
C148   C374    1.537   .     S
C148   C181    1.423   .     A
C149   C182    1.421   .     A
C149   C164    1.418   .     A
C149   C381    1.539   .     S
C150   C163    1.413   .     A
C150   C181    1.420   .     A
C150   C388    1.535   .     S
C151   C184    1.420   .     A
C151   C395    1.519   .     S
C151   C162    1.413   .     A
C152   C402    1.532   .     S
C152   C161    1.414   .     A
C152   C183    1.415   .     A
C153   C409    1.543   .     S
C153   C160    1.409   .     A
C153   C186    1.427   .     A
C154   C159    1.413   .     A
C154   C416    1.530   .     S
C154   C185    1.420   .     A
C155   C158    1.415   .     A
C155   C423    1.529   .     S
C155   C188    1.419   .     A
C156   C187    1.415   .     A
C156   C157    1.411   .     A
C156   C430    1.530   .     S
C157   C190    1.415   .     A
C157   C437    1.527   .     S
C158   C444    1.534   .     S
C158   C189    1.415   .     A
C159   C192    1.416   .     A
C159   C451    1.534   .     S
C160   C458    1.524   .     S
C160   C191    1.425   .     A
C161   C465    1.527   .     S
C161   C194    1.418   .     A
C162   C193    1.410   .     A
C162   C472    1.534   .     S
C163   C196    1.416   .     A
C163   C479    1.530   .     S
C164   C195    1.421   .     A
C164   C486    1.531   .     S
C165   C197    1.419   .     A
C166   C198    1.421   .     A
C166   C578    1.415   1_455 S
C167   C199    1.421   .     A
C167   C1135   1.414   .     S
C168   C1312   1.417   1_545 S
C169   C753    1.418   1_455 S
C170   C574    1.417   .     S
C170   C754    1.421   .     S
C171   C1131   1.416   1_545 S
C171   C1311   1.423   1_545 S
C172   C200    1.420   .     A
C173   C1313   1.419   .     S
C174   C202    1.421   .     A
C175   C759    1.419   1_455 S
C176   C204    1.420   .     A
C177   C201    1.418   .     A
C178   C1314   1.420   .     S
C179   C203    1.419   .     A
C180   C760    1.420   1_455 S
C197   C725    1.418   .     S
C197   C754    1.410   .     S
C198   C726    1.421   1_455 S
C198   C753    1.410   1_455 S
C199   C200    1.411   .     A
C199   C1283   1.423   .     S
C200   C1280   1.417   .     S
C201   C1285   1.419   1_545 S
C201   C202    1.409   1_556 S
C202   C1290   1.420   1_545 S
C202   C201    1.409   1_554 S
C203   C731    1.419   .     S
C203   C204    1.409   1_556 S
C204   C736    1.420   .     S
C204   C203    1.409   1_554 S
C205   H207    1.111   .     S
C205   H206    1.108   .     S
C205   C649    1.518   1_455 S
C205   H764    1.110   1_455 S
H208   C761    1.110   .     S
C209   H211    1.111   .     S
C209   H212    1.110   .     S
C209   H210    1.108   .     S
C213   H215    1.110   .     S
C213   H214    1.108   .     S
C213   H216    1.111   .     S
C217   H218    1.111   .     S
C217   H219    1.109   .     S
C217   C1208   1.518   .     S
C217   H1332   1.110   .     S
H220   C1329   1.110   1_545 S
C221   H222    1.108   .     S
C221   H223    1.111   .     S
C221   C653    1.518   .     S
C221   H780    1.110   .     S
H224   C777    1.110   1_455 S
C225   H228    1.110   .     S
C225   H227    1.111   .     S
C225   H226    1.107   .     S
C229   H230    1.108   .     S
C229   H232    1.111   .     S
C229   H231    1.110   .     S
C233   H235    1.110   .     S
C233   H1346   1.109   .     S
C233   H1348   1.111   .     S
H234   C1345   1.109   1_545 S
H236   C1345   1.111   1_545 S
C237   H238    1.108   .     S
C237   H240    1.110   .     S
C237   H239    1.111   .     S
C241   H242    1.107   .     S
C241   H244    1.110   .     S
C241   H243    1.111   .     S
C245   H246    1.111   .     S
C245   H248    1.110   .     S
C245   H247    1.108   .     S
C249   H250    1.111   .     S
C249   H252    1.110   .     S
C249   H251    1.108   .     S
C253   H255    1.111   .     S
C253   H254    1.108   .     S
C253   H256    1.110   .     S
C257   H260    1.110   .     S
C257   H258    1.108   .     S
C257   H259    1.111   .     S
C261   H264    1.111   .     S
C261   H262    1.108   .     S
C261   H263    1.110   .     S
C265   H267    1.110   .     S
C265   H266    1.108   .     S
C265   H268    1.111   .     S
C269   H274    1.102   .     S
C269   C270    1.531   .     S
C269   H275    1.109   .     S
C270   H272    1.109   .     S
C270   H273    1.110   .     S
C270   H271    1.108   .     S
C276   H282    1.104   .     S
C276   C277    1.524   .     S
C276   H281    1.106   .     S
C277   H278    1.108   .     S
C277   H280    1.110   .     S
C277   H279    1.109   .     S
C283   H288    1.105   .     S
C283   C284    1.533   .     S
C283   H289    1.110   .     S
C284   H285    1.109   .     S
C284   H287    1.110   .     S
C284   H286    1.107   .     S
C290   H296    1.108   .     S
C290   C291    1.533   .     S
C290   H295    1.106   .     S
C291   H292    1.110   .     S
C291   H293    1.111   .     S
C291   H294    1.107   .     S
C297   H302    1.102   .     S
C297   H303    1.108   .     S
C297   C298    1.529   .     S
C298   H299    1.110   .     S
C298   H300    1.108   .     S
C298   H301    1.110   .     S
C304   H310    1.109   .     S
C304   H309    1.108   .     S
C304   C305    1.530   .     S
C305   H307    1.110   .     S
C305   H306    1.108   .     S
C305   H308    1.111   .     S
C311   C312    1.530   .     S
C311   H317    1.108   .     S
C311   H316    1.106   .     S
C312   H313    1.108   .     S
C312   H315    1.104   .     S
C312   H314    1.109   .     S
C318   H323    1.110   .     S
C318   H324    1.108   .     S
C318   C319    1.530   .     S
C319   H321    1.108   .     S
C319   H320    1.109   .     S
C319   H878    1.111   1_455 S
H322   C875    1.111   .     S
C325   H331    1.105   .     S
C325   H330    1.108   .     S
C325   C326    1.524   .     S
C326   H327    1.110   .     S
C326   H329    1.110   .     S
C326   H328    1.108   .     S
C332   C333    1.537   .     S
C332   H337    1.110   .     S
C332   H338    1.103   .     S
C333   H334    1.111   .     S
C333   H336    1.111   .     S
C333   H335    1.108   .     S
C339   H344    1.106   .     S
C339   H345    1.109   .     S
C339   C340    1.533   .     S
C340   H343    1.108   .     S
C340   H341    1.111   .     S
C340   H342    1.110   .     S
C346   H351    1.102   .     S
C346   H352    1.108   .     S
C346   C347    1.527   .     S
C347   H348    1.105   .     S
C347   H350    1.111   .     S
C347   H349    1.108   .     S
C353   H359    1.107   .     S
C353   C354    1.529   .     S
C353   H358    1.104   .     S
C354   H355    1.110   .     S
C354   H356    1.111   .     S
C354   H357    1.109   .     S
C360   H365    1.110   .     S
C360   C361    1.529   .     S
C360   H366    1.109   .     S
C361   H364    1.107   .     S
C361   H362    1.110   .     S
C361   H1475   1.111   1_545 S
H363   C1473   1.111   .     S
C367   H372    1.110   .     S
C367   C368    1.531   .     S
C367   H373    1.108   .     S
C368   H369    1.108   .     S
C368   H371    1.109   .     S
C368   H370    1.108   .     S
C374   H379    1.102   .     S
C374   C375    1.527   .     S
C374   H380    1.108   .     S
C375   H376    1.105   .     S
C375   H378    1.110   .     S
C375   H377    1.111   .     S
C381   H386    1.110   .     S
C381   C382    1.534   .     S
C381   H387    1.104   .     S
C382   H383    1.111   .     S
C382   H384    1.109   .     S
C382   H385    1.108   .     S
C388   H394    1.104   .     S
C388   C389    1.523   .     S
C388   H393    1.104   .     S
C389   H390    1.107   .     S
C389   H392    1.111   .     S
C389   H391    1.109   .     S
C395   H400    1.105   .     S
C395   H401    1.109   .     S
C395   C396    1.529   .     S
C396   H398    1.107   .     S
C396   H397    1.107   .     S
C396   H399    1.107   .     S
C402   C403    1.529   .     S
C402   H407    1.110   .     S
C402   H408    1.108   .     S
C403   H405    1.108   .     S
C403   H404    1.109   .     S
C403   H406    1.111   .     S
C409   H415    1.105   .     S
C409   C410    1.534   .     S
C409   H414    1.100   .     S
C410   H411    1.110   .     S
C410   H412    1.108   .     S
C410   H413    1.110   .     S
C416   C417    1.523   .     S
C416   H422    1.105   .     S
C416   H421    1.106   .     S
C417   H419    1.108   .     S
C417   H418    1.108   .     S
C417   H420    1.110   .     S
C423   C424    1.533   .     S
C423   H429    1.108   .     S
C423   H428    1.104   .     S
C424   H425    1.107   .     S
C424   H427    1.109   .     S
C424   H426    1.110   .     S
C430   H435    1.107   .     S
C430   C431    1.529   .     S
C430   H436    1.107   .     S
C431   H432    1.110   .     S
C431   H433    1.110   .     S
C431   H434    1.109   .     S
C437   C438    1.528   .     S
C437   H443    1.107   .     S
C437   H442    1.105   .     S
C438   H439    1.109   .     S
C438   H441    1.108   .     S
C438   H440    1.110   .     S
C444   H450    1.108   .     S
C444   C445    1.528   .     S
C444   H449    1.109   .     S
C445   H446    1.107   .     S
C445   H448    1.111   .     S
C445   H447    1.110   .     S
C451   H456    1.109   .     S
C451   H457    1.108   .     S
C451   C452    1.530   .     S
C452   H453    1.109   .     S
C452   H455    1.110   .     S
C452   H454    1.108   .     S
C458   H464    1.111   .     S
C458   C459    1.542   .     S
C458   H463    1.108   .     S
C459   H460    1.110   .     S
C459   H461    1.108   .     S
C459   H462    1.111   .     S
C465   H470    1.108   .     S
C465   C466    1.525   .     S
C465   H471    1.106   .     S
C466   H467    1.110   .     S
C466   H468    1.108   .     S
C466   H469    1.107   .     S
C472   H477    1.111   .     S
C472   C473    1.531   .     S
C472   H478    1.108   .     S
C473   H476    1.110   .     S
C473   H474    1.110   .     S
C473   H475    1.108   .     S
C479   H485    1.109   .     S
C479   H484    1.109   .     S
C479   C480    1.533   .     S
C480   H481    1.110   .     S
C480   H483    1.109   .     S
C480   H482    1.109   .     S
C486   H491    1.106   .     S
C486   C487    1.528   .     S
C486   H492    1.103   .     S
C487   H490    1.109   .     S
C487   H489    1.107   .     S
C487   H488    1.108   .     S
C493   H494    1.109   .     S
C493   H496    1.106   .     S
C493   H495    1.109   .     S
C497   H500    1.107   .     S
C497   H499    1.111   .     S
C497   H498    1.110   .     S
C501   H503    1.107   .     S
C501   H502    1.106   .     S
C501   H1616   1.110   .     S
H504   C1613   1.110   1_545 S
C505   H507    1.106   .     S
C505   H506    1.109   .     S
C505   H508    1.110   .     S
C509   H512    1.106   .     S
C509   H510    1.109   .     S
C509   H511    1.110   .     S
C513   H515    1.110   .     S
C513   H516    1.107   .     S
C513   H514    1.110   .     S
C517   H519    1.107   .     S
C517   H518    1.109   .     S
C517   H1632   1.110   1_545 S
H520   C1629   1.110   .     S
C521   H523    1.106   .     S
C521   H522    1.108   .     S
C521   H524    1.108   .     S
C525   H527    1.108   .     S
C525   H526    1.109   .     S
C525   H528    1.106   .     S
C529   H530    1.110   .     S
C529   H532    1.107   .     S
C529   H531    1.109   .     S
C533   H535    1.106   .     S
C533   H534    1.109   .     S
C533   H536    1.110   .     S
C537   H540    1.110   .     S
C537   H539    1.107   .     S
C537   H538    1.109   .     S
C541   H544    1.106   .     S
C541   H542    1.107   .     S
C541   H543    1.110   .     S
C545   H548    1.107   .     S
C545   H547    1.111   .     S
C545   H546    1.110   .     S
C549   H550    1.106   .     S
C549   H551    1.110   .     S
C549   H552    1.109   .     S
C553   H554    1.107   .     S
C553   H556    1.109   .     S
C553   H555    1.110   .     S
Zn557  O643    1.933   .     S
Zn557  O612    1.946   .     S
Zn557  O597    1.956   .     S
Zn557  O1752   1.940   1_545 S
Zn558  O639    1.940   .     S
Zn558  O611    1.946   .     S
Zn558  O598    1.956   .     S
Zn558  O1756   1.933   1_545 S
Zn559  O614    1.948   .     S
Zn559  O599    1.944   .     S
Zn559  O634    1.939   .     S
Zn560  O613    1.948   .     S
Zn560  O600    1.944   .     S
Zn560  O642    1.942   .     S
Zn561  O616    1.950   .     S
Zn561  O636    1.940   .     S
Zn561  O597    1.948   .     S
Zn561  O1759   1.936   1_545 S
Zn562  O648    1.936   .     S
Zn562  O598    1.948   .     S
Zn562  O615    1.950   .     S
Zn562  O1747   1.940   1_545 S
Zn563  O599    1.948   .     S
Zn563  O610    1.946   .     S
Zn563  O645    1.944   .     S
Zn564  O609    1.946   .     S
Zn564  O600    1.948   .     S
Zn564  O637    1.936   .     S
Zn565  O604    1.946   .     S
Zn565  O627    1.933   .     S
Zn565  O624    1.940   .     S
Zn565  O44     1.956   1_655 S
Zn566  O603    1.946   .     S
Zn566  O628    1.933   .     S
Zn566  O623    1.940   .     S
Zn566  O599    1.956   .     S
Zn567  O618    1.939   .     S
Zn567  O625    1.942   .     S
Zn567  O606    1.948   .     S
Zn567  O1710   1.944   .     S
Zn568  O605    1.948   .     S
Zn568  O626    1.942   .     S
Zn568  O597    1.944   .     S
Zn568  O617    1.939   .     S
Zn569  O631    1.936   .     S
Zn569  O620    1.940   .     S
Zn569  O608    1.950   .     S
Zn569  O600    1.948   .     S
Zn570  O632    1.936   .     S
Zn570  O43     1.948   1_655 S
Zn570  O607    1.950   .     S
Zn570  O619    1.940   .     S
Zn571  O598    1.948   .     S
Zn571  O622    1.936   .     S
Zn571  O602    1.946   .     S
Zn571  O629    1.944   .     S
Zn572  O601    1.946   .     S
Zn572  O621    1.936   .     S
Zn572  O630    1.944   .     S
Zn572  O1709   1.948   .     S
C573   C1049   1.516   .     S
C573   C725    1.415   .     A
C574   C590    1.405   .     A
C574   C1053   1.519   .     S
C575   C1057   1.518   .     S
C575   C1703   1.404   .     S
C575   C1839   1.416   .     S
C576   C728    1.416   .     A
C576   C1061   1.519   .     S
C576   C592    1.408   .     A
C577   C589    1.408   .     A
C577   C1065   1.518   .     S
C577   C721    1.417   .     A
C578   C1069   1.519   .     S
C578   C34     1.404   1_655 S
C578   C166    1.415   1_655 S
C579   C1073   1.517   .     S
C579   C591    1.403   .     A
C579   C1835   1.414   1_545 S
C580   C724    1.414   .     A
C580   C1077   1.515   .     S
C580   C1704   1.407   1_545 S
C581   C733    1.415   .     A
C581   C1081   1.515   .     S
C581   C1705   1.407   1_545 S
C582   C734    1.414   .     A
C582   C1085   1.518   .     S
C582   C1706   1.404   .     S
C583   C1089   1.519   .     S
C583   C735    1.416   .     A
C583   C595    1.408   .     A
C584   C736    1.414   .     A
C584   C1093   1.515   .     S
C585   C1097   1.516   .     S
C585   C593    1.407   .     A
C585   C729    1.416   .     A
C586   C594    1.405   .     A
C586   C730    1.417   .     A
C586   C1101   1.519   .     S
C587   C1105   1.519   .     S
C587   C731    1.415   .     A
C588   C1109   1.517   .     S
C588   C732    1.416   .     A
C588   C596    1.404   .     A
C589   C667    1.462   .     S
C589   C17     1.407   1_655 S
C590   C668    1.455   .     S
C591   C665    1.453   .     S
C591   C1687   1.404   1_545 S
C592   C666    1.462   .     S
C592   C1692   1.407   .     S
C593   C671    1.464   .     S
C593   C1693   1.407   .     S
C594   C672    1.455   .     S
C594   C1694   1.404   1_545 S
C595   C669    1.460   .     S
C595   C31     1.407   1_655 S
C596   C670    1.457   .     S
C596   C28     1.403   1_655 S
O597   Zn1684  1.948   1_545 S
O598   Zn1679  1.944   1_545 S
O601   C1777   1.276   .     S
O602   C1778   1.278   1_545 S
O604   C112    1.279   1_655 S
O605   C665    1.274   .     A
O606   C666    1.277   .     A
O607   C667    1.282   .     A
O608   C668    1.279   .     A
O611   C1783   1.281   1_545 S
O612   C672    1.280   .     A
O615   C1783   1.282   1_545 S
O616   C672    1.279   .     A
O617   C673    1.277   .     A
O618   C674    1.275   .     A
O619   C675    1.279   .     A
O620   C676    1.260   .     A
O621   C677    1.280   .     A
O622   C678    1.279   .     A
O623   C679    1.280   .     A
O624   C680    1.279   .     A
O625   C681    1.286   .     A
O626   C682    1.277   .     A
O627   C683    1.286   .     A
O628   C684    1.284   .     A
O629   C685    1.284   .     A
O630   C686    1.282   .     A
O631   C687    1.280   .     A
O632   C688    1.282   .     A
O633   C683    1.274   .     A
O633   Zn4     1.939   1_655 S
O634   C684    1.279   .     A
O635   C681    1.280   .     A
O635   Zn1674  1.940   .     S
O636   C682    1.278   .     A
O637   C687    1.275   .     A
O638   C688    1.277   .     A
O638   Zn7     1.936   1_655 S
O639   C685    1.282   .     A
O640   C686    1.281   .     A
O640   Zn1669  1.940   .     S
O641   Zn3     1.942   1_655 S
O641   C675    1.277   .     A
O642   C676    1.301   .     A
O643   C673    1.281   .     A
O644   C674    1.288   .     A
O644   Zn1670  1.933   .     S
O645   C679    1.284   .     A
O646   C680    1.282   .     A
O646   Zn8     1.944   1_655 S
O647   C677    1.278   .     A
O647   Zn1673  1.936   .     S
O648   C678    1.282   .     A
C649   C721    1.418   .     A
C649   C654    1.406   .     A
C649   C205    1.518   1_655 S
C650   C653    1.405   .     A
C650   C722    1.419   .     A
C650   C765    1.518   .     S
C651   C656    1.404   .     A
C651   C723    1.420   .     A
C651   C769    1.518   .     S
C652   C655    1.402   .     A
C652   C724    1.417   .     A
C652   C1885   1.518   1_545 S
C653   C725    1.418   .     A
C654   C726    1.420   .     A
C654   C781    1.518   .     S
C655   C785    1.517   .     S
C655   C727    1.419   .     A
C656   C728    1.418   .     A
C656   C789    1.518   .     S
C657   C729    1.419   .     A
C657   C793    1.518   .     S
C657   C662    1.406   1_556 S
C658   C797    1.518   .     S
C658   C730    1.420   .     A
C658   C661    1.406   1_554 S
C659   C731    1.419   .     A
C659   C801    1.518   .     S
C659   C664    1.405   1_556 S
C660   C732    1.419   .     A
C660   C805    1.518   .     S
C660   C663    1.406   1_554 S
C661   C809    1.518   .     S
C661   C733    1.419   .     A
C661   C658    1.406   1_556 S
C662   C734    1.419   .     A
C662   C813    1.518   .     S
C662   C657    1.406   1_554 S
C663   C817    1.518   .     S
C663   C735    1.419   .     A
C663   C660    1.406   1_556 S
C664   C736    1.418   .     A
C664   C821    1.518   .     S
C664   C659    1.405   1_554 S
C665   O1713   1.276   1_545 S
C666   O1714   1.278   .     S
C667   O47     1.281   1_655 S
C669   O53     1.277   1_655 A
C669   O57     1.277   1_655 A
C670   O54     1.276   1_655 A
C670   O58     1.276   1_655 A
C671   O1723   1.281   .     S
C671   O1727   1.282   .     S
C673   C739    1.454   .     S
C674   C740    1.461   .     S
C675   C741    1.463   .     S
C676   C742    1.469   .     S
C677   C743    1.458   .     S
C678   C744    1.462   .     S
C679   C737    1.463   .     S
C680   C738    1.459   .     S
C681   C747    1.475   .     S
C682   C748    1.460   .     S
C683   C749    1.456   .     S
C684   C750    1.463   .     S
C685   C751    1.466   .     S
C686   C752    1.461   .     S
C687   C745    1.453   .     S
C688   C746    1.458   .     S
C689   C752    1.421   .     A
C689   C825    1.538   .     S
C689   C704    1.421   .     A
C690   C703    1.414   .     A
C690   C751    1.419   .     A
C690   C832    1.530   .     S
C691   C702    1.415   .     A
C691   C750    1.419   .     A
C691   C839    1.529   .     S
C692   C701    1.409   .     A
C692   C846    1.522   .     S
C692   C749    1.415   .     A
C693   C853    1.534   .     S
C693   C700    1.419   .     A
C693   C748    1.421   .     A
C694   C699    1.394   .     A
C694   C747    1.424   .     A
C694   C860    1.528   .     S
C695   C698    1.417   .     A
C695   C746    1.418   .     A
C695   C867    1.530   .     S
C696   C697    1.414   .     A
C696   C745    1.415   .     A
C696   C874    1.532   .     S
C697   C881    1.529   .     S
C697   C744    1.419   .     A
C698   C888    1.533   .     S
C698   C743    1.419   .     A
C699   C742    1.397   .     A
C699   C895    1.521   .     S
C700   C741    1.421   .     A
C700   C902    1.538   .     S
C701   C740    1.409   .     A
C701   C909    1.530   .     S
C702   C739    1.414   .     A
C702   C916    1.533   .     S
C703   C923    1.533   .     S
C703   C738    1.418   .     A
C704   C930    1.537   .     S
C704   C737    1.423   .     A
C705   C738    1.421   .     A
C705   C720    1.418   .     A
C705   C937    1.539   .     S
C706   C719    1.413   .     A
C706   C737    1.420   .     A
C706   C944    1.535   .     S
C707   C740    1.420   .     A
C707   C951    1.519   .     S
C707   C718    1.413   .     A
C708   C958    1.532   .     S
C708   C717    1.414   .     A
C708   C739    1.415   .     A
C709   C965    1.543   .     S
C709   C716    1.409   .     A
C709   C742    1.427   .     A
C710   C715    1.413   .     A
C710   C972    1.530   .     S
C710   C741    1.420   .     A
C711   C714    1.415   .     A
C711   C979    1.529   .     S
C711   C744    1.419   .     A
C712   C743    1.415   .     A
C712   C713    1.411   .     A
C712   C986    1.530   .     S
C713   C746    1.415   .     A
C713   C993    1.527   .     S
C714   C1000   1.534   .     S
C714   C745    1.415   .     A
C715   C748    1.416   .     A
C715   C1007   1.534   .     S
C716   C1014   1.524   .     S
C716   C747    1.425   .     A
C717   C1021   1.527   .     S
C717   C750    1.418   .     A
C718   C749    1.410   .     A
C718   C1028   1.534   .     S
C719   C752    1.416   .     A
C719   C1035   1.530   .     S
C720   C751    1.421   .     A
C720   C1042   1.531   .     S
C721   C753    1.419   .     A
C722   C754    1.421   .     A
C723   C755    1.421   .     A
C723   C1691   1.414   .     S
C724   C1868   1.417   1_545 S
C726   C18     1.417   1_655 S
C726   C198    1.421   1_655 S
C727   C1687   1.416   1_545 S
C727   C1867   1.423   1_545 S
C728   C756    1.420   .     A
C729   C1869   1.419   .     S
C730   C758    1.421   .     A
C732   C760    1.420   .     A
C733   C757    1.418   .     A
C734   C1870   1.420   .     S
C735   C759    1.419   .     A
C753   C169    1.418   1_655 S
C753   C198    1.410   1_655 S
C755   C756    1.411   .     A
C755   C1839   1.423   .     S
C756   C1836   1.417   .     S
C757   C1841   1.419   1_545 S
C757   C758    1.409   1_556 S
C758   C1846   1.420   1_545 S
C758   C757    1.409   1_554 S
C759   C175    1.419   1_655 S
C759   C760    1.409   1_556 S
C760   C180    1.420   1_655 S
C760   C759    1.409   1_554 S
C761   H763    1.111   .     S
C761   H762    1.108   .     S
H764   C205    1.110   1_655 S
C765   H767    1.111   .     S
C765   H768    1.110   .     S
C765   H766    1.108   .     S
C769   H771    1.110   .     S
C769   H770    1.108   .     S
C769   H772    1.111   .     S
C773   H774    1.111   .     S
C773   H775    1.109   .     S
C773   C1764   1.518   .     S
C773   H1888   1.110   .     S
H776   C1885   1.110   1_545 S
C777   H778    1.108   .     S
C777   H779    1.111   .     S
C777   C97     1.518   1_655 S
C777   H224    1.110   1_655 S
C781   H784    1.110   .     S
C781   H783    1.111   .     S
C781   H782    1.107   .     S
C785   H786    1.108   .     S
C785   H788    1.111   .     S
C785   H787    1.110   .     S
C789   H791    1.110   .     S
C789   H1902   1.109   .     S
C789   H1904   1.111   .     S
H790   C1901   1.109   1_545 S
H792   C1901   1.111   1_545 S
C793   H794    1.108   .     S
C793   H796    1.110   .     S
C793   H795    1.111   .     S
C797   H798    1.107   .     S
C797   H800    1.110   .     S
C797   H799    1.111   .     S
C801   H802    1.111   .     S
C801   H804    1.110   .     S
C801   H803    1.108   .     S
C805   H806    1.111   .     S
C805   H808    1.110   .     S
C805   H807    1.108   .     S
C809   H811    1.111   .     S
C809   H810    1.108   .     S
C809   H812    1.110   .     S
C813   H816    1.110   .     S
C813   H814    1.108   .     S
C813   H815    1.111   .     S
C817   H820    1.111   .     S
C817   H818    1.108   .     S
C817   H819    1.110   .     S
C821   H823    1.110   .     S
C821   H822    1.108   .     S
C821   H824    1.111   .     S
C825   H830    1.102   .     S
C825   C826    1.531   .     S
C825   H831    1.109   .     S
C826   H828    1.109   .     S
C826   H829    1.110   .     S
C826   H827    1.108   .     S
C832   H838    1.104   .     S
C832   C833    1.524   .     S
C832   H837    1.106   .     S
C833   H834    1.108   .     S
C833   H836    1.110   .     S
C833   H835    1.109   .     S
C839   H844    1.105   .     S
C839   C840    1.533   .     S
C839   H845    1.110   .     S
C840   H841    1.109   .     S
C840   H843    1.110   .     S
C840   H842    1.107   .     S
C846   H852    1.108   .     S
C846   C847    1.533   .     S
C846   H851    1.106   .     S
C847   H848    1.110   .     S
C847   H849    1.111   .     S
C847   H850    1.107   .     S
C853   H858    1.102   .     S
C853   H859    1.108   .     S
C853   C854    1.529   .     S
C854   H855    1.110   .     S
C854   H856    1.108   .     S
C854   H857    1.110   .     S
C860   H866    1.109   .     S
C860   H865    1.108   .     S
C860   C861    1.530   .     S
C861   H863    1.110   .     S
C861   H862    1.108   .     S
C861   H864    1.111   .     S
C867   C868    1.530   .     S
C867   H873    1.108   .     S
C867   H872    1.106   .     S
C868   H869    1.108   .     S
C868   H871    1.104   .     S
C868   H870    1.109   .     S
C874   H879    1.110   .     S
C874   H880    1.108   .     S
C874   C875    1.530   .     S
C875   H877    1.108   .     S
C875   H876    1.109   .     S
H878   C319    1.111   1_655 S
C881   H887    1.105   .     S
C881   H886    1.108   .     S
C881   C882    1.524   .     S
C882   H883    1.110   .     S
C882   H885    1.110   .     S
C882   H884    1.108   .     S
C888   C889    1.537   .     S
C888   H893    1.110   .     S
C888   H894    1.103   .     S
C889   H890    1.111   .     S
C889   H892    1.111   .     S
C889   H891    1.108   .     S
C895   H900    1.106   .     S
C895   H901    1.109   .     S
C895   C896    1.533   .     S
C896   H899    1.108   .     S
C896   H897    1.111   .     S
C896   H898    1.110   .     S
C902   H907    1.102   .     S
C902   H908    1.108   .     S
C902   C903    1.527   .     S
C903   H904    1.105   .     S
C903   H906    1.111   .     S
C903   H905    1.108   .     S
C909   H915    1.107   .     S
C909   C910    1.529   .     S
C909   H914    1.104   .     S
C910   H911    1.110   .     S
C910   H912    1.111   .     S
C910   H913    1.109   .     S
C916   H921    1.110   .     S
C916   C917    1.529   .     S
C916   H922    1.109   .     S
C917   H920    1.107   .     S
C917   H918    1.110   .     S
C917   H2031   1.111   1_545 S
H919   C2029   1.111   .     S
C923   H928    1.110   .     S
C923   C924    1.531   .     S
C923   H929    1.108   .     S
C924   H925    1.108   .     S
C924   H927    1.109   .     S
C924   H926    1.108   .     S
C930   H935    1.102   .     S
C930   C931    1.527   .     S
C930   H936    1.108   .     S
C931   H932    1.105   .     S
C931   H934    1.110   .     S
C931   H933    1.111   .     S
C937   H942    1.110   .     S
C937   C938    1.534   .     S
C937   H943    1.104   .     S
C938   H939    1.111   .     S
C938   H940    1.109   .     S
C938   H941    1.108   .     S
C944   H950    1.104   .     S
C944   C945    1.523   .     S
C944   H949    1.104   .     S
C945   H946    1.107   .     S
C945   H948    1.111   .     S
C945   H947    1.109   .     S
C951   H956    1.105   .     S
C951   H957    1.109   .     S
C951   C952    1.529   .     S
C952   H954    1.107   .     S
C952   H953    1.107   .     S
C952   H955    1.107   .     S
C958   C959    1.529   .     S
C958   H963    1.110   .     S
C958   H964    1.108   .     S
C959   H961    1.108   .     S
C959   H960    1.109   .     S
C959   H962    1.111   .     S
C965   H971    1.105   .     S
C965   C966    1.534   .     S
C965   H970    1.100   .     S
C966   H967    1.110   .     S
C966   H968    1.108   .     S
C966   H969    1.110   .     S
C972   C973    1.523   .     S
C972   H978    1.105   .     S
C972   H977    1.106   .     S
C973   H975    1.108   .     S
C973   H974    1.108   .     S
C973   H976    1.110   .     S
C979   C980    1.533   .     S
C979   H985    1.108   .     S
C979   H984    1.104   .     S
C980   H981    1.107   .     S
C980   H983    1.109   .     S
C980   H982    1.110   .     S
C986   H991    1.107   .     S
C986   C987    1.529   .     S
C986   H992    1.107   .     S
C987   H988    1.110   .     S
C987   H989    1.110   .     S
C987   H990    1.109   .     S
C993   C994    1.528   .     S
C993   H999    1.107   .     S
C993   H998    1.105   .     S
C994   H995    1.109   .     S
C994   H997    1.108   .     S
C994   H996    1.110   .     S
C1000  H1006   1.108   .     S
C1000  C1001   1.528   .     S
C1000  H1005   1.109   .     S
C1001  H1002   1.107   .     S
C1001  H1004   1.111   .     S
C1001  H1003   1.110   .     S
C1007  H1012   1.109   .     S
C1007  H1013   1.108   .     S
C1007  C1008   1.530   .     S
C1008  H1009   1.109   .     S
C1008  H1011   1.110   .     S
C1008  H1010   1.108   .     S
C1014  H1020   1.111   .     S
C1014  C1015   1.542   .     S
C1014  H1019   1.108   .     S
C1015  H1016   1.110   .     S
C1015  H1017   1.108   .     S
C1015  H1018   1.111   .     S
C1021  H1026   1.108   .     S
C1021  C1022   1.525   .     S
C1021  H1027   1.106   .     S
C1022  H1023   1.110   .     S
C1022  H1024   1.108   .     S
C1022  H1025   1.107   .     S
C1028  H1033   1.111   .     S
C1028  C1029   1.531   .     S
C1028  H1034   1.108   .     S
C1029  H1032   1.110   .     S
C1029  H1030   1.110   .     S
C1029  H1031   1.108   .     S
C1035  H1041   1.109   .     S
C1035  H1040   1.109   .     S
C1035  C1036   1.533   .     S
C1036  H1037   1.110   .     S
C1036  H1039   1.109   .     S
C1036  H1038   1.109   .     S
C1042  H1047   1.106   .     S
C1042  C1043   1.528   .     S
C1042  H1048   1.103   .     S
C1043  H1046   1.109   .     S
C1043  H1045   1.107   .     S
C1043  H1044   1.108   .     S
C1049  H1050   1.109   .     S
C1049  H1052   1.106   .     S
C1049  H1051   1.109   .     S
C1053  H1056   1.107   .     S
C1053  H1055   1.111   .     S
C1053  H1054   1.110   .     S
C1057  H1059   1.107   .     S
C1057  H1058   1.106   .     S
C1057  H2172   1.110   .     S
H1060  C2169   1.110   1_545 S
C1061  H1063   1.106   .     S
C1061  H1062   1.109   .     S
C1061  H1064   1.110   .     S
C1065  H1068   1.106   .     S
C1065  H1066   1.109   .     S
C1065  H1067   1.110   .     S
C1069  H1071   1.110   .     S
C1069  H1072   1.107   .     S
C1069  H1070   1.110   .     S
C1073  H1075   1.107   .     S
C1073  H1074   1.109   .     S
C1073  H2188   1.110   1_545 S
H1076  C2185   1.110   .     S
C1077  H1079   1.106   .     S
C1077  H1078   1.108   .     S
C1077  H1080   1.108   .     S
C1081  H1083   1.108   .     S
C1081  H1082   1.109   .     S
C1081  H1084   1.106   .     S
C1085  H1086   1.110   .     S
C1085  H1088   1.107   .     S
C1085  H1087   1.109   .     S
C1089  H1091   1.106   .     S
C1089  H1090   1.109   .     S
C1089  H1092   1.110   .     S
C1093  H1096   1.110   .     S
C1093  H1095   1.107   .     S
C1093  H1094   1.109   .     S
C1097  H1100   1.106   .     S
C1097  H1098   1.107   .     S
C1097  H1099   1.110   .     S
C1101  H1104   1.107   .     S
C1101  H1103   1.111   .     S
C1101  H1102   1.110   .     S
C1105  H1106   1.106   .     S
C1105  H1107   1.110   .     S
C1105  H1108   1.109   .     S
C1109  H1110   1.107   .     S
C1109  H1112   1.109   .     S
C1109  H1111   1.110   .     S
Zn1113 O1199   1.933   .     S
Zn1113 O1168   1.946   .     S
Zn1113 O1153   1.956   .     S
Zn1114 O1195   1.940   .     S
Zn1114 O1167   1.946   .     S
Zn1114 O1154   1.956   .     S
Zn1115 O1753   1.942   1_455 S
Zn1115 O1170   1.948   .     S
Zn1115 O1155   1.944   .     S
Zn1115 O1190   1.939   .     S
Zn1116 O1745   1.939   1_455 S
Zn1116 O1169   1.948   .     S
Zn1116 O1156   1.944   .     S
Zn1116 O1198   1.942   .     S
Zn1117 O1172   1.950   .     S
Zn1117 O1192   1.940   .     S
Zn1117 O1153   1.948   .     S
Zn1118 O1204   1.936   .     S
Zn1118 O1154   1.948   .     S
Zn1118 O1171   1.950   .     S
Zn1119 O1155   1.948   .     S
Zn1119 O1166   1.946   .     S
Zn1119 O1750   1.936   1_455 S
Zn1119 O1201   1.944   .     S
Zn1120 O1165   1.946   .     S
Zn1120 O1758   1.944   1_455 S
Zn1120 O1156   1.948   .     S
Zn1120 O1193   1.936   .     S
Zn1121 O1160   1.946   .     S
Zn1121 O1183   1.933   .     S
Zn1121 O1180   1.940   .     S
Zn1121 O1712   1.956   .     S
Zn1122 O1159   1.946   .     S
Zn1122 O1184   1.933   .     S
Zn1122 O1179   1.940   .     S
Zn1122 O1155   1.956   .     S
Zn1123 O1174   1.939   .     S
Zn1123 O1181   1.942   .     S
Zn1123 O1162   1.948   .     S
Zn1123 O42     1.944   1_565 S
Zn1124 O1161   1.948   .     S
Zn1124 O1182   1.942   .     S
Zn1124 O1153   1.944   .     S
Zn1124 O1173   1.939   .     S
Zn1125 O1187   1.936   .     S
Zn1125 O1176   1.940   .     S
Zn1125 O1164   1.950   .     S
Zn1125 O1156   1.948   .     S
Zn1126 O1188   1.936   .     S
Zn1126 O1711   1.948   .     S
Zn1126 O1163   1.950   .     S
Zn1126 O1175   1.940   .     S
Zn1127 O1154   1.948   .     S
Zn1127 O1178   1.936   .     S
Zn1127 O1158   1.946   .     S
Zn1127 O1185   1.944   .     S
Zn1128 O1157   1.946   .     S
Zn1128 O1177   1.936   .     S
Zn1128 O1186   1.944   .     S
Zn1128 O41     1.948   1_565 S
C1129  C1605   1.516   .     S
C1129  C1281   1.415   .     A
C1129  C1701   1.407   1_455 S
C1130  C1146   1.405   .     A
C1130  C1609   1.519   .     S
C1130  C1838   1.417   1_455 S
C1131  C1613   1.518   .     S
C1131  C35     1.404   1_565 S
C1131  C171    1.416   1_565 S
C1132  C1284   1.416   .     A
C1132  C1617   1.519   .     S
C1132  C1148   1.408   .     A
C1133  C1145   1.408   .     A
C1133  C1621   1.518   .     S
C1133  C1277   1.417   .     A
C1134  C1625   1.519   .     S
C1134  C1702   1.404   .     S
C1134  C1834   1.415   .     S
C1135  C1629   1.517   .     S
C1135  C1147   1.403   .     A
C1136  C1280   1.414   .     A
C1136  C1633   1.515   .     S
C1137  C1289   1.415   .     A
C1137  C1637   1.515   .     S
C1138  C1290   1.414   .     A
C1138  C1641   1.518   .     S
C1138  C38     1.404   1_565 S
C1139  C1645   1.519   .     S
C1139  C1291   1.416   .     A
C1139  C1151   1.408   .     A
C1140  C1292   1.414   .     A
C1140  C1649   1.515   .     S
C1140  C1708   1.403   1_455 S
C1141  C1653   1.516   .     S
C1141  C1149   1.407   .     A
C1141  C1285   1.416   .     A
C1142  C1150   1.405   .     A
C1142  C1286   1.417   .     A
C1142  C1657   1.519   .     S
C1143  C1661   1.519   .     S
C1143  C1287   1.415   .     A
C1143  C1707   1.407   1_455 S
C1144  C1665   1.517   .     S
C1144  C1288   1.416   .     A
C1144  C1152   1.404   .     A
C1145  C1223   1.462   .     S
C1145  C1685   1.407   .     S
C1146  C1224   1.455   .     S
C1146  C1690   1.404   1_455 S
C1147  C1221   1.453   .     S
C1148  C1222   1.462   .     S
C1148  C24     1.407   1_565 S
C1149  C1227   1.464   .     S
C1149  C25     1.407   1_565 S
C1150  C1228   1.455   .     S
C1151  C1225   1.460   .     S
C1151  C1699   1.407   .     S
C1152  C1226   1.457   .     S
C1152  C1696   1.403   .     S
O1155  Zn1682  1.948   1_455 S
O1156  Zn1677  1.956   1_455 S
O1157  C109    1.276   1_565 S
O1159  C1779   1.281   1_455 S
O1160  C1780   1.279   .     S
O1161  C1221   1.274   .     A
O1162  C1222   1.277   .     A
O1163  C1223   1.282   .     A
O1164  C1224   1.279   .     A
O1165  C1781   1.277   1_455 A
O1166  C1782   1.276   1_455 A
O1168  C1228   1.280   .     A
O1169  C1781   1.277   1_455 A
O1170  C1782   1.276   1_455 A
O1172  C1228   1.279   .     A
O1173  C1229   1.277   .     A
O1174  C1230   1.275   .     A
O1175  C1231   1.279   .     A
O1176  C1232   1.260   .     A
O1177  C1233   1.280   .     A
O1178  C1234   1.279   .     A
O1179  C1235   1.280   .     A
O1180  C1236   1.279   .     A
O1181  C1237   1.286   .     A
O1182  C1238   1.277   .     A
O1183  C1239   1.286   .     A
O1184  C1240   1.284   .     A
O1185  C1241   1.284   .     A
O1186  C1242   1.282   .     A
O1187  C1243   1.280   .     A
O1188  C1244   1.282   .     A
O1189  C1239   1.274   .     A
O1189  Zn1672  1.939   .     S
O1190  C1240   1.279   .     A
O1191  C1237   1.280   .     A
O1191  Zn6     1.940   1_565 S
O1192  C1238   1.278   .     A
O1193  C1243   1.275   .     A
O1194  C1244   1.277   .     A
O1194  Zn1675  1.936   .     S
O1195  C1241   1.282   .     A
O1196  C1242   1.281   .     A
O1196  Zn1     1.940   1_565 S
O1197  Zn1671  1.942   .     S
O1197  C1231   1.277   .     A
O1198  C1232   1.301   .     A
O1199  C1229   1.281   .     A
O1200  C1230   1.288   .     A
O1200  Zn2     1.933   1_565 S
O1201  C1235   1.284   .     A
O1202  C1236   1.282   .     A
O1202  Zn1676  1.944   .     S
O1203  C1233   1.278   .     A
O1203  Zn5     1.936   1_565 S
O1204  C1234   1.282   .     A
C1205  C1277   1.418   .     A
C1205  C1210   1.406   .     A
C1205  C1873   1.518   .     S
C1206  C1209   1.405   .     A
C1206  C1278   1.419   .     A
C1206  C1321   1.518   .     S
C1207  C1212   1.404   .     A
C1207  C1279   1.420   .     A
C1207  C1325   1.518   .     S
C1208  C1211   1.402   .     A
C1208  C1280   1.417   .     A
C1209  C1281   1.418   .     A
C1209  C1889   1.518   1_455 S
C1210  C1282   1.420   .     A
C1210  C1337   1.518   .     S
C1211  C1341   1.517   .     S
C1211  C1283   1.419   .     A
C1212  C1284   1.418   .     A
C1212  C1345   1.518   .     S
C1213  C1285   1.419   .     A
C1213  C1349   1.518   .     S
C1213  C1218   1.406   1_556 S
C1214  C1353   1.518   .     S
C1214  C1286   1.420   .     A
C1214  C1217   1.406   1_554 S
C1215  C1287   1.419   .     A
C1215  C1357   1.518   .     S
C1215  C1220   1.405   1_556 S
C1216  C1288   1.419   .     A
C1216  C1361   1.518   .     S
C1216  C1219   1.406   1_554 S
C1217  C1365   1.518   .     S
C1217  C1289   1.419   .     A
C1217  C1214   1.406   1_556 S
C1218  C1290   1.419   .     A
C1218  C1369   1.518   .     S
C1218  C1213   1.406   1_554 S
C1219  C1373   1.518   .     S
C1219  C1291   1.419   .     A
C1219  C1216   1.406   1_556 S
C1220  C1292   1.418   .     A
C1220  C1377   1.518   .     S
C1220  C1215   1.405   1_554 S
C1222  O46     1.278   1_565 S
C1223  O1715   1.281   .     S
C1224  O1716   1.279   1_455 S
C1225  O1721   1.277   .     A
C1225  O1725   1.277   .     A
C1226  O1722   1.276   .     A
C1226  O1726   1.276   .     A
C1227  O55     1.281   1_565 S
C1227  O59     1.282   1_565 S
C1229  C1295   1.454   .     S
C1230  C1296   1.461   .     S
C1231  C1297   1.463   .     S
C1232  C1298   1.469   .     S
C1233  C1299   1.458   .     S
C1234  C1300   1.462   .     S
C1235  C1293   1.463   .     S
C1236  C1294   1.459   .     S
C1237  C1303   1.475   .     S
C1238  C1304   1.460   .     S
C1239  C1305   1.456   .     S
C1240  C1306   1.463   .     S
C1241  C1307   1.466   .     S
C1242  C1308   1.461   .     S
C1243  C1301   1.453   .     S
C1244  C1302   1.458   .     S
C1245  C1308   1.421   .     A
C1245  C1381   1.538   .     S
C1245  C1260   1.421   .     A
C1246  C1259   1.414   .     A
C1246  C1307   1.419   .     A
C1246  C1388   1.530   .     S
C1247  C1258   1.415   .     A
C1247  C1306   1.419   .     A
C1247  C1395   1.529   .     S
C1248  C1257   1.409   .     A
C1248  C1402   1.522   .     S
C1248  C1305   1.415   .     A
C1249  C1409   1.534   .     S
C1249  C1256   1.419   .     A
C1249  C1304   1.421   .     A
C1250  C1255   1.394   .     A
C1250  C1303   1.424   .     A
C1250  C1416   1.528   .     S
C1251  C1254   1.417   .     A
C1251  C1302   1.418   .     A
C1251  C1423   1.530   .     S
C1252  C1253   1.414   .     A
C1252  C1301   1.415   .     A
C1252  C1430   1.532   .     S
C1253  C1437   1.529   .     S
C1253  C1300   1.419   .     A
C1254  C1444   1.533   .     S
C1254  C1299   1.419   .     A
C1255  C1298   1.397   .     A
C1255  C1451   1.521   .     S
C1256  C1297   1.421   .     A
C1256  C1458   1.538   .     S
C1257  C1296   1.409   .     A
C1257  C1465   1.530   .     S
C1258  C1295   1.414   .     A
C1258  C1472   1.533   .     S
C1259  C1479   1.533   .     S
C1259  C1294   1.418   .     A
C1260  C1486   1.537   .     S
C1260  C1293   1.423   .     A
C1261  C1294   1.421   .     A
C1261  C1276   1.418   .     A
C1261  C1493   1.539   .     S
C1262  C1275   1.413   .     A
C1262  C1293   1.420   .     A
C1262  C1500   1.535   .     S
C1263  C1296   1.420   .     A
C1263  C1507   1.519   .     S
C1263  C1274   1.413   .     A
C1264  C1514   1.532   .     S
C1264  C1273   1.414   .     A
C1264  C1295   1.415   .     A
C1265  C1521   1.543   .     S
C1265  C1272   1.409   .     A
C1265  C1298   1.427   .     A
C1266  C1271   1.413   .     A
C1266  C1528   1.530   .     S
C1266  C1297   1.420   .     A
C1267  C1270   1.415   .     A
C1267  C1535   1.529   .     S
C1267  C1300   1.419   .     A
C1268  C1299   1.415   .     A
C1268  C1269   1.411   .     A
C1268  C1542   1.530   .     S
C1269  C1302   1.415   .     A
C1269  C1549   1.527   .     S
C1270  C1556   1.534   .     S
C1270  C1301   1.415   .     A
C1271  C1304   1.416   .     A
C1271  C1563   1.534   .     S
C1272  C1570   1.524   .     S
C1272  C1303   1.425   .     A
C1273  C1577   1.527   .     S
C1273  C1306   1.418   .     A
C1274  C1305   1.410   .     A
C1274  C1584   1.534   .     S
C1275  C1308   1.416   .     A
C1275  C1591   1.530   .     S
C1276  C1307   1.421   .     A
C1276  C1598   1.531   .     S
C1277  C1309   1.419   .     A
C1278  C1310   1.421   .     A
C1278  C1690   1.415   1_455 S
C1279  C1311   1.421   .     A
C1279  C23     1.414   1_565 S
C1281  C1865   1.418   1_455 S
C1282  C1686   1.417   .     S
C1282  C1866   1.421   .     S
C1284  C1312   1.420   .     A
C1285  C201    1.419   1_565 S
C1286  C1314   1.421   .     A
C1287  C1871   1.419   1_455 S
C1288  C1316   1.420   .     A
C1289  C1313   1.418   .     A
C1290  C202    1.420   1_565 S
C1291  C1315   1.419   .     A
C1292  C1872   1.420   1_455 S
C1309  C1837   1.418   .     S
C1309  C1866   1.410   .     S
C1310  C1838   1.421   1_455 S
C1310  C1865   1.410   1_455 S
C1311  C1312   1.411   .     A
C1311  C171    1.423   1_565 S
C1312  C168    1.417   1_565 S
C1313  C1314   1.409   1_556 S
C1314  C1313   1.409   1_554 S
C1315  C1843   1.419   .     S
C1315  C1316   1.409   1_556 S
C1316  C1848   1.420   .     S
C1316  C1315   1.409   1_554 S
C1317  H1319   1.111   .     S
C1317  H1318   1.108   .     S
C1317  C1761   1.518   1_455 S
C1317  H1876   1.110   1_455 S
H1320  C1873   1.110   .     S
C1321  H1323   1.111   .     S
C1321  H1324   1.110   .     S
C1321  H1322   1.108   .     S
C1325  H1327   1.110   .     S
C1325  H1326   1.108   .     S
C1325  H1328   1.111   .     S
C1329  H1330   1.111   .     S
C1329  H1331   1.109   .     S
C1329  C96     1.518   1_565 S
C1329  H220    1.110   1_565 S
C1333  H1334   1.108   .     S
C1333  H1335   1.111   .     S
C1333  C1765   1.518   .     S
C1333  H1892   1.110   .     S
H1336  C1889   1.110   1_455 S
C1337  H1340   1.110   .     S
C1337  H1339   1.111   .     S
C1337  H1338   1.107   .     S
C1341  H1342   1.108   .     S
C1341  H1344   1.111   .     S
C1341  H1343   1.110   .     S
C1345  H1347   1.110   .     S
C1345  H234    1.109   1_565 S
C1345  H236    1.111   1_565 S
C1349  H1350   1.108   .     S
C1349  H1352   1.110   .     S
C1349  H1351   1.111   .     S
C1353  H1354   1.107   .     S
C1353  H1356   1.110   .     S
C1353  H1355   1.111   .     S
C1357  H1358   1.111   .     S
C1357  H1360   1.110   .     S
C1357  H1359   1.108   .     S
C1361  H1362   1.111   .     S
C1361  H1364   1.110   .     S
C1361  H1363   1.108   .     S
C1365  H1367   1.111   .     S
C1365  H1366   1.108   .     S
C1365  H1368   1.110   .     S
C1369  H1372   1.110   .     S
C1369  H1370   1.108   .     S
C1369  H1371   1.111   .     S
C1373  H1376   1.111   .     S
C1373  H1374   1.108   .     S
C1373  H1375   1.110   .     S
C1377  H1379   1.110   .     S
C1377  H1378   1.108   .     S
C1377  H1380   1.111   .     S
C1381  H1386   1.102   .     S
C1381  C1382   1.531   .     S
C1381  H1387   1.109   .     S
C1382  H1384   1.109   .     S
C1382  H1385   1.110   .     S
C1382  H1383   1.108   .     S
C1388  H1394   1.104   .     S
C1388  C1389   1.524   .     S
C1388  H1393   1.106   .     S
C1389  H1390   1.108   .     S
C1389  H1392   1.110   .     S
C1389  H1391   1.109   .     S
C1395  H1400   1.105   .     S
C1395  C1396   1.533   .     S
C1395  H1401   1.110   .     S
C1396  H1397   1.109   .     S
C1396  H1399   1.110   .     S
C1396  H1398   1.107   .     S
C1402  H1408   1.108   .     S
C1402  C1403   1.533   .     S
C1402  H1407   1.106   .     S
C1403  H1404   1.110   .     S
C1403  H1405   1.111   .     S
C1403  H1406   1.107   .     S
C1409  H1414   1.102   .     S
C1409  H1415   1.108   .     S
C1409  C1410   1.529   .     S
C1410  H1411   1.110   .     S
C1410  H1412   1.108   .     S
C1410  H1413   1.110   .     S
C1416  H1422   1.109   .     S
C1416  H1421   1.108   .     S
C1416  C1417   1.530   .     S
C1417  H1419   1.110   .     S
C1417  H1418   1.108   .     S
C1417  H1420   1.111   .     S
C1423  C1424   1.530   .     S
C1423  H1429   1.108   .     S
C1423  H1428   1.106   .     S
C1424  H1425   1.108   .     S
C1424  H1427   1.104   .     S
C1424  H1426   1.109   .     S
C1430  H1435   1.110   .     S
C1430  H1436   1.108   .     S
C1430  C1431   1.530   .     S
C1431  H1433   1.108   .     S
C1431  H1432   1.109   .     S
C1431  H1990   1.111   1_455 S
H1434  C1987   1.111   .     S
C1437  H1443   1.105   .     S
C1437  H1442   1.108   .     S
C1437  C1438   1.524   .     S
C1438  H1439   1.110   .     S
C1438  H1441   1.110   .     S
C1438  H1440   1.108   .     S
C1444  C1445   1.537   .     S
C1444  H1449   1.110   .     S
C1444  H1450   1.103   .     S
C1445  H1446   1.111   .     S
C1445  H1448   1.111   .     S
C1445  H1447   1.108   .     S
C1451  H1456   1.106   .     S
C1451  H1457   1.109   .     S
C1451  C1452   1.533   .     S
C1452  H1455   1.108   .     S
C1452  H1453   1.111   .     S
C1452  H1454   1.110   .     S
C1458  H1463   1.102   .     S
C1458  H1464   1.108   .     S
C1458  C1459   1.527   .     S
C1459  H1460   1.105   .     S
C1459  H1462   1.111   .     S
C1459  H1461   1.108   .     S
C1465  H1471   1.107   .     S
C1465  C1466   1.529   .     S
C1465  H1470   1.104   .     S
C1466  H1467   1.110   .     S
C1466  H1468   1.111   .     S
C1466  H1469   1.109   .     S
C1472  H1477   1.110   .     S
C1472  C1473   1.529   .     S
C1472  H1478   1.109   .     S
C1473  H1476   1.107   .     S
C1473  H1474   1.110   .     S
H1475  C361    1.111   1_565 S
C1479  H1484   1.110   .     S
C1479  C1480   1.531   .     S
C1479  H1485   1.108   .     S
C1480  H1481   1.108   .     S
C1480  H1483   1.109   .     S
C1480  H1482   1.108   .     S
C1486  H1491   1.102   .     S
C1486  C1487   1.527   .     S
C1486  H1492   1.108   .     S
C1487  H1488   1.105   .     S
C1487  H1490   1.110   .     S
C1487  H1489   1.111   .     S
C1493  H1498   1.110   .     S
C1493  C1494   1.534   .     S
C1493  H1499   1.104   .     S
C1494  H1495   1.111   .     S
C1494  H1496   1.109   .     S
C1494  H1497   1.108   .     S
C1500  H1506   1.104   .     S
C1500  C1501   1.523   .     S
C1500  H1505   1.104   .     S
C1501  H1502   1.107   .     S
C1501  H1504   1.111   .     S
C1501  H1503   1.109   .     S
C1507  H1512   1.105   .     S
C1507  H1513   1.109   .     S
C1507  C1508   1.529   .     S
C1508  H1510   1.107   .     S
C1508  H1509   1.107   .     S
C1508  H1511   1.107   .     S
C1514  C1515   1.529   .     S
C1514  H1519   1.110   .     S
C1514  H1520   1.108   .     S
C1515  H1517   1.108   .     S
C1515  H1516   1.109   .     S
C1515  H1518   1.111   .     S
C1521  H1527   1.105   .     S
C1521  C1522   1.534   .     S
C1521  H1526   1.100   .     S
C1522  H1523   1.110   .     S
C1522  H1524   1.108   .     S
C1522  H1525   1.110   .     S
C1528  C1529   1.523   .     S
C1528  H1534   1.105   .     S
C1528  H1533   1.106   .     S
C1529  H1531   1.108   .     S
C1529  H1530   1.108   .     S
C1529  H1532   1.110   .     S
C1535  C1536   1.533   .     S
C1535  H1541   1.108   .     S
C1535  H1540   1.104   .     S
C1536  H1537   1.107   .     S
C1536  H1539   1.109   .     S
C1536  H1538   1.110   .     S
C1542  H1547   1.107   .     S
C1542  C1543   1.529   .     S
C1542  H1548   1.107   .     S
C1543  H1544   1.110   .     S
C1543  H1545   1.110   .     S
C1543  H1546   1.109   .     S
C1549  C1550   1.528   .     S
C1549  H1555   1.107   .     S
C1549  H1554   1.105   .     S
C1550  H1551   1.109   .     S
C1550  H1553   1.108   .     S
C1550  H1552   1.110   .     S
C1556  H1562   1.108   .     S
C1556  C1557   1.528   .     S
C1556  H1561   1.109   .     S
C1557  H1558   1.107   .     S
C1557  H1560   1.111   .     S
C1557  H1559   1.110   .     S
C1563  H1568   1.109   .     S
C1563  H1569   1.108   .     S
C1563  C1564   1.530   .     S
C1564  H1565   1.109   .     S
C1564  H1567   1.110   .     S
C1564  H1566   1.108   .     S
C1570  H1576   1.111   .     S
C1570  C1571   1.542   .     S
C1570  H1575   1.108   .     S
C1571  H1572   1.110   .     S
C1571  H1573   1.108   .     S
C1571  H1574   1.111   .     S
C1577  H1582   1.108   .     S
C1577  C1578   1.525   .     S
C1577  H1583   1.106   .     S
C1578  H1579   1.110   .     S
C1578  H1580   1.108   .     S
C1578  H1581   1.107   .     S
C1584  H1589   1.111   .     S
C1584  C1585   1.531   .     S
C1584  H1590   1.108   .     S
C1585  H1588   1.110   .     S
C1585  H1586   1.110   .     S
C1585  H1587   1.108   .     S
C1591  H1597   1.109   .     S
C1591  H1596   1.109   .     S
C1591  C1592   1.533   .     S
C1592  H1593   1.110   .     S
C1592  H1595   1.109   .     S
C1592  H1594   1.109   .     S
C1598  H1603   1.106   .     S
C1598  C1599   1.528   .     S
C1598  H1604   1.103   .     S
C1599  H1602   1.109   .     S
C1599  H1601   1.107   .     S
C1599  H1600   1.108   .     S
C1605  H1606   1.109   .     S
C1605  H1608   1.106   .     S
C1605  H1607   1.109   .     S
C1609  H1612   1.107   .     S
C1609  H1611   1.111   .     S
C1609  H1610   1.110   .     S
C1613  H1615   1.107   .     S
C1613  H1614   1.106   .     S
C1613  H504    1.110   1_565 S
C1617  H1619   1.106   .     S
C1617  H1618   1.109   .     S
C1617  H1620   1.110   .     S
C1621  H1624   1.106   .     S
C1621  H1622   1.109   .     S
C1621  H1623   1.110   .     S
C1625  H1627   1.110   .     S
C1625  H1628   1.107   .     S
C1625  H1626   1.110   .     S
C1629  H1631   1.107   .     S
C1629  H1630   1.109   .     S
H1632  C517    1.110   1_565 S
C1633  H1635   1.106   .     S
C1633  H1634   1.108   .     S
C1633  H1636   1.108   .     S
C1637  H1639   1.108   .     S
C1637  H1638   1.109   .     S
C1637  H1640   1.106   .     S
C1641  H1642   1.110   .     S
C1641  H1644   1.107   .     S
C1641  H1643   1.109   .     S
C1645  H1647   1.106   .     S
C1645  H1646   1.109   .     S
C1645  H1648   1.110   .     S
C1649  H1652   1.110   .     S
C1649  H1651   1.107   .     S
C1649  H1650   1.109   .     S
C1653  H1656   1.106   .     S
C1653  H1654   1.107   .     S
C1653  H1655   1.110   .     S
C1657  H1660   1.107   .     S
C1657  H1659   1.111   .     S
C1657  H1658   1.110   .     S
C1661  H1662   1.106   .     S
C1661  H1663   1.110   .     S
C1661  H1664   1.109   .     S
C1665  H1666   1.107   .     S
C1665  H1668   1.109   .     S
C1665  H1667   1.110   .     S
Zn1669 O1755   1.933   .     S
Zn1669 O1724   1.946   .     S
Zn1669 O1709   1.956   .     S
Zn1670 O1751   1.940   .     S
Zn1670 O1723   1.946   .     S
Zn1670 O1710   1.956   .     S
Zn1671 O1726   1.948   .     S
Zn1671 O1711   1.944   .     S
Zn1671 O1746   1.939   .     S
Zn1672 O1725   1.948   .     S
Zn1672 O1712   1.944   .     S
Zn1672 O1754   1.942   .     S
Zn1673 O1728   1.950   .     S
Zn1673 O1748   1.940   .     S
Zn1673 O1709   1.948   .     S
Zn1674 O1760   1.936   .     S
Zn1674 O1710   1.948   .     S
Zn1674 O1727   1.950   .     S
Zn1675 O1711   1.948   .     S
Zn1675 O1722   1.946   .     S
Zn1675 O1757   1.944   .     S
Zn1676 O1721   1.946   .     S
Zn1676 O1712   1.948   .     S
Zn1676 O1749   1.936   .     S
Zn1677 O1716   1.946   .     S
Zn1677 O1739   1.933   .     S
Zn1677 O1736   1.940   .     S
Zn1677 O1156   1.956   1_655 S
Zn1678 O1715   1.946   .     S
Zn1678 O1740   1.933   .     S
Zn1678 O1735   1.940   .     S
Zn1678 O1711   1.956   .     S
Zn1679 O1730   1.939   .     S
Zn1679 O1737   1.942   .     S
Zn1679 O1718   1.948   .     S
Zn1679 O598    1.944   1_565 S
Zn1680 O1717   1.948   .     S
Zn1680 O1738   1.942   .     S
Zn1680 O1709   1.944   .     S
Zn1680 O1729   1.939   .     S
Zn1681 O1743   1.936   .     S
Zn1681 O1732   1.940   .     S
Zn1681 O1720   1.950   .     S
Zn1681 O1712   1.948   .     S
Zn1682 O1744   1.936   .     S
Zn1682 O1155   1.948   1_655 S
Zn1682 O1719   1.950   .     S
Zn1682 O1731   1.940   .     S
Zn1683 O1710   1.948   .     S
Zn1683 O1734   1.936   .     S
Zn1683 O1714   1.946   .     S
Zn1683 O1741   1.944   .     S
Zn1684 O1713   1.946   .     S
Zn1684 O1733   1.936   .     S
Zn1684 O1742   1.944   .     S
Zn1684 O597    1.948   1_565 S
C1685  C2161   1.516   .     S
C1685  C1837   1.415   .     A
C1686  C1702   1.405   .     A
C1686  C2165   1.519   .     S
C1687  C2169   1.518   .     S
C1687  C591    1.404   1_565 S
C1687  C727    1.416   1_565 S
C1688  C1840   1.416   .     A
C1688  C2173   1.519   .     S
C1688  C1704   1.408   .     A
C1689  C1701   1.408   .     A
C1689  C2177   1.518   .     S
C1689  C1833   1.417   .     A
C1690  C2181   1.519   .     S
C1690  C1146   1.404   1_655 S
C1690  C1278   1.415   1_655 S
C1691  C2185   1.517   .     S
C1691  C1703   1.403   .     A
C1692  C1836   1.414   .     A
C1692  C2189   1.515   .     S
C1693  C1845   1.415   .     A
C1693  C2193   1.515   .     S
C1694  C1846   1.414   .     A
C1694  C2197   1.518   .     S
C1694  C594    1.404   1_565 S
C1695  C2201   1.519   .     S
C1695  C1847   1.416   .     A
C1695  C1707   1.408   .     A
C1696  C1848   1.414   .     A
C1696  C2205   1.515   .     S
C1697  C2209   1.516   .     S
C1697  C1705   1.407   .     A
C1697  C1841   1.416   .     A
C1698  C1706   1.405   .     A
C1698  C1842   1.417   .     A
C1698  C2213   1.519   .     S
C1699  C2217   1.519   .     S
C1699  C1843   1.415   .     A
C1700  C2221   1.517   .     S
C1700  C1844   1.416   .     A
C1700  C1708   1.404   .     A
C1701  C1779   1.462   .     S
C1701  C1129   1.407   1_655 S
C1702  C1780   1.455   .     S
C1703  C1777   1.453   .     S
C1704  C1778   1.462   .     S
C1704  C580    1.407   1_565 S
C1705  C1783   1.464   .     S
C1705  C581    1.407   1_565 S
C1706  C1784   1.455   .     S
C1707  C1781   1.460   .     S
C1707  C1143   1.407   1_655 S
C1708  C1782   1.457   .     S
C1708  C1140   1.403   1_655 S
O1713  C665    1.276   1_565 S
O1716  C1224   1.279   1_655 S
O1717  C1777   1.274   .     A
O1718  C1778   1.277   .     A
O1719  C1779   1.282   .     A
O1720  C1780   1.279   .     A
O1724  C1784   1.280   .     A
O1728  C1784   1.279   .     A
O1729  C1785   1.277   .     A
O1730  C1786   1.275   .     A
O1731  C1787   1.279   .     A
O1732  C1788   1.260   .     A
O1733  C1789   1.280   .     A
O1734  C1790   1.279   .     A
O1735  C1791   1.280   .     A
O1736  C1792   1.279   .     A
O1737  C1793   1.286   .     A
O1738  C1794   1.277   .     A
O1739  C1795   1.286   .     A
O1740  C1796   1.284   .     A
O1741  C1797   1.284   .     A
O1742  C1798   1.282   .     A
O1743  C1799   1.280   .     A
O1744  C1800   1.282   .     A
O1745  C1795   1.274   .     A
O1745  Zn1116  1.939   1_655 S
O1746  C1796   1.279   .     A
O1747  C1793   1.280   .     A
O1747  Zn562   1.940   1_565 S
O1748  C1794   1.278   .     A
O1749  C1799   1.275   .     A
O1750  C1800   1.277   .     A
O1750  Zn1119  1.936   1_655 S
O1751  C1797   1.282   .     A
O1752  C1798   1.281   .     A
O1752  Zn557   1.940   1_565 S
O1753  Zn1115  1.942   1_655 S
O1753  C1787   1.277   .     A
O1754  C1788   1.301   .     A
O1755  C1785   1.281   .     A
O1756  C1786   1.288   .     A
O1756  Zn558   1.933   1_565 S
O1757  C1791   1.284   .     A
O1758  C1792   1.282   .     A
O1758  Zn1120  1.944   1_655 S
O1759  C1789   1.278   .     A
O1759  Zn561   1.936   1_565 S
O1760  C1790   1.282   .     A
C1761  C1833   1.418   .     A
C1761  C1766   1.406   .     A
C1761  C1317   1.518   1_655 S
C1762  C1765   1.405   .     A
C1762  C1834   1.419   .     A
C1762  C1877   1.518   .     S
C1763  C1768   1.404   .     A
C1763  C1835   1.420   .     A
C1763  C1881   1.518   .     S
C1764  C1767   1.402   .     A
C1764  C1836   1.417   .     A
C1765  C1837   1.418   .     A
C1766  C1838   1.420   .     A
C1766  C1893   1.518   .     S
C1767  C1897   1.517   .     S
C1767  C1839   1.419   .     A
C1768  C1840   1.418   .     A
C1768  C1901   1.518   .     S
C1769  C1841   1.419   .     A
C1769  C1905   1.518   .     S
C1769  C1774   1.406   1_556 S
C1770  C1909   1.518   .     S
C1770  C1842   1.420   .     A
C1770  C1773   1.406   1_554 S
C1771  C1843   1.419   .     A
C1771  C1913   1.518   .     S
C1771  C1776   1.405   1_556 S
C1772  C1844   1.419   .     A
C1772  C1917   1.518   .     S
C1772  C1775   1.406   1_554 S
C1773  C1921   1.518   .     S
C1773  C1845   1.419   .     A
C1773  C1770   1.406   1_556 S
C1774  C1846   1.419   .     A
C1774  C1925   1.518   .     S
C1774  C1769   1.406   1_554 S
C1775  C1929   1.518   .     S
C1775  C1847   1.419   .     A
C1775  C1772   1.406   1_556 S
C1776  C1848   1.418   .     A
C1776  C1933   1.518   .     S
C1776  C1771   1.405   1_554 S
C1778  O602    1.278   1_565 S
C1779  O1159   1.281   1_655 S
C1781  O1165   1.277   1_655 A
C1781  O1169   1.277   1_655 A
C1782  O1166   1.276   1_655 A
C1782  O1170   1.276   1_655 A
C1783  O611    1.281   1_565 S
C1783  O615    1.282   1_565 S
C1785  C1851   1.454   .     S
C1786  C1852   1.461   .     S
C1787  C1853   1.463   .     S
C1788  C1854   1.469   .     S
C1789  C1855   1.458   .     S
C1790  C1856   1.462   .     S
C1791  C1849   1.463   .     S
C1792  C1850   1.459   .     S
C1793  C1859   1.475   .     S
C1794  C1860   1.460   .     S
C1795  C1861   1.456   .     S
C1796  C1862   1.463   .     S
C1797  C1863   1.466   .     S
C1798  C1864   1.461   .     S
C1799  C1857   1.453   .     S
C1800  C1858   1.458   .     S
C1801  C1864   1.421   .     A
C1801  C1937   1.538   .     S
C1801  C1816   1.421   .     A
C1802  C1815   1.414   .     A
C1802  C1863   1.419   .     A
C1802  C1944   1.530   .     S
C1803  C1814   1.415   .     A
C1803  C1862   1.419   .     A
C1803  C1951   1.529   .     S
C1804  C1813   1.409   .     A
C1804  C1958   1.522   .     S
C1804  C1861   1.415   .     A
C1805  C1965   1.534   .     S
C1805  C1812   1.419   .     A
C1805  C1860   1.421   .     A
C1806  C1811   1.394   .     A
C1806  C1859   1.424   .     A
C1806  C1972   1.528   .     S
C1807  C1810   1.417   .     A
C1807  C1858   1.418   .     A
C1807  C1979   1.530   .     S
C1808  C1809   1.414   .     A
C1808  C1857   1.415   .     A
C1808  C1986   1.532   .     S
C1809  C1993   1.529   .     S
C1809  C1856   1.419   .     A
C1810  C2000   1.533   .     S
C1810  C1855   1.419   .     A
C1811  C1854   1.397   .     A
C1811  C2007   1.521   .     S
C1812  C1853   1.421   .     A
C1812  C2014   1.538   .     S
C1813  C1852   1.409   .     A
C1813  C2021   1.530   .     S
C1814  C1851   1.414   .     A
C1814  C2028   1.533   .     S
C1815  C2035   1.533   .     S
C1815  C1850   1.418   .     A
C1816  C2042   1.537   .     S
C1816  C1849   1.423   .     A
C1817  C1850   1.421   .     A
C1817  C1832   1.418   .     A
C1817  C2049   1.539   .     S
C1818  C1831   1.413   .     A
C1818  C1849   1.420   .     A
C1818  C2056   1.535   .     S
C1819  C1852   1.420   .     A
C1819  C2063   1.519   .     S
C1819  C1830   1.413   .     A
C1820  C2070   1.532   .     S
C1820  C1829   1.414   .     A
C1820  C1851   1.415   .     A
C1821  C2077   1.543   .     S
C1821  C1828   1.409   .     A
C1821  C1854   1.427   .     A
C1822  C1827   1.413   .     A
C1822  C2084   1.530   .     S
C1822  C1853   1.420   .     A
C1823  C1826   1.415   .     A
C1823  C2091   1.529   .     S
C1823  C1856   1.419   .     A
C1824  C1855   1.415   .     A
C1824  C1825   1.411   .     A
C1824  C2098   1.530   .     S
C1825  C1858   1.415   .     A
C1825  C2105   1.527   .     S
C1826  C2112   1.534   .     S
C1826  C1857   1.415   .     A
C1827  C1860   1.416   .     A
C1827  C2119   1.534   .     S
C1828  C2126   1.524   .     S
C1828  C1859   1.425   .     A
C1829  C2133   1.527   .     S
C1829  C1862   1.418   .     A
C1830  C1861   1.410   .     A
C1830  C2140   1.534   .     S
C1831  C1864   1.416   .     A
C1831  C2147   1.530   .     S
C1832  C1863   1.421   .     A
C1832  C2154   1.531   .     S
C1833  C1865   1.419   .     A
C1834  C1866   1.421   .     A
C1835  C1867   1.421   .     A
C1835  C579    1.414   1_565 S
C1838  C1130   1.417   1_655 S
C1838  C1310   1.421   1_655 S
C1840  C1868   1.420   .     A
C1841  C757    1.419   1_565 S
C1842  C1870   1.421   .     A
C1844  C1872   1.420   .     A
C1845  C1869   1.418   .     A
C1846  C758    1.420   1_565 S
C1847  C1871   1.419   .     A
C1865  C1281   1.418   1_655 S
C1865  C1310   1.410   1_655 S
C1867  C1868   1.411   .     A
C1867  C727    1.423   1_565 S
C1868  C724    1.417   1_565 S
C1869  C1870   1.409   1_556 S
C1870  C1869   1.409   1_554 S
C1871  C1287   1.419   1_655 S
C1871  C1872   1.409   1_556 S
C1872  C1292   1.420   1_655 S
C1872  C1871   1.409   1_554 S
C1873  H1875   1.111   .     S
C1873  H1874   1.108   .     S
H1876  C1317   1.110   1_655 S
C1877  H1879   1.111   .     S
C1877  H1880   1.110   .     S
C1877  H1878   1.108   .     S
C1881  H1883   1.110   .     S
C1881  H1882   1.108   .     S
C1881  H1884   1.111   .     S
C1885  H1886   1.111   .     S
C1885  H1887   1.109   .     S
C1885  C652    1.518   1_565 S
C1885  H776    1.110   1_565 S
C1889  H1890   1.108   .     S
C1889  H1891   1.111   .     S
C1889  C1209   1.518   1_655 S
C1889  H1336   1.110   1_655 S
C1893  H1896   1.110   .     S
C1893  H1895   1.111   .     S
C1893  H1894   1.107   .     S
C1897  H1898   1.108   .     S
C1897  H1900   1.111   .     S
C1897  H1899   1.110   .     S
C1901  H1903   1.110   .     S
C1901  H790    1.109   1_565 S
C1901  H792    1.111   1_565 S
C1905  H1906   1.108   .     S
C1905  H1908   1.110   .     S
C1905  H1907   1.111   .     S
C1909  H1910   1.107   .     S
C1909  H1912   1.110   .     S
C1909  H1911   1.111   .     S
C1913  H1914   1.111   .     S
C1913  H1916   1.110   .     S
C1913  H1915   1.108   .     S
C1917  H1918   1.111   .     S
C1917  H1920   1.110   .     S
C1917  H1919   1.108   .     S
C1921  H1923   1.111   .     S
C1921  H1922   1.108   .     S
C1921  H1924   1.110   .     S
C1925  H1928   1.110   .     S
C1925  H1926   1.108   .     S
C1925  H1927   1.111   .     S
C1929  H1932   1.111   .     S
C1929  H1930   1.108   .     S
C1929  H1931   1.110   .     S
C1933  H1935   1.110   .     S
C1933  H1934   1.108   .     S
C1933  H1936   1.111   .     S
C1937  H1942   1.102   .     S
C1937  C1938   1.531   .     S
C1937  H1943   1.109   .     S
C1938  H1940   1.109   .     S
C1938  H1941   1.110   .     S
C1938  H1939   1.108   .     S
C1944  H1950   1.104   .     S
C1944  C1945   1.524   .     S
C1944  H1949   1.106   .     S
C1945  H1946   1.108   .     S
C1945  H1948   1.110   .     S
C1945  H1947   1.109   .     S
C1951  H1956   1.105   .     S
C1951  C1952   1.533   .     S
C1951  H1957   1.110   .     S
C1952  H1953   1.109   .     S
C1952  H1955   1.110   .     S
C1952  H1954   1.107   .     S
C1958  H1964   1.108   .     S
C1958  C1959   1.533   .     S
C1958  H1963   1.106   .     S
C1959  H1960   1.110   .     S
C1959  H1961   1.111   .     S
C1959  H1962   1.107   .     S
C1965  H1970   1.102   .     S
C1965  H1971   1.108   .     S
C1965  C1966   1.529   .     S
C1966  H1967   1.110   .     S
C1966  H1968   1.108   .     S
C1966  H1969   1.110   .     S
C1972  H1978   1.109   .     S
C1972  H1977   1.108   .     S
C1972  C1973   1.530   .     S
C1973  H1975   1.110   .     S
C1973  H1974   1.108   .     S
C1973  H1976   1.111   .     S
C1979  C1980   1.530   .     S
C1979  H1985   1.108   .     S
C1979  H1984   1.106   .     S
C1980  H1981   1.108   .     S
C1980  H1983   1.104   .     S
C1980  H1982   1.109   .     S
C1986  H1991   1.110   .     S
C1986  H1992   1.108   .     S
C1986  C1987   1.530   .     S
C1987  H1989   1.108   .     S
C1987  H1988   1.109   .     S
H1990  C1431   1.111   1_655 S
C1993  H1999   1.105   .     S
C1993  H1998   1.108   .     S
C1993  C1994   1.524   .     S
C1994  H1995   1.110   .     S
C1994  H1997   1.110   .     S
C1994  H1996   1.108   .     S
C2000  C2001   1.537   .     S
C2000  H2005   1.110   .     S
C2000  H2006   1.103   .     S
C2001  H2002   1.111   .     S
C2001  H2004   1.111   .     S
C2001  H2003   1.108   .     S
C2007  H2012   1.106   .     S
C2007  H2013   1.109   .     S
C2007  C2008   1.533   .     S
C2008  H2011   1.108   .     S
C2008  H2009   1.111   .     S
C2008  H2010   1.110   .     S
C2014  H2019   1.102   .     S
C2014  H2020   1.108   .     S
C2014  C2015   1.527   .     S
C2015  H2016   1.105   .     S
C2015  H2018   1.111   .     S
C2015  H2017   1.108   .     S
C2021  H2027   1.107   .     S
C2021  C2022   1.529   .     S
C2021  H2026   1.104   .     S
C2022  H2023   1.110   .     S
C2022  H2024   1.111   .     S
C2022  H2025   1.109   .     S
C2028  H2033   1.110   .     S
C2028  C2029   1.529   .     S
C2028  H2034   1.109   .     S
C2029  H2032   1.107   .     S
C2029  H2030   1.110   .     S
H2031  C917    1.111   1_565 S
C2035  H2040   1.110   .     S
C2035  C2036   1.531   .     S
C2035  H2041   1.108   .     S
C2036  H2037   1.108   .     S
C2036  H2039   1.109   .     S
C2036  H2038   1.108   .     S
C2042  H2047   1.102   .     S
C2042  C2043   1.527   .     S
C2042  H2048   1.108   .     S
C2043  H2044   1.105   .     S
C2043  H2046   1.110   .     S
C2043  H2045   1.111   .     S
C2049  H2054   1.110   .     S
C2049  C2050   1.534   .     S
C2049  H2055   1.104   .     S
C2050  H2051   1.111   .     S
C2050  H2052   1.109   .     S
C2050  H2053   1.108   .     S
C2056  H2062   1.104   .     S
C2056  C2057   1.523   .     S
C2056  H2061   1.104   .     S
C2057  H2058   1.107   .     S
C2057  H2060   1.111   .     S
C2057  H2059   1.109   .     S
C2063  H2068   1.105   .     S
C2063  H2069   1.109   .     S
C2063  C2064   1.529   .     S
C2064  H2066   1.107   .     S
C2064  H2065   1.107   .     S
C2064  H2067   1.107   .     S
C2070  C2071   1.529   .     S
C2070  H2075   1.110   .     S
C2070  H2076   1.108   .     S
C2071  H2073   1.108   .     S
C2071  H2072   1.109   .     S
C2071  H2074   1.111   .     S
C2077  H2083   1.105   .     S
C2077  C2078   1.534   .     S
C2077  H2082   1.100   .     S
C2078  H2079   1.110   .     S
C2078  H2080   1.108   .     S
C2078  H2081   1.110   .     S
C2084  C2085   1.523   .     S
C2084  H2090   1.105   .     S
C2084  H2089   1.106   .     S
C2085  H2087   1.108   .     S
C2085  H2086   1.108   .     S
C2085  H2088   1.110   .     S
C2091  C2092   1.533   .     S
C2091  H2097   1.108   .     S
C2091  H2096   1.104   .     S
C2092  H2093   1.107   .     S
C2092  H2095   1.109   .     S
C2092  H2094   1.110   .     S
C2098  H2103   1.107   .     S
C2098  C2099   1.529   .     S
C2098  H2104   1.107   .     S
C2099  H2100   1.110   .     S
C2099  H2101   1.110   .     S
C2099  H2102   1.109   .     S
C2105  C2106   1.528   .     S
C2105  H2111   1.107   .     S
C2105  H2110   1.105   .     S
C2106  H2107   1.109   .     S
C2106  H2109   1.108   .     S
C2106  H2108   1.110   .     S
C2112  H2118   1.108   .     S
C2112  C2113   1.528   .     S
C2112  H2117   1.109   .     S
C2113  H2114   1.107   .     S
C2113  H2116   1.111   .     S
C2113  H2115   1.110   .     S
C2119  H2124   1.109   .     S
C2119  H2125   1.108   .     S
C2119  C2120   1.530   .     S
C2120  H2121   1.109   .     S
C2120  H2123   1.110   .     S
C2120  H2122   1.108   .     S
C2126  H2132   1.111   .     S
C2126  C2127   1.542   .     S
C2126  H2131   1.108   .     S
C2127  H2128   1.110   .     S
C2127  H2129   1.108   .     S
C2127  H2130   1.111   .     S
C2133  H2138   1.108   .     S
C2133  C2134   1.525   .     S
C2133  H2139   1.106   .     S
C2134  H2135   1.110   .     S
C2134  H2136   1.108   .     S
C2134  H2137   1.107   .     S
C2140  H2145   1.111   .     S
C2140  C2141   1.531   .     S
C2140  H2146   1.108   .     S
C2141  H2144   1.110   .     S
C2141  H2142   1.110   .     S
C2141  H2143   1.108   .     S
C2147  H2153   1.109   .     S
C2147  H2152   1.109   .     S
C2147  C2148   1.533   .     S
C2148  H2149   1.110   .     S
C2148  H2151   1.109   .     S
C2148  H2150   1.109   .     S
C2154  H2159   1.106   .     S
C2154  C2155   1.528   .     S
C2154  H2160   1.103   .     S
C2155  H2158   1.109   .     S
C2155  H2157   1.107   .     S
C2155  H2156   1.108   .     S
C2161  H2162   1.109   .     S
C2161  H2164   1.106   .     S
C2161  H2163   1.109   .     S
C2165  H2168   1.107   .     S
C2165  H2167   1.111   .     S
C2165  H2166   1.110   .     S
C2169  H2171   1.107   .     S
C2169  H2170   1.106   .     S
C2169  H1060   1.110   1_565 S
C2173  H2175   1.106   .     S
C2173  H2174   1.109   .     S
C2173  H2176   1.110   .     S
C2177  H2180   1.106   .     S
C2177  H2178   1.109   .     S
C2177  H2179   1.110   .     S
C2181  H2183   1.110   .     S
C2181  H2184   1.107   .     S
C2181  H2182   1.110   .     S
C2185  H2187   1.107   .     S
C2185  H2186   1.109   .     S
H2188  C1073   1.110   1_565 S
C2189  H2191   1.106   .     S
C2189  H2190   1.108   .     S
C2189  H2192   1.108   .     S
C2193  H2195   1.108   .     S
C2193  H2194   1.109   .     S
C2193  H2196   1.106   .     S
C2197  H2198   1.110   .     S
C2197  H2200   1.107   .     S
C2197  H2199   1.109   .     S
C2201  H2203   1.106   .     S
C2201  H2202   1.109   .     S
C2201  H2204   1.110   .     S
C2205  H2208   1.110   .     S
C2205  H2207   1.107   .     S
C2205  H2206   1.109   .     S
C2209  H2212   1.106   .     S
C2209  H2210   1.107   .     S
C2209  H2211   1.110   .     S
C2213  H2216   1.107   .     S
C2213  H2215   1.111   .     S
C2213  H2214   1.110   .     S
C2217  H2218   1.106   .     S
C2217  H2219   1.110   .     S
C2217  H2220   1.109   .     S
C2221  H2222   1.107   .     S
C2221  H2224   1.109   .     S
C2221  H2223   1.110   .     S
