data_str_m1_o10_o16_pcu_sym.85
_audit_creation_date              2020-01-03
_audit_creation_method            'Materials Studio'
_symmetry_space_group_name_H-M    'P1'
_symmetry_Int_Tables_number       1
_symmetry_cell_setting            triclinic
loop_
_symmetry_equiv_pos_as_xyz
  x,y,z
_cell_length_a                    32.5336
_cell_length_b                    32.5554
_cell_length_c                    31.0784
_cell_angle_alpha                 95.6848
_cell_angle_beta                  74.3630
_cell_angle_gamma                 98.6367
loop_
_atom_site_label
_atom_site_type_symbol
_atom_site_fract_x
_atom_site_fract_y
_atom_site_fract_z
_atom_site_U_iso_or_equiv
_atom_site_adp_type
_atom_site_occupancy
C1     C     0.05285   0.15979   0.25989   0.00000  Uiso   1.00
C2     C     0.16639   0.15328   0.05938   0.00000  Uiso   1.00
C3     C     0.23723   0.13698   0.05690   0.00000  Uiso   1.00
C4     C     0.28093   0.17389   0.23987   0.00000  Uiso   1.00
C5     C     0.13865   0.18941   0.42006   0.00000  Uiso   1.00
C6     C     0.32692   0.17663   0.23551   0.00000  Uiso   1.00
C7     C     0.00749   0.15746   0.26393   0.00000  Uiso   1.00
C8     C     0.17833   0.32217   0.23101   0.00000  Uiso   1.00
C9     C     0.15407   0.01179   0.26361   0.00000  Uiso   1.00
C10    C     0.15579   0.05598   0.26088   0.00000  Uiso   1.00
C11    C     0.17621   0.27791   0.23874   0.00000  Uiso   1.00
C12    C     0.08289   0.19477   0.48924   0.00000  Uiso   1.00
C13    C     0.18579   0.14843   0.12935   0.00000  Uiso   1.00
C14    C     0.14911   0.18499   0.37078   0.00000  Uiso   1.00
C15    C     0.25051   0.14234   0.01129   0.00000  Uiso   1.00
C16    C     0.19548   0.14306   0.08096   0.00000  Uiso   1.00
C17    C     0.09714   0.19781   0.44328   0.00000  Uiso   1.00
C18    C     0.20620   0.00928   0.18836   0.00000  Uiso   1.00
C19    C     0.23092   0.31452   0.15104   0.00000  Uiso   1.00
C20    C     0.10924   0.18226   0.01271   0.00000  Uiso   1.00
C21    C     0.15172   0.17419   0.49072   0.00000  Uiso   1.00
C22    C     0.16718   0.18028   0.44413   0.00000  Uiso   1.00
C23    C     0.17947   0.16061   0.01340   0.00000  Uiso   1.00
C24    C     0.22253   0.15521   0.48949   0.00000  Uiso   1.00
C25    C     0.23783   0.16447   0.44465   0.00000  Uiso   1.00
C26    C     0.21087   0.17764   0.42270   0.00000  Uiso   1.00
F27    F     0.27943   0.16160   0.42200   0.00000  Uiso   1.00
H28    H     0.26010   0.12981   0.07388   0.00000  Uiso   1.00
H29    H     0.01620   0.19421   0.20912   0.00000  Uiso   1.00
H30    H     0.25665   0.30264   0.16171   0.00000  Uiso   1.00
H31    H     0.20869   0.28842   0.14072   0.00000  Uiso   1.00
H32    H     0.24673   0.33293   0.12140   0.00000  Uiso   1.00
H33    H     0.18501   0.02397   0.17342   0.00000  Uiso   1.00
H34    H     0.22989   0.03443   0.19783   0.00000  Uiso   1.00
H35    H     0.31884   0.14003   0.29078   0.00000  Uiso   1.00
H36    H     0.13543   0.33220   0.29497   0.00000  Uiso   1.00
H37    H     0.28335   0.13820   0.49358   0.00000  Uiso   1.00
H38    H     0.13487   0.15788   0.08011   0.00000  Uiso   1.00
H39    H     0.07492   0.20515   0.42560   0.00000  Uiso   1.00
H40    H     0.09534   0.17962   0.04805   0.00000  Uiso   1.00
H41    H     0.05057   0.20085   0.00668   0.00000  Uiso   1.00
H42    H     0.22521   0.18668   0.38884   0.00000  Uiso   1.00
O43    O     0.16667   0.16667   0.25000   0.00000  Uiso   1.00
O44    O     0.15451   0.12637   0.15459   0.00000  Uiso   1.00
O45    O     0.12940   0.20391   0.34968   0.00000  Uiso   1.00
O46    O     0.20824   0.17759   0.14606   0.00000  Uiso   1.00
O47    O     0.17451   0.15880   0.34968   0.00000  Uiso   1.00
O48    O     0.17930   0.08019   0.28214   0.00000  Uiso   1.00
O49    O     0.14632   0.26085   0.27014   0.00000  Uiso   1.00
O50    O     0.07412   0.13291   0.23413   0.00000  Uiso   1.00
O51    O     0.26693   0.19272   0.21361   0.00000  Uiso   1.00
O52    O     0.07071   0.18878   0.28213   0.00000  Uiso   1.00
O53    O     0.25491   0.15226   0.27014   0.00000  Uiso   1.00
O54    O     0.13760   0.06944   0.23413   0.00000  Uiso   1.00
O55    O     0.20345   0.25620   0.21361   0.00000  Uiso   1.00
Zn56   Zn    0.19338   0.13994   0.28734   0.00000  Uiso   1.00
Zn57   Zn    0.13379   0.12458   0.21876   0.00000  Uiso   1.00
Zn58   Zn    0.21056   0.19775   0.20657   0.00000  Uiso   1.00
Zn59   Zn    0.12893   0.20439   0.28734   0.00000  Uiso   1.00
C60    C     0.38618   0.15979   0.25989   0.00000  Uiso   1.00
C61    C     0.49973   0.15328   0.05938   0.00000  Uiso   1.00
C62    C     0.57056   0.13698   0.05690   0.00000  Uiso   1.00
C63    C     0.61427   0.17389   0.23987   0.00000  Uiso   1.00
C64    C     0.47198   0.18941   0.42006   0.00000  Uiso   1.00
C65    C     0.66026   0.17663   0.23551   0.00000  Uiso   1.00
C66    C     0.34083   0.15746   0.26393   0.00000  Uiso   1.00
C67    C     0.51166   0.32217   0.23101   0.00000  Uiso   1.00
C68    C     0.48740   0.01179   0.26361   0.00000  Uiso   1.00
C69    C     0.48912   0.05598   0.26088   0.00000  Uiso   1.00
C70    C     0.50955   0.27791   0.23874   0.00000  Uiso   1.00
C71    C     0.41622   0.19477   0.48924   0.00000  Uiso   1.00
C72    C     0.51912   0.14843   0.12935   0.00000  Uiso   1.00
C73    C     0.48245   0.18499   0.37078   0.00000  Uiso   1.00
C74    C     0.58385   0.14234   0.01129   0.00000  Uiso   1.00
C75    C     0.52881   0.14306   0.08096   0.00000  Uiso   1.00
C76    C     0.43048   0.19781   0.44328   0.00000  Uiso   1.00
C77    C     0.53953   0.00928   0.18836   0.00000  Uiso   1.00
C78    C     0.56426   0.31452   0.15104   0.00000  Uiso   1.00
C79    C     0.44258   0.18226   0.01271   0.00000  Uiso   1.00
C80    C     0.48505   0.17419   0.49072   0.00000  Uiso   1.00
C81    C     0.50051   0.18028   0.44413   0.00000  Uiso   1.00
C82    C     0.51281   0.16061   0.01340   0.00000  Uiso   1.00
C83    C     0.55586   0.15521   0.48949   0.00000  Uiso   1.00
C84    C     0.57116   0.16447   0.44465   0.00000  Uiso   1.00
C85    C     0.54420   0.17764   0.42270   0.00000  Uiso   1.00
F86    F     0.61276   0.16160   0.42200   0.00000  Uiso   1.00
H87    H     0.59343   0.12981   0.07388   0.00000  Uiso   1.00
H88    H     0.34953   0.19421   0.20912   0.00000  Uiso   1.00
H89    H     0.58999   0.30264   0.16171   0.00000  Uiso   1.00
H90    H     0.54203   0.28842   0.14072   0.00000  Uiso   1.00
H91    H     0.58006   0.33293   0.12140   0.00000  Uiso   1.00
H92    H     0.51835   0.02397   0.17342   0.00000  Uiso   1.00
H93    H     0.56323   0.03443   0.19783   0.00000  Uiso   1.00
H94    H     0.65217   0.14003   0.29078   0.00000  Uiso   1.00
H95    H     0.46876   0.33220   0.29497   0.00000  Uiso   1.00
H96    H     0.61669   0.13820   0.49358   0.00000  Uiso   1.00
H97    H     0.46821   0.15788   0.08011   0.00000  Uiso   1.00
H98    H     0.40825   0.20515   0.42560   0.00000  Uiso   1.00
H99    H     0.42868   0.17962   0.04805   0.00000  Uiso   1.00
H100   H     0.38390   0.20085   0.00668   0.00000  Uiso   1.00
H101   H     0.55855   0.18668   0.38884   0.00000  Uiso   1.00
O102   O     0.50000   0.16667   0.25000   0.00000  Uiso   1.00
O103   O     0.48784   0.12637   0.15459   0.00000  Uiso   1.00
O104   O     0.46274   0.20391   0.34968   0.00000  Uiso   1.00
O105   O     0.54157   0.17759   0.14606   0.00000  Uiso   1.00
O106   O     0.50785   0.15880   0.34968   0.00000  Uiso   1.00
O107   O     0.51264   0.08019   0.28214   0.00000  Uiso   1.00
O108   O     0.47965   0.26085   0.27014   0.00000  Uiso   1.00
O109   O     0.40745   0.13291   0.23413   0.00000  Uiso   1.00
O110   O     0.60026   0.19272   0.21361   0.00000  Uiso   1.00
O111   O     0.40405   0.18878   0.28213   0.00000  Uiso   1.00
O112   O     0.58824   0.15226   0.27014   0.00000  Uiso   1.00
O113   O     0.47093   0.06944   0.23413   0.00000  Uiso   1.00
O114   O     0.53678   0.25620   0.21361   0.00000  Uiso   1.00
Zn115  Zn    0.52672   0.13994   0.28734   0.00000  Uiso   1.00
Zn116  Zn    0.46713   0.12458   0.21876   0.00000  Uiso   1.00
Zn117  Zn    0.54389   0.19775   0.20657   0.00000  Uiso   1.00
Zn118  Zn    0.46226   0.20439   0.28734   0.00000  Uiso   1.00
C119   C     0.71952   0.15979   0.25989   0.00000  Uiso   1.00
C120   C     0.83306   0.15328   0.05938   0.00000  Uiso   1.00
C121   C     0.90389   0.13698   0.05690   0.00000  Uiso   1.00
C122   C     0.94760   0.17389   0.23987   0.00000  Uiso   1.00
C123   C     0.80532   0.18941   0.42006   0.00000  Uiso   1.00
C124   C     0.99359   0.17663   0.23551   0.00000  Uiso   1.00
C125   C     0.67416   0.15746   0.26393   0.00000  Uiso   1.00
C126   C     0.84500   0.32217   0.23101   0.00000  Uiso   1.00
C127   C     0.82073   0.01179   0.26361   0.00000  Uiso   1.00
C128   C     0.82246   0.05598   0.26088   0.00000  Uiso   1.00
C129   C     0.84288   0.27791   0.23874   0.00000  Uiso   1.00
C130   C     0.74955   0.19477   0.48924   0.00000  Uiso   1.00
C131   C     0.85246   0.14843   0.12935   0.00000  Uiso   1.00
C132   C     0.81578   0.18499   0.37078   0.00000  Uiso   1.00
C133   C     0.91718   0.14234   0.01129   0.00000  Uiso   1.00
C134   C     0.86214   0.14306   0.08096   0.00000  Uiso   1.00
C135   C     0.76381   0.19781   0.44328   0.00000  Uiso   1.00
C136   C     0.87287   0.00928   0.18836   0.00000  Uiso   1.00
C137   C     0.89759   0.31452   0.15104   0.00000  Uiso   1.00
C138   C     0.77591   0.18226   0.01271   0.00000  Uiso   1.00
C139   C     0.81838   0.17419   0.49072   0.00000  Uiso   1.00
C140   C     0.83385   0.18028   0.44413   0.00000  Uiso   1.00
C141   C     0.84614   0.16061   0.01340   0.00000  Uiso   1.00
C142   C     0.88920   0.15521   0.48949   0.00000  Uiso   1.00
C143   C     0.90450   0.16447   0.44465   0.00000  Uiso   1.00
C144   C     0.87753   0.17764   0.42270   0.00000  Uiso   1.00
F145   F     0.94609   0.16160   0.42200   0.00000  Uiso   1.00
H146   H     0.92676   0.12981   0.07388   0.00000  Uiso   1.00
H147   H     0.68286   0.19421   0.20912   0.00000  Uiso   1.00
H148   H     0.92332   0.30264   0.16171   0.00000  Uiso   1.00
H149   H     0.87536   0.28842   0.14072   0.00000  Uiso   1.00
H150   H     0.91339   0.33293   0.12140   0.00000  Uiso   1.00
H151   H     0.85168   0.02397   0.17342   0.00000  Uiso   1.00
H152   H     0.89656   0.03443   0.19783   0.00000  Uiso   1.00
H153   H     0.98551   0.14003   0.29078   0.00000  Uiso   1.00
H154   H     0.80210   0.33220   0.29497   0.00000  Uiso   1.00
H155   H     0.95002   0.13820   0.49358   0.00000  Uiso   1.00
H156   H     0.80154   0.15788   0.08011   0.00000  Uiso   1.00
H157   H     0.74159   0.20515   0.42560   0.00000  Uiso   1.00
H158   H     0.76201   0.17962   0.04805   0.00000  Uiso   1.00
H159   H     0.71723   0.20085   0.00668   0.00000  Uiso   1.00
H160   H     0.89188   0.18668   0.38884   0.00000  Uiso   1.00
O161   O     0.83333   0.16667   0.25000   0.00000  Uiso   1.00
O162   O     0.82118   0.12637   0.15459   0.00000  Uiso   1.00
O163   O     0.79607   0.20391   0.34968   0.00000  Uiso   1.00
O164   O     0.87491   0.17759   0.14606   0.00000  Uiso   1.00
O165   O     0.84118   0.15880   0.34968   0.00000  Uiso   1.00
O166   O     0.84597   0.08019   0.28214   0.00000  Uiso   1.00
O167   O     0.81298   0.26085   0.27014   0.00000  Uiso   1.00
O168   O     0.74078   0.13291   0.23413   0.00000  Uiso   1.00
O169   O     0.93360   0.19272   0.21361   0.00000  Uiso   1.00
O170   O     0.73738   0.18878   0.28213   0.00000  Uiso   1.00
O171   O     0.92158   0.15226   0.27014   0.00000  Uiso   1.00
O172   O     0.80426   0.06944   0.23413   0.00000  Uiso   1.00
O173   O     0.87012   0.25620   0.21361   0.00000  Uiso   1.00
Zn174  Zn    0.86005   0.13994   0.28734   0.00000  Uiso   1.00
Zn175  Zn    0.80046   0.12458   0.21876   0.00000  Uiso   1.00
Zn176  Zn    0.87723   0.19775   0.20657   0.00000  Uiso   1.00
Zn177  Zn    0.79560   0.20439   0.28734   0.00000  Uiso   1.00
C178   C     0.05285   0.49313   0.25989   0.00000  Uiso   1.00
C179   C     0.16639   0.48662   0.05938   0.00000  Uiso   1.00
C180   C     0.23723   0.47031   0.05690   0.00000  Uiso   1.00
C181   C     0.28093   0.50723   0.23987   0.00000  Uiso   1.00
C182   C     0.13865   0.52275   0.42006   0.00000  Uiso   1.00
C183   C     0.32692   0.50996   0.23551   0.00000  Uiso   1.00
C184   C     0.00749   0.49080   0.26393   0.00000  Uiso   1.00
C185   C     0.17833   0.65550   0.23101   0.00000  Uiso   1.00
C186   C     0.15407   0.34513   0.26361   0.00000  Uiso   1.00
C187   C     0.15579   0.38932   0.26088   0.00000  Uiso   1.00
C188   C     0.17621   0.61124   0.23874   0.00000  Uiso   1.00
C189   C     0.08289   0.52810   0.48924   0.00000  Uiso   1.00
C190   C     0.18579   0.48176   0.12935   0.00000  Uiso   1.00
C191   C     0.14911   0.51833   0.37078   0.00000  Uiso   1.00
C192   C     0.25051   0.47567   0.01129   0.00000  Uiso   1.00
C193   C     0.19548   0.47639   0.08096   0.00000  Uiso   1.00
C194   C     0.09714   0.53115   0.44328   0.00000  Uiso   1.00
C195   C     0.20620   0.34261   0.18836   0.00000  Uiso   1.00
C196   C     0.23092   0.64785   0.15104   0.00000  Uiso   1.00
C197   C     0.10924   0.51559   0.01271   0.00000  Uiso   1.00
C198   C     0.15172   0.50753   0.49072   0.00000  Uiso   1.00
C199   C     0.16718   0.51361   0.44413   0.00000  Uiso   1.00
C200   C     0.17947   0.49395   0.01340   0.00000  Uiso   1.00
C201   C     0.22253   0.48854   0.48949   0.00000  Uiso   1.00
C202   C     0.23783   0.49780   0.44465   0.00000  Uiso   1.00
C203   C     0.21087   0.51098   0.42270   0.00000  Uiso   1.00
F204   F     0.27943   0.49494   0.42200   0.00000  Uiso   1.00
H205   H     0.26010   0.46314   0.07388   0.00000  Uiso   1.00
H206   H     0.01620   0.52754   0.20912   0.00000  Uiso   1.00
H207   H     0.25665   0.63597   0.16171   0.00000  Uiso   1.00
H208   H     0.20869   0.62176   0.14072   0.00000  Uiso   1.00
H209   H     0.24673   0.66626   0.12140   0.00000  Uiso   1.00
H210   H     0.18501   0.35730   0.17342   0.00000  Uiso   1.00
H211   H     0.22989   0.36777   0.19783   0.00000  Uiso   1.00
H212   H     0.31884   0.47337   0.29078   0.00000  Uiso   1.00
H213   H     0.13543   0.66553   0.29497   0.00000  Uiso   1.00
H214   H     0.28335   0.47154   0.49358   0.00000  Uiso   1.00
H215   H     0.13487   0.49121   0.08011   0.00000  Uiso   1.00
H216   H     0.07492   0.53849   0.42560   0.00000  Uiso   1.00
H217   H     0.09534   0.51296   0.04805   0.00000  Uiso   1.00
H218   H     0.05057   0.53419   0.00668   0.00000  Uiso   1.00
H219   H     0.22521   0.52001   0.38884   0.00000  Uiso   1.00
O220   O     0.16667   0.50000   0.25000   0.00000  Uiso   1.00
O221   O     0.15451   0.45970   0.15459   0.00000  Uiso   1.00
O222   O     0.12940   0.53724   0.34968   0.00000  Uiso   1.00
O223   O     0.20824   0.51092   0.14606   0.00000  Uiso   1.00
O224   O     0.17451   0.49213   0.34968   0.00000  Uiso   1.00
O225   O     0.17930   0.41352   0.28214   0.00000  Uiso   1.00
O226   O     0.14632   0.59418   0.27014   0.00000  Uiso   1.00
O227   O     0.07412   0.46625   0.23413   0.00000  Uiso   1.00
O228   O     0.26693   0.52605   0.21361   0.00000  Uiso   1.00
O229   O     0.07071   0.52211   0.28213   0.00000  Uiso   1.00
O230   O     0.25491   0.48559   0.27014   0.00000  Uiso   1.00
O231   O     0.13760   0.40277   0.23413   0.00000  Uiso   1.00
O232   O     0.20345   0.58953   0.21361   0.00000  Uiso   1.00
Zn233  Zn    0.19338   0.47327   0.28734   0.00000  Uiso   1.00
Zn234  Zn    0.13379   0.45791   0.21876   0.00000  Uiso   1.00
Zn235  Zn    0.21056   0.53109   0.20657   0.00000  Uiso   1.00
Zn236  Zn    0.12893   0.53773   0.28734   0.00000  Uiso   1.00
C237   C     0.38618   0.49313   0.25989   0.00000  Uiso   1.00
C238   C     0.49973   0.48662   0.05938   0.00000  Uiso   1.00
C239   C     0.57056   0.47031   0.05690   0.00000  Uiso   1.00
C240   C     0.61427   0.50723   0.23987   0.00000  Uiso   1.00
C241   C     0.47198   0.52275   0.42006   0.00000  Uiso   1.00
C242   C     0.66026   0.50996   0.23551   0.00000  Uiso   1.00
C243   C     0.34083   0.49080   0.26393   0.00000  Uiso   1.00
C244   C     0.51166   0.65550   0.23101   0.00000  Uiso   1.00
C245   C     0.48740   0.34513   0.26361   0.00000  Uiso   1.00
C246   C     0.48912   0.38932   0.26088   0.00000  Uiso   1.00
C247   C     0.50955   0.61124   0.23874   0.00000  Uiso   1.00
C248   C     0.41622   0.52810   0.48924   0.00000  Uiso   1.00
C249   C     0.51912   0.48176   0.12935   0.00000  Uiso   1.00
C250   C     0.48245   0.51833   0.37078   0.00000  Uiso   1.00
C251   C     0.58385   0.47567   0.01129   0.00000  Uiso   1.00
C252   C     0.52881   0.47639   0.08096   0.00000  Uiso   1.00
C253   C     0.43048   0.53115   0.44328   0.00000  Uiso   1.00
C254   C     0.53953   0.34261   0.18836   0.00000  Uiso   1.00
C255   C     0.56426   0.64785   0.15104   0.00000  Uiso   1.00
C256   C     0.44258   0.51559   0.01271   0.00000  Uiso   1.00
C257   C     0.48505   0.50753   0.49072   0.00000  Uiso   1.00
C258   C     0.50051   0.51361   0.44413   0.00000  Uiso   1.00
C259   C     0.51281   0.49395   0.01340   0.00000  Uiso   1.00
C260   C     0.55586   0.48854   0.48949   0.00000  Uiso   1.00
C261   C     0.57116   0.49780   0.44465   0.00000  Uiso   1.00
C262   C     0.54420   0.51098   0.42270   0.00000  Uiso   1.00
F263   F     0.61276   0.49494   0.42200   0.00000  Uiso   1.00
H264   H     0.59343   0.46314   0.07388   0.00000  Uiso   1.00
H265   H     0.34953   0.52754   0.20912   0.00000  Uiso   1.00
H266   H     0.58999   0.63597   0.16171   0.00000  Uiso   1.00
H267   H     0.54203   0.62176   0.14072   0.00000  Uiso   1.00
H268   H     0.58006   0.66626   0.12140   0.00000  Uiso   1.00
H269   H     0.51835   0.35730   0.17342   0.00000  Uiso   1.00
H270   H     0.56323   0.36777   0.19783   0.00000  Uiso   1.00
H271   H     0.65217   0.47337   0.29078   0.00000  Uiso   1.00
H272   H     0.46876   0.66553   0.29497   0.00000  Uiso   1.00
H273   H     0.61669   0.47154   0.49358   0.00000  Uiso   1.00
H274   H     0.46821   0.49121   0.08011   0.00000  Uiso   1.00
H275   H     0.40825   0.53849   0.42560   0.00000  Uiso   1.00
H276   H     0.42868   0.51296   0.04805   0.00000  Uiso   1.00
H277   H     0.38390   0.53419   0.00668   0.00000  Uiso   1.00
H278   H     0.55855   0.52001   0.38884   0.00000  Uiso   1.00
O279   O     0.50000   0.50000   0.25000   0.00000  Uiso   1.00
O280   O     0.48784   0.45970   0.15459   0.00000  Uiso   1.00
O281   O     0.46274   0.53724   0.34968   0.00000  Uiso   1.00
O282   O     0.54157   0.51092   0.14606   0.00000  Uiso   1.00
O283   O     0.50785   0.49213   0.34968   0.00000  Uiso   1.00
O284   O     0.51264   0.41352   0.28214   0.00000  Uiso   1.00
O285   O     0.47965   0.59418   0.27014   0.00000  Uiso   1.00
O286   O     0.40745   0.46625   0.23413   0.00000  Uiso   1.00
O287   O     0.60026   0.52605   0.21361   0.00000  Uiso   1.00
O288   O     0.40405   0.52211   0.28213   0.00000  Uiso   1.00
O289   O     0.58824   0.48559   0.27014   0.00000  Uiso   1.00
O290   O     0.47093   0.40277   0.23413   0.00000  Uiso   1.00
O291   O     0.53678   0.58953   0.21361   0.00000  Uiso   1.00
Zn292  Zn    0.52672   0.47327   0.28734   0.00000  Uiso   1.00
Zn293  Zn    0.46713   0.45791   0.21876   0.00000  Uiso   1.00
Zn294  Zn    0.54389   0.53109   0.20657   0.00000  Uiso   1.00
Zn295  Zn    0.46226   0.53773   0.28734   0.00000  Uiso   1.00
C296   C     0.71952   0.49313   0.25989   0.00000  Uiso   1.00
C297   C     0.83306   0.48662   0.05938   0.00000  Uiso   1.00
C298   C     0.90389   0.47031   0.05690   0.00000  Uiso   1.00
C299   C     0.94760   0.50723   0.23987   0.00000  Uiso   1.00
C300   C     0.80532   0.52275   0.42006   0.00000  Uiso   1.00
C301   C     0.99359   0.50996   0.23551   0.00000  Uiso   1.00
C302   C     0.67416   0.49080   0.26393   0.00000  Uiso   1.00
C303   C     0.84500   0.65550   0.23101   0.00000  Uiso   1.00
C304   C     0.82073   0.34513   0.26361   0.00000  Uiso   1.00
C305   C     0.82246   0.38932   0.26088   0.00000  Uiso   1.00
C306   C     0.84288   0.61124   0.23874   0.00000  Uiso   1.00
C307   C     0.74955   0.52810   0.48924   0.00000  Uiso   1.00
C308   C     0.85246   0.48176   0.12935   0.00000  Uiso   1.00
C309   C     0.81578   0.51833   0.37078   0.00000  Uiso   1.00
C310   C     0.91718   0.47567   0.01129   0.00000  Uiso   1.00
C311   C     0.86214   0.47639   0.08096   0.00000  Uiso   1.00
C312   C     0.76381   0.53115   0.44328   0.00000  Uiso   1.00
C313   C     0.87287   0.34261   0.18836   0.00000  Uiso   1.00
C314   C     0.89759   0.64785   0.15104   0.00000  Uiso   1.00
C315   C     0.77591   0.51559   0.01271   0.00000  Uiso   1.00
C316   C     0.81838   0.50753   0.49072   0.00000  Uiso   1.00
C317   C     0.83385   0.51361   0.44413   0.00000  Uiso   1.00
C318   C     0.84614   0.49395   0.01340   0.00000  Uiso   1.00
C319   C     0.88920   0.48854   0.48949   0.00000  Uiso   1.00
C320   C     0.90450   0.49780   0.44465   0.00000  Uiso   1.00
C321   C     0.87753   0.51098   0.42270   0.00000  Uiso   1.00
F322   F     0.94609   0.49494   0.42200   0.00000  Uiso   1.00
H323   H     0.92676   0.46314   0.07388   0.00000  Uiso   1.00
H324   H     0.68286   0.52754   0.20912   0.00000  Uiso   1.00
H325   H     0.92332   0.63597   0.16171   0.00000  Uiso   1.00
H326   H     0.87536   0.62176   0.14072   0.00000  Uiso   1.00
H327   H     0.91339   0.66626   0.12140   0.00000  Uiso   1.00
H328   H     0.85168   0.35730   0.17342   0.00000  Uiso   1.00
H329   H     0.89656   0.36777   0.19783   0.00000  Uiso   1.00
H330   H     0.98551   0.47337   0.29078   0.00000  Uiso   1.00
H331   H     0.80210   0.66553   0.29497   0.00000  Uiso   1.00
H332   H     0.95002   0.47154   0.49358   0.00000  Uiso   1.00
H333   H     0.80154   0.49121   0.08011   0.00000  Uiso   1.00
H334   H     0.74159   0.53849   0.42560   0.00000  Uiso   1.00
H335   H     0.76201   0.51296   0.04805   0.00000  Uiso   1.00
H336   H     0.71723   0.53419   0.00668   0.00000  Uiso   1.00
H337   H     0.89188   0.52001   0.38884   0.00000  Uiso   1.00
O338   O     0.83333   0.50000   0.25000   0.00000  Uiso   1.00
O339   O     0.82118   0.45970   0.15459   0.00000  Uiso   1.00
O340   O     0.79607   0.53724   0.34968   0.00000  Uiso   1.00
O341   O     0.87491   0.51092   0.14606   0.00000  Uiso   1.00
O342   O     0.84118   0.49213   0.34968   0.00000  Uiso   1.00
O343   O     0.84597   0.41352   0.28214   0.00000  Uiso   1.00
O344   O     0.81298   0.59418   0.27014   0.00000  Uiso   1.00
O345   O     0.74078   0.46625   0.23413   0.00000  Uiso   1.00
O346   O     0.93360   0.52605   0.21361   0.00000  Uiso   1.00
O347   O     0.73738   0.52211   0.28213   0.00000  Uiso   1.00
O348   O     0.92158   0.48559   0.27014   0.00000  Uiso   1.00
O349   O     0.80426   0.40277   0.23413   0.00000  Uiso   1.00
O350   O     0.87012   0.58953   0.21361   0.00000  Uiso   1.00
Zn351  Zn    0.86005   0.47327   0.28734   0.00000  Uiso   1.00
Zn352  Zn    0.80046   0.45791   0.21876   0.00000  Uiso   1.00
Zn353  Zn    0.87723   0.53109   0.20657   0.00000  Uiso   1.00
Zn354  Zn    0.79560   0.53773   0.28734   0.00000  Uiso   1.00
C355   C     0.05285   0.82646   0.25989   0.00000  Uiso   1.00
C356   C     0.16639   0.81995   0.05938   0.00000  Uiso   1.00
C357   C     0.23723   0.80364   0.05690   0.00000  Uiso   1.00
C358   C     0.28093   0.84056   0.23987   0.00000  Uiso   1.00
C359   C     0.13865   0.85608   0.42006   0.00000  Uiso   1.00
C360   C     0.32692   0.84329   0.23551   0.00000  Uiso   1.00
C361   C     0.00749   0.82413   0.26393   0.00000  Uiso   1.00
C362   C     0.17833   0.98883   0.23101   0.00000  Uiso   1.00
C363   C     0.15407   0.67846   0.26361   0.00000  Uiso   1.00
C364   C     0.15579   0.72265   0.26088   0.00000  Uiso   1.00
C365   C     0.17621   0.94458   0.23874   0.00000  Uiso   1.00
C366   C     0.08289   0.86143   0.48924   0.00000  Uiso   1.00
C367   C     0.18579   0.81509   0.12935   0.00000  Uiso   1.00
C368   C     0.14911   0.85166   0.37078   0.00000  Uiso   1.00
C369   C     0.25051   0.80901   0.01129   0.00000  Uiso   1.00
C370   C     0.19548   0.80973   0.08096   0.00000  Uiso   1.00
C371   C     0.09714   0.86448   0.44328   0.00000  Uiso   1.00
C372   C     0.20620   0.67594   0.18836   0.00000  Uiso   1.00
C373   C     0.23092   0.98119   0.15104   0.00000  Uiso   1.00
C374   C     0.10924   0.84892   0.01271   0.00000  Uiso   1.00
C375   C     0.15172   0.84086   0.49072   0.00000  Uiso   1.00
C376   C     0.16718   0.84694   0.44413   0.00000  Uiso   1.00
C377   C     0.17947   0.82728   0.01340   0.00000  Uiso   1.00
C378   C     0.22253   0.82187   0.48949   0.00000  Uiso   1.00
C379   C     0.23783   0.83114   0.44465   0.00000  Uiso   1.00
C380   C     0.21087   0.84431   0.42270   0.00000  Uiso   1.00
F381   F     0.27943   0.82827   0.42200   0.00000  Uiso   1.00
H382   H     0.26010   0.79648   0.07388   0.00000  Uiso   1.00
H383   H     0.01620   0.86087   0.20912   0.00000  Uiso   1.00
H384   H     0.25665   0.96930   0.16171   0.00000  Uiso   1.00
H385   H     0.20869   0.95509   0.14072   0.00000  Uiso   1.00
H386   H     0.24673   0.99960   0.12140   0.00000  Uiso   1.00
H387   H     0.18501   0.69063   0.17342   0.00000  Uiso   1.00
H388   H     0.22989   0.70110   0.19783   0.00000  Uiso   1.00
H389   H     0.31884   0.80670   0.29078   0.00000  Uiso   1.00
H390   H     0.13543   0.99886   0.29497   0.00000  Uiso   1.00
H391   H     0.28335   0.80487   0.49358   0.00000  Uiso   1.00
H392   H     0.13487   0.82454   0.08011   0.00000  Uiso   1.00
H393   H     0.07492   0.87182   0.42560   0.00000  Uiso   1.00
H394   H     0.09534   0.84629   0.04805   0.00000  Uiso   1.00
H395   H     0.05057   0.86752   0.00668   0.00000  Uiso   1.00
H396   H     0.22521   0.85335   0.38884   0.00000  Uiso   1.00
O397   O     0.16667   0.83333   0.25000   0.00000  Uiso   1.00
O398   O     0.15451   0.79304   0.15459   0.00000  Uiso   1.00
O399   O     0.12940   0.87058   0.34968   0.00000  Uiso   1.00
O400   O     0.20824   0.84425   0.14606   0.00000  Uiso   1.00
O401   O     0.17451   0.82546   0.34968   0.00000  Uiso   1.00
O402   O     0.17930   0.74686   0.28214   0.00000  Uiso   1.00
O403   O     0.14632   0.92751   0.27014   0.00000  Uiso   1.00
O404   O     0.07412   0.79958   0.23413   0.00000  Uiso   1.00
O405   O     0.26693   0.85939   0.21361   0.00000  Uiso   1.00
O406   O     0.07071   0.85544   0.28213   0.00000  Uiso   1.00
O407   O     0.25491   0.81892   0.27014   0.00000  Uiso   1.00
O408   O     0.13760   0.73610   0.23413   0.00000  Uiso   1.00
O409   O     0.20345   0.92286   0.21361   0.00000  Uiso   1.00
Zn410  Zn    0.19338   0.80661   0.28734   0.00000  Uiso   1.00
Zn411  Zn    0.13379   0.79124   0.21876   0.00000  Uiso   1.00
Zn412  Zn    0.21056   0.86442   0.20657   0.00000  Uiso   1.00
Zn413  Zn    0.12893   0.87106   0.28734   0.00000  Uiso   1.00
C414   C     0.38618   0.82646   0.25989   0.00000  Uiso   1.00
C415   C     0.49973   0.81995   0.05938   0.00000  Uiso   1.00
C416   C     0.57056   0.80364   0.05690   0.00000  Uiso   1.00
C417   C     0.61427   0.84056   0.23987   0.00000  Uiso   1.00
C418   C     0.47198   0.85608   0.42006   0.00000  Uiso   1.00
C419   C     0.66026   0.84329   0.23551   0.00000  Uiso   1.00
C420   C     0.34083   0.82413   0.26393   0.00000  Uiso   1.00
C421   C     0.51166   0.98883   0.23101   0.00000  Uiso   1.00
C422   C     0.48740   0.67846   0.26361   0.00000  Uiso   1.00
C423   C     0.48912   0.72265   0.26088   0.00000  Uiso   1.00
C424   C     0.50955   0.94458   0.23874   0.00000  Uiso   1.00
C425   C     0.41622   0.86143   0.48924   0.00000  Uiso   1.00
C426   C     0.51912   0.81509   0.12935   0.00000  Uiso   1.00
C427   C     0.48245   0.85166   0.37078   0.00000  Uiso   1.00
C428   C     0.58385   0.80901   0.01129   0.00000  Uiso   1.00
C429   C     0.52881   0.80973   0.08096   0.00000  Uiso   1.00
C430   C     0.43048   0.86448   0.44328   0.00000  Uiso   1.00
C431   C     0.53953   0.67594   0.18836   0.00000  Uiso   1.00
C432   C     0.56426   0.98119   0.15104   0.00000  Uiso   1.00
C433   C     0.44258   0.84892   0.01271   0.00000  Uiso   1.00
C434   C     0.48505   0.84086   0.49072   0.00000  Uiso   1.00
C435   C     0.50051   0.84694   0.44413   0.00000  Uiso   1.00
C436   C     0.51281   0.82728   0.01340   0.00000  Uiso   1.00
C437   C     0.55586   0.82187   0.48949   0.00000  Uiso   1.00
C438   C     0.57116   0.83114   0.44465   0.00000  Uiso   1.00
C439   C     0.54420   0.84431   0.42270   0.00000  Uiso   1.00
F440   F     0.61276   0.82827   0.42200   0.00000  Uiso   1.00
H441   H     0.59343   0.79648   0.07388   0.00000  Uiso   1.00
H442   H     0.34953   0.86087   0.20912   0.00000  Uiso   1.00
H443   H     0.58999   0.96930   0.16171   0.00000  Uiso   1.00
H444   H     0.54203   0.95509   0.14072   0.00000  Uiso   1.00
H445   H     0.58006   0.99960   0.12140   0.00000  Uiso   1.00
H446   H     0.51835   0.69063   0.17342   0.00000  Uiso   1.00
H447   H     0.56323   0.70110   0.19783   0.00000  Uiso   1.00
H448   H     0.65217   0.80670   0.29078   0.00000  Uiso   1.00
H449   H     0.46876   0.99886   0.29497   0.00000  Uiso   1.00
H450   H     0.61669   0.80487   0.49358   0.00000  Uiso   1.00
H451   H     0.46821   0.82454   0.08011   0.00000  Uiso   1.00
H452   H     0.40825   0.87182   0.42560   0.00000  Uiso   1.00
H453   H     0.42868   0.84629   0.04805   0.00000  Uiso   1.00
H454   H     0.38390   0.86752   0.00668   0.00000  Uiso   1.00
H455   H     0.55855   0.85335   0.38884   0.00000  Uiso   1.00
O456   O     0.50000   0.83333   0.25000   0.00000  Uiso   1.00
O457   O     0.48784   0.79304   0.15459   0.00000  Uiso   1.00
O458   O     0.46274   0.87058   0.34968   0.00000  Uiso   1.00
O459   O     0.54157   0.84425   0.14606   0.00000  Uiso   1.00
O460   O     0.50785   0.82546   0.34968   0.00000  Uiso   1.00
O461   O     0.51264   0.74686   0.28214   0.00000  Uiso   1.00
O462   O     0.47965   0.92751   0.27014   0.00000  Uiso   1.00
O463   O     0.40745   0.79958   0.23413   0.00000  Uiso   1.00
O464   O     0.60026   0.85939   0.21361   0.00000  Uiso   1.00
O465   O     0.40405   0.85544   0.28213   0.00000  Uiso   1.00
O466   O     0.58824   0.81892   0.27014   0.00000  Uiso   1.00
O467   O     0.47093   0.73610   0.23413   0.00000  Uiso   1.00
O468   O     0.53678   0.92286   0.21361   0.00000  Uiso   1.00
Zn469  Zn    0.52672   0.80661   0.28734   0.00000  Uiso   1.00
Zn470  Zn    0.46713   0.79124   0.21876   0.00000  Uiso   1.00
Zn471  Zn    0.54389   0.86442   0.20657   0.00000  Uiso   1.00
Zn472  Zn    0.46226   0.87106   0.28734   0.00000  Uiso   1.00
C473   C     0.71952   0.82646   0.25989   0.00000  Uiso   1.00
C474   C     0.83306   0.81995   0.05938   0.00000  Uiso   1.00
C475   C     0.90389   0.80364   0.05690   0.00000  Uiso   1.00
C476   C     0.94760   0.84056   0.23987   0.00000  Uiso   1.00
C477   C     0.80532   0.85608   0.42006   0.00000  Uiso   1.00
C478   C     0.99359   0.84329   0.23551   0.00000  Uiso   1.00
C479   C     0.67416   0.82413   0.26393   0.00000  Uiso   1.00
C480   C     0.84500   0.98883   0.23101   0.00000  Uiso   1.00
C481   C     0.82073   0.67846   0.26361   0.00000  Uiso   1.00
C482   C     0.82246   0.72265   0.26088   0.00000  Uiso   1.00
C483   C     0.84288   0.94458   0.23874   0.00000  Uiso   1.00
C484   C     0.74955   0.86143   0.48924   0.00000  Uiso   1.00
C485   C     0.85246   0.81509   0.12935   0.00000  Uiso   1.00
C486   C     0.81578   0.85166   0.37078   0.00000  Uiso   1.00
C487   C     0.91718   0.80901   0.01129   0.00000  Uiso   1.00
C488   C     0.86214   0.80973   0.08096   0.00000  Uiso   1.00
C489   C     0.76381   0.86448   0.44328   0.00000  Uiso   1.00
C490   C     0.87287   0.67594   0.18836   0.00000  Uiso   1.00
C491   C     0.89759   0.98119   0.15104   0.00000  Uiso   1.00
C492   C     0.77591   0.84892   0.01271   0.00000  Uiso   1.00
C493   C     0.81838   0.84086   0.49072   0.00000  Uiso   1.00
C494   C     0.83385   0.84694   0.44413   0.00000  Uiso   1.00
C495   C     0.84614   0.82728   0.01340   0.00000  Uiso   1.00
C496   C     0.88920   0.82187   0.48949   0.00000  Uiso   1.00
C497   C     0.90450   0.83114   0.44465   0.00000  Uiso   1.00
C498   C     0.87753   0.84431   0.42270   0.00000  Uiso   1.00
F499   F     0.94609   0.82827   0.42200   0.00000  Uiso   1.00
H500   H     0.92676   0.79648   0.07388   0.00000  Uiso   1.00
H501   H     0.68286   0.86087   0.20912   0.00000  Uiso   1.00
H502   H     0.92332   0.96930   0.16171   0.00000  Uiso   1.00
H503   H     0.87536   0.95509   0.14072   0.00000  Uiso   1.00
H504   H     0.91339   0.99960   0.12140   0.00000  Uiso   1.00
H505   H     0.85168   0.69063   0.17342   0.00000  Uiso   1.00
H506   H     0.89656   0.70110   0.19783   0.00000  Uiso   1.00
H507   H     0.98551   0.80670   0.29078   0.00000  Uiso   1.00
H508   H     0.80210   0.99886   0.29497   0.00000  Uiso   1.00
H509   H     0.95002   0.80487   0.49358   0.00000  Uiso   1.00
H510   H     0.80154   0.82454   0.08011   0.00000  Uiso   1.00
H511   H     0.74159   0.87182   0.42560   0.00000  Uiso   1.00
H512   H     0.76201   0.84629   0.04805   0.00000  Uiso   1.00
H513   H     0.71723   0.86752   0.00668   0.00000  Uiso   1.00
H514   H     0.89188   0.85335   0.38884   0.00000  Uiso   1.00
O515   O     0.83333   0.83333   0.25000   0.00000  Uiso   1.00
O516   O     0.82118   0.79304   0.15459   0.00000  Uiso   1.00
O517   O     0.79607   0.87058   0.34968   0.00000  Uiso   1.00
O518   O     0.87491   0.84425   0.14606   0.00000  Uiso   1.00
O519   O     0.84118   0.82546   0.34968   0.00000  Uiso   1.00
O520   O     0.84597   0.74686   0.28214   0.00000  Uiso   1.00
O521   O     0.81298   0.92751   0.27014   0.00000  Uiso   1.00
O522   O     0.74078   0.79958   0.23413   0.00000  Uiso   1.00
O523   O     0.93360   0.85939   0.21361   0.00000  Uiso   1.00
O524   O     0.73738   0.85544   0.28213   0.00000  Uiso   1.00
O525   O     0.92158   0.81892   0.27014   0.00000  Uiso   1.00
O526   O     0.80426   0.73610   0.23413   0.00000  Uiso   1.00
O527   O     0.87012   0.92286   0.21361   0.00000  Uiso   1.00
Zn528  Zn    0.86005   0.80661   0.28734   0.00000  Uiso   1.00
Zn529  Zn    0.80046   0.79124   0.21876   0.00000  Uiso   1.00
Zn530  Zn    0.87723   0.86442   0.20657   0.00000  Uiso   1.00
Zn531  Zn    0.79560   0.87106   0.28734   0.00000  Uiso   1.00
C532   C     0.05285   0.15979   0.75989   0.00000  Uiso   1.00
C533   C     0.16639   0.15328   0.55938   0.00000  Uiso   1.00
C534   C     0.23723   0.13698   0.55690   0.00000  Uiso   1.00
C535   C     0.28093   0.17389   0.73987   0.00000  Uiso   1.00
C536   C     0.13865   0.18941   0.92006   0.00000  Uiso   1.00
C537   C     0.32692   0.17663   0.73551   0.00000  Uiso   1.00
C538   C     0.00749   0.15746   0.76393   0.00000  Uiso   1.00
C539   C     0.17833   0.32217   0.73101   0.00000  Uiso   1.00
C540   C     0.15407   0.01179   0.76361   0.00000  Uiso   1.00
C541   C     0.15579   0.05598   0.76088   0.00000  Uiso   1.00
C542   C     0.17621   0.27791   0.73874   0.00000  Uiso   1.00
C543   C     0.08289   0.19477   0.98924   0.00000  Uiso   1.00
C544   C     0.18579   0.14843   0.62935   0.00000  Uiso   1.00
C545   C     0.14911   0.18499   0.87078   0.00000  Uiso   1.00
C546   C     0.25051   0.14234   0.51129   0.00000  Uiso   1.00
C547   C     0.19548   0.14306   0.58096   0.00000  Uiso   1.00
C548   C     0.09714   0.19781   0.94328   0.00000  Uiso   1.00
C549   C     0.20620   0.00928   0.68836   0.00000  Uiso   1.00
C550   C     0.23092   0.31452   0.65104   0.00000  Uiso   1.00
C551   C     0.10924   0.18226   0.51271   0.00000  Uiso   1.00
C552   C     0.15172   0.17419   0.99072   0.00000  Uiso   1.00
C553   C     0.16718   0.18028   0.94413   0.00000  Uiso   1.00
C554   C     0.17947   0.16061   0.51340   0.00000  Uiso   1.00
C555   C     0.22253   0.15521   0.98949   0.00000  Uiso   1.00
C556   C     0.23783   0.16447   0.94465   0.00000  Uiso   1.00
C557   C     0.21087   0.17764   0.92270   0.00000  Uiso   1.00
F558   F     0.27943   0.16160   0.92200   0.00000  Uiso   1.00
H559   H     0.26010   0.12981   0.57388   0.00000  Uiso   1.00
H560   H     0.01620   0.19421   0.70912   0.00000  Uiso   1.00
H561   H     0.25665   0.30264   0.66171   0.00000  Uiso   1.00
H562   H     0.20869   0.28842   0.64072   0.00000  Uiso   1.00
H563   H     0.24673   0.33293   0.62140   0.00000  Uiso   1.00
H564   H     0.18501   0.02397   0.67342   0.00000  Uiso   1.00
H565   H     0.22989   0.03443   0.69783   0.00000  Uiso   1.00
H566   H     0.31884   0.14003   0.79078   0.00000  Uiso   1.00
H567   H     0.13543   0.33220   0.79497   0.00000  Uiso   1.00
H568   H     0.28335   0.13820   0.99358   0.00000  Uiso   1.00
H569   H     0.13487   0.15788   0.58011   0.00000  Uiso   1.00
H570   H     0.07492   0.20515   0.92560   0.00000  Uiso   1.00
H571   H     0.09534   0.17962   0.54805   0.00000  Uiso   1.00
H572   H     0.05057   0.20085   0.50668   0.00000  Uiso   1.00
H573   H     0.22521   0.18668   0.88884   0.00000  Uiso   1.00
O574   O     0.16667   0.16667   0.75000   0.00000  Uiso   1.00
O575   O     0.15451   0.12637   0.65459   0.00000  Uiso   1.00
O576   O     0.12940   0.20391   0.84968   0.00000  Uiso   1.00
O577   O     0.20824   0.17759   0.64606   0.00000  Uiso   1.00
O578   O     0.17451   0.15880   0.84968   0.00000  Uiso   1.00
O579   O     0.17930   0.08019   0.78214   0.00000  Uiso   1.00
O580   O     0.14632   0.26085   0.77014   0.00000  Uiso   1.00
O581   O     0.07412   0.13291   0.73413   0.00000  Uiso   1.00
O582   O     0.26693   0.19272   0.71361   0.00000  Uiso   1.00
O583   O     0.07071   0.18878   0.78213   0.00000  Uiso   1.00
O584   O     0.25491   0.15226   0.77014   0.00000  Uiso   1.00
O585   O     0.13760   0.06944   0.73413   0.00000  Uiso   1.00
O586   O     0.20345   0.25620   0.71361   0.00000  Uiso   1.00
Zn587  Zn    0.19338   0.13994   0.78734   0.00000  Uiso   1.00
Zn588  Zn    0.13379   0.12458   0.71876   0.00000  Uiso   1.00
Zn589  Zn    0.21056   0.19775   0.70657   0.00000  Uiso   1.00
Zn590  Zn    0.12893   0.20439   0.78734   0.00000  Uiso   1.00
C591   C     0.38618   0.15979   0.75989   0.00000  Uiso   1.00
C592   C     0.49973   0.15328   0.55938   0.00000  Uiso   1.00
C593   C     0.57056   0.13698   0.55690   0.00000  Uiso   1.00
C594   C     0.61427   0.17389   0.73987   0.00000  Uiso   1.00
C595   C     0.47198   0.18941   0.92006   0.00000  Uiso   1.00
C596   C     0.66026   0.17663   0.73551   0.00000  Uiso   1.00
C597   C     0.34083   0.15746   0.76393   0.00000  Uiso   1.00
C598   C     0.51166   0.32217   0.73101   0.00000  Uiso   1.00
C599   C     0.48740   0.01179   0.76361   0.00000  Uiso   1.00
C600   C     0.48912   0.05598   0.76088   0.00000  Uiso   1.00
C601   C     0.50955   0.27791   0.73874   0.00000  Uiso   1.00
C602   C     0.41622   0.19477   0.98924   0.00000  Uiso   1.00
C603   C     0.51912   0.14843   0.62935   0.00000  Uiso   1.00
C604   C     0.48245   0.18499   0.87078   0.00000  Uiso   1.00
C605   C     0.58385   0.14234   0.51129   0.00000  Uiso   1.00
C606   C     0.52881   0.14306   0.58096   0.00000  Uiso   1.00
C607   C     0.43048   0.19781   0.94328   0.00000  Uiso   1.00
C608   C     0.53953   0.00928   0.68836   0.00000  Uiso   1.00
C609   C     0.56426   0.31452   0.65104   0.00000  Uiso   1.00
C610   C     0.44258   0.18226   0.51271   0.00000  Uiso   1.00
C611   C     0.48505   0.17419   0.99072   0.00000  Uiso   1.00
C612   C     0.50051   0.18028   0.94413   0.00000  Uiso   1.00
C613   C     0.51281   0.16061   0.51340   0.00000  Uiso   1.00
C614   C     0.55586   0.15521   0.98949   0.00000  Uiso   1.00
C615   C     0.57116   0.16447   0.94465   0.00000  Uiso   1.00
C616   C     0.54420   0.17764   0.92270   0.00000  Uiso   1.00
F617   F     0.61276   0.16160   0.92200   0.00000  Uiso   1.00
H618   H     0.59343   0.12981   0.57388   0.00000  Uiso   1.00
H619   H     0.34953   0.19421   0.70912   0.00000  Uiso   1.00
H620   H     0.58999   0.30264   0.66171   0.00000  Uiso   1.00
H621   H     0.54203   0.28842   0.64072   0.00000  Uiso   1.00
H622   H     0.58006   0.33293   0.62140   0.00000  Uiso   1.00
H623   H     0.51835   0.02397   0.67342   0.00000  Uiso   1.00
H624   H     0.56323   0.03443   0.69783   0.00000  Uiso   1.00
H625   H     0.65217   0.14003   0.79078   0.00000  Uiso   1.00
H626   H     0.46876   0.33220   0.79497   0.00000  Uiso   1.00
H627   H     0.61669   0.13820   0.99358   0.00000  Uiso   1.00
H628   H     0.46821   0.15788   0.58011   0.00000  Uiso   1.00
H629   H     0.40825   0.20515   0.92560   0.00000  Uiso   1.00
H630   H     0.42868   0.17962   0.54805   0.00000  Uiso   1.00
H631   H     0.38390   0.20085   0.50668   0.00000  Uiso   1.00
H632   H     0.55855   0.18668   0.88884   0.00000  Uiso   1.00
O633   O     0.50000   0.16667   0.75000   0.00000  Uiso   1.00
O634   O     0.48784   0.12637   0.65459   0.00000  Uiso   1.00
O635   O     0.46274   0.20391   0.84968   0.00000  Uiso   1.00
O636   O     0.54157   0.17759   0.64606   0.00000  Uiso   1.00
O637   O     0.50785   0.15880   0.84968   0.00000  Uiso   1.00
O638   O     0.51264   0.08019   0.78214   0.00000  Uiso   1.00
O639   O     0.47965   0.26085   0.77014   0.00000  Uiso   1.00
O640   O     0.40745   0.13291   0.73413   0.00000  Uiso   1.00
O641   O     0.60026   0.19272   0.71361   0.00000  Uiso   1.00
O642   O     0.40405   0.18878   0.78213   0.00000  Uiso   1.00
O643   O     0.58824   0.15226   0.77014   0.00000  Uiso   1.00
O644   O     0.47093   0.06944   0.73413   0.00000  Uiso   1.00
O645   O     0.53678   0.25620   0.71361   0.00000  Uiso   1.00
Zn646  Zn    0.52672   0.13994   0.78734   0.00000  Uiso   1.00
Zn647  Zn    0.46713   0.12458   0.71876   0.00000  Uiso   1.00
Zn648  Zn    0.54389   0.19775   0.70657   0.00000  Uiso   1.00
Zn649  Zn    0.46226   0.20439   0.78734   0.00000  Uiso   1.00
C650   C     0.71952   0.15979   0.75989   0.00000  Uiso   1.00
C651   C     0.83306   0.15328   0.55938   0.00000  Uiso   1.00
C652   C     0.90389   0.13698   0.55690   0.00000  Uiso   1.00
C653   C     0.94760   0.17389   0.73987   0.00000  Uiso   1.00
C654   C     0.80532   0.18941   0.92006   0.00000  Uiso   1.00
C655   C     0.99359   0.17663   0.73551   0.00000  Uiso   1.00
C656   C     0.67416   0.15746   0.76393   0.00000  Uiso   1.00
C657   C     0.84500   0.32217   0.73101   0.00000  Uiso   1.00
C658   C     0.82073   0.01179   0.76361   0.00000  Uiso   1.00
C659   C     0.82246   0.05598   0.76088   0.00000  Uiso   1.00
C660   C     0.84288   0.27791   0.73874   0.00000  Uiso   1.00
C661   C     0.74955   0.19477   0.98924   0.00000  Uiso   1.00
C662   C     0.85246   0.14843   0.62935   0.00000  Uiso   1.00
C663   C     0.81578   0.18499   0.87078   0.00000  Uiso   1.00
C664   C     0.91718   0.14234   0.51129   0.00000  Uiso   1.00
C665   C     0.86214   0.14306   0.58096   0.00000  Uiso   1.00
C666   C     0.76381   0.19781   0.94328   0.00000  Uiso   1.00
C667   C     0.87287   0.00928   0.68836   0.00000  Uiso   1.00
C668   C     0.89759   0.31452   0.65104   0.00000  Uiso   1.00
C669   C     0.77591   0.18226   0.51271   0.00000  Uiso   1.00
C670   C     0.81838   0.17419   0.99072   0.00000  Uiso   1.00
C671   C     0.83385   0.18028   0.94413   0.00000  Uiso   1.00
C672   C     0.84614   0.16061   0.51340   0.00000  Uiso   1.00
C673   C     0.88920   0.15521   0.98949   0.00000  Uiso   1.00
C674   C     0.90450   0.16447   0.94465   0.00000  Uiso   1.00
C675   C     0.87753   0.17764   0.92270   0.00000  Uiso   1.00
F676   F     0.94609   0.16160   0.92200   0.00000  Uiso   1.00
H677   H     0.92676   0.12981   0.57388   0.00000  Uiso   1.00
H678   H     0.68286   0.19421   0.70912   0.00000  Uiso   1.00
H679   H     0.92332   0.30264   0.66171   0.00000  Uiso   1.00
H680   H     0.87536   0.28842   0.64072   0.00000  Uiso   1.00
H681   H     0.91339   0.33293   0.62140   0.00000  Uiso   1.00
H682   H     0.85168   0.02397   0.67342   0.00000  Uiso   1.00
H683   H     0.89656   0.03443   0.69783   0.00000  Uiso   1.00
H684   H     0.98551   0.14003   0.79078   0.00000  Uiso   1.00
H685   H     0.80210   0.33220   0.79497   0.00000  Uiso   1.00
H686   H     0.95002   0.13820   0.99358   0.00000  Uiso   1.00
H687   H     0.80154   0.15788   0.58011   0.00000  Uiso   1.00
H688   H     0.74159   0.20515   0.92560   0.00000  Uiso   1.00
H689   H     0.76201   0.17962   0.54805   0.00000  Uiso   1.00
H690   H     0.71723   0.20085   0.50668   0.00000  Uiso   1.00
H691   H     0.89188   0.18668   0.88884   0.00000  Uiso   1.00
O692   O     0.83333   0.16667   0.75000   0.00000  Uiso   1.00
O693   O     0.82118   0.12637   0.65459   0.00000  Uiso   1.00
O694   O     0.79607   0.20391   0.84968   0.00000  Uiso   1.00
O695   O     0.87491   0.17759   0.64606   0.00000  Uiso   1.00
O696   O     0.84118   0.15880   0.84968   0.00000  Uiso   1.00
O697   O     0.84597   0.08019   0.78214   0.00000  Uiso   1.00
O698   O     0.81298   0.26085   0.77014   0.00000  Uiso   1.00
O699   O     0.74078   0.13291   0.73413   0.00000  Uiso   1.00
O700   O     0.93360   0.19272   0.71361   0.00000  Uiso   1.00
O701   O     0.73738   0.18878   0.78213   0.00000  Uiso   1.00
O702   O     0.92158   0.15226   0.77014   0.00000  Uiso   1.00
O703   O     0.80426   0.06944   0.73413   0.00000  Uiso   1.00
O704   O     0.87012   0.25620   0.71361   0.00000  Uiso   1.00
Zn705  Zn    0.86005   0.13994   0.78734   0.00000  Uiso   1.00
Zn706  Zn    0.80046   0.12458   0.71876   0.00000  Uiso   1.00
Zn707  Zn    0.87723   0.19775   0.70657   0.00000  Uiso   1.00
Zn708  Zn    0.79560   0.20439   0.78734   0.00000  Uiso   1.00
C709   C     0.05285   0.49313   0.75989   0.00000  Uiso   1.00
C710   C     0.16639   0.48662   0.55938   0.00000  Uiso   1.00
C711   C     0.23723   0.47031   0.55690   0.00000  Uiso   1.00
C712   C     0.28093   0.50723   0.73987   0.00000  Uiso   1.00
C713   C     0.13865   0.52275   0.92006   0.00000  Uiso   1.00
C714   C     0.32692   0.50996   0.73551   0.00000  Uiso   1.00
C715   C     0.00749   0.49080   0.76393   0.00000  Uiso   1.00
C716   C     0.17833   0.65550   0.73101   0.00000  Uiso   1.00
C717   C     0.15407   0.34513   0.76361   0.00000  Uiso   1.00
C718   C     0.15579   0.38932   0.76088   0.00000  Uiso   1.00
C719   C     0.17621   0.61124   0.73874   0.00000  Uiso   1.00
C720   C     0.08289   0.52810   0.98924   0.00000  Uiso   1.00
C721   C     0.18579   0.48176   0.62935   0.00000  Uiso   1.00
C722   C     0.14911   0.51833   0.87078   0.00000  Uiso   1.00
C723   C     0.25051   0.47567   0.51129   0.00000  Uiso   1.00
C724   C     0.19548   0.47639   0.58096   0.00000  Uiso   1.00
C725   C     0.09714   0.53115   0.94328   0.00000  Uiso   1.00
C726   C     0.20620   0.34261   0.68836   0.00000  Uiso   1.00
C727   C     0.23092   0.64785   0.65104   0.00000  Uiso   1.00
C728   C     0.10924   0.51559   0.51271   0.00000  Uiso   1.00
C729   C     0.15172   0.50753   0.99072   0.00000  Uiso   1.00
C730   C     0.16718   0.51361   0.94413   0.00000  Uiso   1.00
C731   C     0.17947   0.49395   0.51340   0.00000  Uiso   1.00
C732   C     0.22253   0.48854   0.98949   0.00000  Uiso   1.00
C733   C     0.23783   0.49780   0.94465   0.00000  Uiso   1.00
C734   C     0.21087   0.51098   0.92270   0.00000  Uiso   1.00
F735   F     0.27943   0.49494   0.92200   0.00000  Uiso   1.00
H736   H     0.26010   0.46314   0.57388   0.00000  Uiso   1.00
H737   H     0.01620   0.52754   0.70912   0.00000  Uiso   1.00
H738   H     0.25665   0.63597   0.66171   0.00000  Uiso   1.00
H739   H     0.20869   0.62176   0.64072   0.00000  Uiso   1.00
H740   H     0.24673   0.66626   0.62140   0.00000  Uiso   1.00
H741   H     0.18501   0.35730   0.67342   0.00000  Uiso   1.00
H742   H     0.22989   0.36777   0.69783   0.00000  Uiso   1.00
H743   H     0.31884   0.47337   0.79078   0.00000  Uiso   1.00
H744   H     0.13543   0.66553   0.79497   0.00000  Uiso   1.00
H745   H     0.28335   0.47154   0.99358   0.00000  Uiso   1.00
H746   H     0.13487   0.49121   0.58011   0.00000  Uiso   1.00
H747   H     0.07492   0.53849   0.92560   0.00000  Uiso   1.00
H748   H     0.09534   0.51296   0.54805   0.00000  Uiso   1.00
H749   H     0.05057   0.53419   0.50668   0.00000  Uiso   1.00
H750   H     0.22521   0.52001   0.88884   0.00000  Uiso   1.00
O751   O     0.16667   0.50000   0.75000   0.00000  Uiso   1.00
O752   O     0.15451   0.45970   0.65459   0.00000  Uiso   1.00
O753   O     0.12940   0.53724   0.84968   0.00000  Uiso   1.00
O754   O     0.20824   0.51092   0.64606   0.00000  Uiso   1.00
O755   O     0.17451   0.49213   0.84968   0.00000  Uiso   1.00
O756   O     0.17930   0.41352   0.78214   0.00000  Uiso   1.00
O757   O     0.14632   0.59418   0.77014   0.00000  Uiso   1.00
O758   O     0.07412   0.46625   0.73413   0.00000  Uiso   1.00
O759   O     0.26693   0.52605   0.71361   0.00000  Uiso   1.00
O760   O     0.07071   0.52211   0.78213   0.00000  Uiso   1.00
O761   O     0.25491   0.48559   0.77014   0.00000  Uiso   1.00
O762   O     0.13760   0.40277   0.73413   0.00000  Uiso   1.00
O763   O     0.20345   0.58953   0.71361   0.00000  Uiso   1.00
Zn764  Zn    0.19338   0.47327   0.78734   0.00000  Uiso   1.00
Zn765  Zn    0.13379   0.45791   0.71876   0.00000  Uiso   1.00
Zn766  Zn    0.21056   0.53109   0.70657   0.00000  Uiso   1.00
Zn767  Zn    0.12893   0.53773   0.78734   0.00000  Uiso   1.00
C768   C     0.38618   0.49313   0.75989   0.00000  Uiso   1.00
C769   C     0.49973   0.48662   0.55938   0.00000  Uiso   1.00
C770   C     0.57056   0.47031   0.55690   0.00000  Uiso   1.00
C771   C     0.61427   0.50723   0.73987   0.00000  Uiso   1.00
C772   C     0.47198   0.52275   0.92006   0.00000  Uiso   1.00
C773   C     0.66026   0.50996   0.73551   0.00000  Uiso   1.00
C774   C     0.34083   0.49080   0.76393   0.00000  Uiso   1.00
C775   C     0.51166   0.65550   0.73101   0.00000  Uiso   1.00
C776   C     0.48740   0.34513   0.76361   0.00000  Uiso   1.00
C777   C     0.48912   0.38932   0.76088   0.00000  Uiso   1.00
C778   C     0.50955   0.61124   0.73874   0.00000  Uiso   1.00
C779   C     0.41622   0.52810   0.98924   0.00000  Uiso   1.00
C780   C     0.51912   0.48176   0.62935   0.00000  Uiso   1.00
C781   C     0.48245   0.51833   0.87078   0.00000  Uiso   1.00
C782   C     0.58385   0.47567   0.51129   0.00000  Uiso   1.00
C783   C     0.52881   0.47639   0.58096   0.00000  Uiso   1.00
C784   C     0.43048   0.53115   0.94328   0.00000  Uiso   1.00
C785   C     0.53953   0.34261   0.68836   0.00000  Uiso   1.00
C786   C     0.56426   0.64785   0.65104   0.00000  Uiso   1.00
C787   C     0.44258   0.51559   0.51271   0.00000  Uiso   1.00
C788   C     0.48505   0.50753   0.99072   0.00000  Uiso   1.00
C789   C     0.50051   0.51361   0.94413   0.00000  Uiso   1.00
C790   C     0.51281   0.49395   0.51340   0.00000  Uiso   1.00
C791   C     0.55586   0.48854   0.98949   0.00000  Uiso   1.00
C792   C     0.57116   0.49780   0.94465   0.00000  Uiso   1.00
C793   C     0.54420   0.51098   0.92270   0.00000  Uiso   1.00
F794   F     0.61276   0.49494   0.92200   0.00000  Uiso   1.00
H795   H     0.59343   0.46314   0.57388   0.00000  Uiso   1.00
H796   H     0.34953   0.52754   0.70912   0.00000  Uiso   1.00
H797   H     0.58999   0.63597   0.66171   0.00000  Uiso   1.00
H798   H     0.54203   0.62176   0.64072   0.00000  Uiso   1.00
H799   H     0.58006   0.66626   0.62140   0.00000  Uiso   1.00
H800   H     0.51835   0.35730   0.67342   0.00000  Uiso   1.00
H801   H     0.56323   0.36777   0.69783   0.00000  Uiso   1.00
H802   H     0.65217   0.47337   0.79078   0.00000  Uiso   1.00
H803   H     0.46876   0.66553   0.79497   0.00000  Uiso   1.00
H804   H     0.61669   0.47154   0.99358   0.00000  Uiso   1.00
H805   H     0.46821   0.49121   0.58011   0.00000  Uiso   1.00
H806   H     0.40825   0.53849   0.92560   0.00000  Uiso   1.00
H807   H     0.42868   0.51296   0.54805   0.00000  Uiso   1.00
H808   H     0.38390   0.53419   0.50668   0.00000  Uiso   1.00
H809   H     0.55855   0.52001   0.88884   0.00000  Uiso   1.00
O810   O     0.50000   0.50000   0.75000   0.00000  Uiso   1.00
O811   O     0.48784   0.45970   0.65459   0.00000  Uiso   1.00
O812   O     0.46274   0.53724   0.84968   0.00000  Uiso   1.00
O813   O     0.54157   0.51092   0.64606   0.00000  Uiso   1.00
O814   O     0.50785   0.49213   0.84968   0.00000  Uiso   1.00
O815   O     0.51264   0.41352   0.78214   0.00000  Uiso   1.00
O816   O     0.47965   0.59418   0.77014   0.00000  Uiso   1.00
O817   O     0.40745   0.46625   0.73413   0.00000  Uiso   1.00
O818   O     0.60026   0.52605   0.71361   0.00000  Uiso   1.00
O819   O     0.40405   0.52211   0.78213   0.00000  Uiso   1.00
O820   O     0.58824   0.48559   0.77014   0.00000  Uiso   1.00
O821   O     0.47093   0.40277   0.73413   0.00000  Uiso   1.00
O822   O     0.53678   0.58953   0.71361   0.00000  Uiso   1.00
Zn823  Zn    0.52672   0.47327   0.78734   0.00000  Uiso   1.00
Zn824  Zn    0.46713   0.45791   0.71876   0.00000  Uiso   1.00
Zn825  Zn    0.54389   0.53109   0.70657   0.00000  Uiso   1.00
Zn826  Zn    0.46226   0.53773   0.78734   0.00000  Uiso   1.00
C827   C     0.71952   0.49313   0.75989   0.00000  Uiso   1.00
C828   C     0.83306   0.48662   0.55938   0.00000  Uiso   1.00
C829   C     0.90389   0.47031   0.55690   0.00000  Uiso   1.00
C830   C     0.94760   0.50723   0.73987   0.00000  Uiso   1.00
C831   C     0.80532   0.52275   0.92006   0.00000  Uiso   1.00
C832   C     0.99359   0.50996   0.73551   0.00000  Uiso   1.00
C833   C     0.67416   0.49080   0.76393   0.00000  Uiso   1.00
C834   C     0.84500   0.65550   0.73101   0.00000  Uiso   1.00
C835   C     0.82073   0.34513   0.76361   0.00000  Uiso   1.00
C836   C     0.82246   0.38932   0.76088   0.00000  Uiso   1.00
C837   C     0.84288   0.61124   0.73874   0.00000  Uiso   1.00
C838   C     0.74955   0.52810   0.98924   0.00000  Uiso   1.00
C839   C     0.85246   0.48176   0.62935   0.00000  Uiso   1.00
C840   C     0.81578   0.51833   0.87078   0.00000  Uiso   1.00
C841   C     0.91718   0.47567   0.51129   0.00000  Uiso   1.00
C842   C     0.86214   0.47639   0.58096   0.00000  Uiso   1.00
C843   C     0.76381   0.53115   0.94328   0.00000  Uiso   1.00
C844   C     0.87287   0.34261   0.68836   0.00000  Uiso   1.00
C845   C     0.89759   0.64785   0.65104   0.00000  Uiso   1.00
C846   C     0.77591   0.51559   0.51271   0.00000  Uiso   1.00
C847   C     0.81838   0.50753   0.99072   0.00000  Uiso   1.00
C848   C     0.83385   0.51361   0.94413   0.00000  Uiso   1.00
C849   C     0.84614   0.49395   0.51340   0.00000  Uiso   1.00
C850   C     0.88920   0.48854   0.98949   0.00000  Uiso   1.00
C851   C     0.90450   0.49780   0.94465   0.00000  Uiso   1.00
C852   C     0.87753   0.51098   0.92270   0.00000  Uiso   1.00
F853   F     0.94609   0.49494   0.92200   0.00000  Uiso   1.00
H854   H     0.92676   0.46314   0.57388   0.00000  Uiso   1.00
H855   H     0.68286   0.52754   0.70912   0.00000  Uiso   1.00
H856   H     0.92332   0.63597   0.66171   0.00000  Uiso   1.00
H857   H     0.87536   0.62176   0.64072   0.00000  Uiso   1.00
H858   H     0.91339   0.66626   0.62140   0.00000  Uiso   1.00
H859   H     0.85168   0.35730   0.67342   0.00000  Uiso   1.00
H860   H     0.89656   0.36777   0.69783   0.00000  Uiso   1.00
H861   H     0.98551   0.47337   0.79078   0.00000  Uiso   1.00
H862   H     0.80210   0.66553   0.79497   0.00000  Uiso   1.00
H863   H     0.95002   0.47154   0.99358   0.00000  Uiso   1.00
H864   H     0.80154   0.49121   0.58011   0.00000  Uiso   1.00
H865   H     0.74159   0.53849   0.92560   0.00000  Uiso   1.00
H866   H     0.76201   0.51296   0.54805   0.00000  Uiso   1.00
H867   H     0.71723   0.53419   0.50668   0.00000  Uiso   1.00
H868   H     0.89188   0.52001   0.88884   0.00000  Uiso   1.00
O869   O     0.83333   0.50000   0.75000   0.00000  Uiso   1.00
O870   O     0.82118   0.45970   0.65459   0.00000  Uiso   1.00
O871   O     0.79607   0.53724   0.84968   0.00000  Uiso   1.00
O872   O     0.87491   0.51092   0.64606   0.00000  Uiso   1.00
O873   O     0.84118   0.49213   0.84968   0.00000  Uiso   1.00
O874   O     0.84597   0.41352   0.78214   0.00000  Uiso   1.00
O875   O     0.81298   0.59418   0.77014   0.00000  Uiso   1.00
O876   O     0.74078   0.46625   0.73413   0.00000  Uiso   1.00
O877   O     0.93360   0.52605   0.71361   0.00000  Uiso   1.00
O878   O     0.73738   0.52211   0.78213   0.00000  Uiso   1.00
O879   O     0.92158   0.48559   0.77014   0.00000  Uiso   1.00
O880   O     0.80426   0.40277   0.73413   0.00000  Uiso   1.00
O881   O     0.87012   0.58953   0.71361   0.00000  Uiso   1.00
Zn882  Zn    0.86005   0.47327   0.78734   0.00000  Uiso   1.00
Zn883  Zn    0.80046   0.45791   0.71876   0.00000  Uiso   1.00
Zn884  Zn    0.87723   0.53109   0.70657   0.00000  Uiso   1.00
Zn885  Zn    0.79560   0.53773   0.78734   0.00000  Uiso   1.00
C886   C     0.05285   0.82646   0.75989   0.00000  Uiso   1.00
C887   C     0.16639   0.81995   0.55938   0.00000  Uiso   1.00
C888   C     0.23723   0.80364   0.55690   0.00000  Uiso   1.00
C889   C     0.28093   0.84056   0.73987   0.00000  Uiso   1.00
C890   C     0.13865   0.85608   0.92006   0.00000  Uiso   1.00
C891   C     0.32692   0.84329   0.73551   0.00000  Uiso   1.00
C892   C     0.00749   0.82413   0.76393   0.00000  Uiso   1.00
C893   C     0.17833   0.98883   0.73101   0.00000  Uiso   1.00
C894   C     0.15407   0.67846   0.76361   0.00000  Uiso   1.00
C895   C     0.15579   0.72265   0.76088   0.00000  Uiso   1.00
C896   C     0.17621   0.94458   0.73874   0.00000  Uiso   1.00
C897   C     0.08289   0.86143   0.98924   0.00000  Uiso   1.00
C898   C     0.18579   0.81509   0.62935   0.00000  Uiso   1.00
C899   C     0.14911   0.85166   0.87078   0.00000  Uiso   1.00
C900   C     0.25051   0.80901   0.51129   0.00000  Uiso   1.00
C901   C     0.19548   0.80973   0.58096   0.00000  Uiso   1.00
C902   C     0.09714   0.86448   0.94328   0.00000  Uiso   1.00
C903   C     0.20620   0.67594   0.68836   0.00000  Uiso   1.00
C904   C     0.23092   0.98119   0.65104   0.00000  Uiso   1.00
C905   C     0.10924   0.84892   0.51271   0.00000  Uiso   1.00
C906   C     0.15172   0.84086   0.99072   0.00000  Uiso   1.00
C907   C     0.16718   0.84694   0.94413   0.00000  Uiso   1.00
C908   C     0.17947   0.82728   0.51340   0.00000  Uiso   1.00
C909   C     0.22253   0.82187   0.98949   0.00000  Uiso   1.00
C910   C     0.23783   0.83114   0.94465   0.00000  Uiso   1.00
C911   C     0.21087   0.84431   0.92270   0.00000  Uiso   1.00
F912   F     0.27943   0.82827   0.92200   0.00000  Uiso   1.00
H913   H     0.26010   0.79648   0.57388   0.00000  Uiso   1.00
H914   H     0.01620   0.86087   0.70912   0.00000  Uiso   1.00
H915   H     0.25665   0.96930   0.66171   0.00000  Uiso   1.00
H916   H     0.20869   0.95509   0.64072   0.00000  Uiso   1.00
H917   H     0.24673   0.99960   0.62140   0.00000  Uiso   1.00
H918   H     0.18501   0.69063   0.67342   0.00000  Uiso   1.00
H919   H     0.22989   0.70110   0.69783   0.00000  Uiso   1.00
H920   H     0.31884   0.80670   0.79078   0.00000  Uiso   1.00
H921   H     0.13543   0.99886   0.79497   0.00000  Uiso   1.00
H922   H     0.28335   0.80487   0.99358   0.00000  Uiso   1.00
H923   H     0.13487   0.82454   0.58011   0.00000  Uiso   1.00
H924   H     0.07492   0.87182   0.92560   0.00000  Uiso   1.00
H925   H     0.09534   0.84629   0.54805   0.00000  Uiso   1.00
H926   H     0.05057   0.86752   0.50668   0.00000  Uiso   1.00
H927   H     0.22521   0.85335   0.88884   0.00000  Uiso   1.00
O928   O     0.16667   0.83333   0.75000   0.00000  Uiso   1.00
O929   O     0.15451   0.79304   0.65459   0.00000  Uiso   1.00
O930   O     0.12940   0.87058   0.84968   0.00000  Uiso   1.00
O931   O     0.20824   0.84425   0.64606   0.00000  Uiso   1.00
O932   O     0.17451   0.82546   0.84968   0.00000  Uiso   1.00
O933   O     0.17930   0.74686   0.78214   0.00000  Uiso   1.00
O934   O     0.14632   0.92751   0.77014   0.00000  Uiso   1.00
O935   O     0.07412   0.79958   0.73413   0.00000  Uiso   1.00
O936   O     0.26693   0.85939   0.71361   0.00000  Uiso   1.00
O937   O     0.07071   0.85544   0.78213   0.00000  Uiso   1.00
O938   O     0.25491   0.81892   0.77014   0.00000  Uiso   1.00
O939   O     0.13760   0.73610   0.73413   0.00000  Uiso   1.00
O940   O     0.20345   0.92286   0.71361   0.00000  Uiso   1.00
Zn941  Zn    0.19338   0.80661   0.78734   0.00000  Uiso   1.00
Zn942  Zn    0.13379   0.79124   0.71876   0.00000  Uiso   1.00
Zn943  Zn    0.21056   0.86442   0.70657   0.00000  Uiso   1.00
Zn944  Zn    0.12893   0.87106   0.78734   0.00000  Uiso   1.00
C945   C     0.38618   0.82646   0.75989   0.00000  Uiso   1.00
C946   C     0.49973   0.81995   0.55938   0.00000  Uiso   1.00
C947   C     0.57056   0.80364   0.55690   0.00000  Uiso   1.00
C948   C     0.61427   0.84056   0.73987   0.00000  Uiso   1.00
C949   C     0.47198   0.85608   0.92006   0.00000  Uiso   1.00
C950   C     0.66026   0.84329   0.73551   0.00000  Uiso   1.00
C951   C     0.34083   0.82413   0.76393   0.00000  Uiso   1.00
C952   C     0.51166   0.98883   0.73101   0.00000  Uiso   1.00
C953   C     0.48740   0.67846   0.76361   0.00000  Uiso   1.00
C954   C     0.48912   0.72265   0.76088   0.00000  Uiso   1.00
C955   C     0.50955   0.94458   0.73874   0.00000  Uiso   1.00
C956   C     0.41622   0.86143   0.98924   0.00000  Uiso   1.00
C957   C     0.51912   0.81509   0.62935   0.00000  Uiso   1.00
C958   C     0.48245   0.85166   0.87078   0.00000  Uiso   1.00
C959   C     0.58385   0.80901   0.51129   0.00000  Uiso   1.00
C960   C     0.52881   0.80973   0.58096   0.00000  Uiso   1.00
C961   C     0.43048   0.86448   0.94328   0.00000  Uiso   1.00
C962   C     0.53953   0.67594   0.68836   0.00000  Uiso   1.00
C963   C     0.56426   0.98119   0.65104   0.00000  Uiso   1.00
C964   C     0.44258   0.84892   0.51271   0.00000  Uiso   1.00
C965   C     0.48505   0.84086   0.99072   0.00000  Uiso   1.00
C966   C     0.50051   0.84694   0.94413   0.00000  Uiso   1.00
C967   C     0.51281   0.82728   0.51340   0.00000  Uiso   1.00
C968   C     0.55586   0.82187   0.98949   0.00000  Uiso   1.00
C969   C     0.57116   0.83114   0.94465   0.00000  Uiso   1.00
C970   C     0.54420   0.84431   0.92270   0.00000  Uiso   1.00
F971   F     0.61276   0.82827   0.92200   0.00000  Uiso   1.00
H972   H     0.59343   0.79648   0.57388   0.00000  Uiso   1.00
H973   H     0.34953   0.86087   0.70912   0.00000  Uiso   1.00
H974   H     0.58999   0.96930   0.66171   0.00000  Uiso   1.00
H975   H     0.54203   0.95509   0.64072   0.00000  Uiso   1.00
H976   H     0.58006   0.99960   0.62140   0.00000  Uiso   1.00
H977   H     0.51835   0.69063   0.67342   0.00000  Uiso   1.00
H978   H     0.56323   0.70110   0.69783   0.00000  Uiso   1.00
H979   H     0.65217   0.80670   0.79078   0.00000  Uiso   1.00
H980   H     0.46876   0.99886   0.79497   0.00000  Uiso   1.00
H981   H     0.61669   0.80487   0.99358   0.00000  Uiso   1.00
H982   H     0.46821   0.82454   0.58011   0.00000  Uiso   1.00
H983   H     0.40825   0.87182   0.92560   0.00000  Uiso   1.00
H984   H     0.42868   0.84629   0.54805   0.00000  Uiso   1.00
H985   H     0.38390   0.86752   0.50668   0.00000  Uiso   1.00
H986   H     0.55855   0.85335   0.88884   0.00000  Uiso   1.00
O987   O     0.50000   0.83333   0.75000   0.00000  Uiso   1.00
O988   O     0.48784   0.79304   0.65459   0.00000  Uiso   1.00
O989   O     0.46274   0.87058   0.84968   0.00000  Uiso   1.00
O990   O     0.54157   0.84425   0.64606   0.00000  Uiso   1.00
O991   O     0.50785   0.82546   0.84968   0.00000  Uiso   1.00
O992   O     0.51264   0.74686   0.78214   0.00000  Uiso   1.00
O993   O     0.47965   0.92751   0.77014   0.00000  Uiso   1.00
O994   O     0.40745   0.79958   0.73413   0.00000  Uiso   1.00
O995   O     0.60026   0.85939   0.71361   0.00000  Uiso   1.00
O996   O     0.40405   0.85544   0.78213   0.00000  Uiso   1.00
O997   O     0.58824   0.81892   0.77014   0.00000  Uiso   1.00
O998   O     0.47093   0.73610   0.73413   0.00000  Uiso   1.00
O999   O     0.53678   0.92286   0.71361   0.00000  Uiso   1.00
Zn1000 Zn    0.52672   0.80661   0.78734   0.00000  Uiso   1.00
Zn1001 Zn    0.46713   0.79124   0.71876   0.00000  Uiso   1.00
Zn1002 Zn    0.54389   0.86442   0.70657   0.00000  Uiso   1.00
Zn1003 Zn    0.46226   0.87106   0.78734   0.00000  Uiso   1.00
C1004  C     0.71952   0.82646   0.75989   0.00000  Uiso   1.00
C1005  C     0.83306   0.81995   0.55938   0.00000  Uiso   1.00
C1006  C     0.90389   0.80364   0.55690   0.00000  Uiso   1.00
C1007  C     0.94760   0.84056   0.73987   0.00000  Uiso   1.00
C1008  C     0.80532   0.85608   0.92006   0.00000  Uiso   1.00
C1009  C     0.99359   0.84329   0.73551   0.00000  Uiso   1.00
C1010  C     0.67416   0.82413   0.76393   0.00000  Uiso   1.00
C1011  C     0.84500   0.98883   0.73101   0.00000  Uiso   1.00
C1012  C     0.82073   0.67846   0.76361   0.00000  Uiso   1.00
C1013  C     0.82246   0.72265   0.76088   0.00000  Uiso   1.00
C1014  C     0.84288   0.94458   0.73874   0.00000  Uiso   1.00
C1015  C     0.74955   0.86143   0.98924   0.00000  Uiso   1.00
C1016  C     0.85246   0.81509   0.62935   0.00000  Uiso   1.00
C1017  C     0.81578   0.85166   0.87078   0.00000  Uiso   1.00
C1018  C     0.91718   0.80901   0.51129   0.00000  Uiso   1.00
C1019  C     0.86214   0.80973   0.58096   0.00000  Uiso   1.00
C1020  C     0.76381   0.86448   0.94328   0.00000  Uiso   1.00
C1021  C     0.87287   0.67594   0.68836   0.00000  Uiso   1.00
C1022  C     0.89759   0.98119   0.65104   0.00000  Uiso   1.00
C1023  C     0.77591   0.84892   0.51271   0.00000  Uiso   1.00
C1024  C     0.81838   0.84086   0.99072   0.00000  Uiso   1.00
C1025  C     0.83385   0.84694   0.94413   0.00000  Uiso   1.00
C1026  C     0.84614   0.82728   0.51340   0.00000  Uiso   1.00
C1027  C     0.88920   0.82187   0.98949   0.00000  Uiso   1.00
C1028  C     0.90450   0.83114   0.94465   0.00000  Uiso   1.00
C1029  C     0.87753   0.84431   0.92270   0.00000  Uiso   1.00
F1030  F     0.94609   0.82827   0.92200   0.00000  Uiso   1.00
H1031  H     0.92676   0.79648   0.57388   0.00000  Uiso   1.00
H1032  H     0.68286   0.86087   0.70912   0.00000  Uiso   1.00
H1033  H     0.92332   0.96930   0.66171   0.00000  Uiso   1.00
H1034  H     0.87536   0.95509   0.64072   0.00000  Uiso   1.00
H1035  H     0.91339   0.99960   0.62140   0.00000  Uiso   1.00
H1036  H     0.85168   0.69063   0.67342   0.00000  Uiso   1.00
H1037  H     0.89656   0.70110   0.69783   0.00000  Uiso   1.00
H1038  H     0.98551   0.80670   0.79078   0.00000  Uiso   1.00
H1039  H     0.80210   0.99886   0.79497   0.00000  Uiso   1.00
H1040  H     0.95002   0.80487   0.99358   0.00000  Uiso   1.00
H1041  H     0.80154   0.82454   0.58011   0.00000  Uiso   1.00
H1042  H     0.74159   0.87182   0.92560   0.00000  Uiso   1.00
H1043  H     0.76201   0.84629   0.54805   0.00000  Uiso   1.00
H1044  H     0.71723   0.86752   0.50668   0.00000  Uiso   1.00
H1045  H     0.89188   0.85335   0.88884   0.00000  Uiso   1.00
O1046  O     0.83333   0.83333   0.75000   0.00000  Uiso   1.00
O1047  O     0.82118   0.79304   0.65459   0.00000  Uiso   1.00
O1048  O     0.79607   0.87058   0.84968   0.00000  Uiso   1.00
O1049  O     0.87491   0.84425   0.64606   0.00000  Uiso   1.00
O1050  O     0.84118   0.82546   0.84968   0.00000  Uiso   1.00
O1051  O     0.84597   0.74686   0.78214   0.00000  Uiso   1.00
O1052  O     0.81298   0.92751   0.77014   0.00000  Uiso   1.00
O1053  O     0.74078   0.79958   0.73413   0.00000  Uiso   1.00
O1054  O     0.93360   0.85939   0.71361   0.00000  Uiso   1.00
O1055  O     0.73738   0.85544   0.78213   0.00000  Uiso   1.00
O1056  O     0.92158   0.81892   0.77014   0.00000  Uiso   1.00
O1057  O     0.80426   0.73610   0.73413   0.00000  Uiso   1.00
O1058  O     0.87012   0.92286   0.71361   0.00000  Uiso   1.00
Zn1059 Zn    0.86005   0.80661   0.78734   0.00000  Uiso   1.00
Zn1060 Zn    0.80046   0.79124   0.71876   0.00000  Uiso   1.00
Zn1061 Zn    0.87723   0.86442   0.70657   0.00000  Uiso   1.00
Zn1062 Zn    0.79560   0.87106   0.78734   0.00000  Uiso   1.00
loop_
_geom_bond_atom_site_label_1
_geom_bond_atom_site_label_2
_geom_bond_distance
_geom_bond_site_symmetry_2
_ccdc_geom_bond_type
C1     O50     1.277   .     A
C1     O52     1.276   .     A
C1     C7      1.438   .     S
C2     C16     1.392   .     A
C2     H38     1.077   .     S
C2     C23     1.411   .     A
C3     H28     1.084   .     S
C3     C15     1.386   .     A
C3     C16     1.395   .     A
C4     O53     1.273   .     A
C4     O51     1.278   .     A
C4     C6      1.455   .     S
C5     C14     1.474   .     S
C5     C17     1.402   .     A
C5     C22     1.418   .     A
C6     C66     1.335   .     S
C6     H88     1.087   .     S
C7     C124    1.335   1_455 S
C7     H153    1.086   1_455 S
C8     C11     1.473   .     S
C8     C186    1.343   .     S
C8     C195    1.539   .     S
C9     C10     1.441   .     S
C9     C362    1.343   1_545 S
C9     H390    1.087   1_545 S
C10    O48     1.277   .     A
C10    O54     1.284   .     A
C11    O49     1.281   .     A
C11    O55     1.265   .     A
C12    C17     1.387   .     A
C12    C551    1.391   .     S
C12    H572    1.083   .     S
C13    C16     1.449   .     S
C13    O46     1.266   .     A
C13    O44     1.276   .     A
C14    O47     1.284   .     A
C14    O45     1.283   .     A
C15    C555    1.402   1_554 S
C15    H568    1.084   1_554 S
C17    H39     1.083   .     S
C18    H34     1.112   .     S
C18    H33     1.111   .     S
C18    C362    1.539   1_545 S
C18    C373    1.529   1_545 S
C19    H31     1.111   .     S
C19    H30     1.110   .     S
C19    H32     1.111   .     S
C19    C195    1.529   .     S
C20    H40     1.076   .     S
C20    C543    1.391   1_554 S
C20    C552    1.418   1_554 S
C21    C22     1.422   .     A
C21    C551    1.418   .     S
C21    C554    1.426   .     S
C22    C26     1.409   .     A
C23    C552    1.426   1_554 S
C23    C555    1.426   1_554 S
C24    C25     1.395   .     A
C24    C546    1.402   .     S
C24    C554    1.426   .     S
C25    F27     1.359   .     S
C25    C26     1.383   .     A
C26    H42     1.080   .     S
H29    C124    1.087   1_455 S
H35    C66     1.086   .     S
H36    C186    1.087   .     S
H37    C546    1.084   .     S
H41    C543    1.083   1_554 S
O43    Zn59    1.940   .     S
O43    Zn57    1.955   .     S
O43    Zn56    1.957   .     S
O43    Zn58    1.919   .     S
O44    Zn57    1.929   .     S
O45    Zn59    1.943   .     S
O46    Zn58    1.947   .     S
O47    Zn56    1.935   .     S
O48    Zn56    1.931   .     S
O49    Zn59    1.924   .     S
O50    Zn57    1.925   .     S
O51    Zn58    1.937   .     S
O52    Zn59    1.932   .     S
O53    Zn56    1.918   .     S
O54    Zn57    1.932   .     S
O55    Zn58    1.935   .     S
C60    O109    1.277   .     A
C60    O111    1.276   .     A
C60    C66     1.438   .     S
C61    C75     1.392   .     A
C61    H97     1.077   .     S
C61    C82     1.411   .     A
C62    H87     1.084   .     S
C62    C74     1.386   .     A
C62    C75     1.395   .     A
C63    O112    1.273   .     A
C63    O110    1.278   .     A
C63    C65     1.455   .     S
C64    C73     1.474   .     S
C64    C76     1.402   .     A
C64    C81     1.418   .     A
C65    C125    1.335   .     S
C65    H147    1.087   .     S
C67    C70     1.473   .     S
C67    C245    1.343   .     S
C67    C254    1.539   .     S
C68    C69     1.441   .     S
C68    C421    1.343   1_545 S
C68    H449    1.087   1_545 S
C69    O107    1.277   .     A
C69    O113    1.284   .     A
C70    O108    1.281   .     A
C70    O114    1.265   .     A
C71    C76     1.387   .     A
C71    C610    1.391   .     S
C71    H631    1.083   .     S
C72    C75     1.449   .     S
C72    O105    1.266   .     A
C72    O103    1.276   .     A
C73    O106    1.284   .     A
C73    O104    1.283   .     A
C74    C614    1.402   1_554 S
C74    H627    1.084   1_554 S
C76    H98     1.083   .     S
C77    H93     1.112   .     S
C77    H92     1.111   .     S
C77    C421    1.539   1_545 S
C77    C432    1.529   1_545 S
C78    H90     1.111   .     S
C78    H89     1.110   .     S
C78    H91     1.111   .     S
C78    C254    1.529   .     S
C79    H99     1.076   .     S
C79    C602    1.391   1_554 S
C79    C611    1.418   1_554 S
C80    C81     1.422   .     A
C80    C610    1.418   .     S
C80    C613    1.426   .     S
C81    C85     1.409   .     A
C82    C611    1.426   1_554 S
C82    C614    1.426   1_554 S
C83    C84     1.395   .     A
C83    C605    1.402   .     S
C83    C613    1.426   .     S
C84    F86     1.359   .     S
C84    C85     1.383   .     A
C85    H101    1.080   .     S
H94    C125    1.086   .     S
H95    C245    1.087   .     S
H96    C605    1.084   .     S
H100   C602    1.083   1_554 S
O102   Zn118   1.940   .     S
O102   Zn116   1.955   .     S
O102   Zn115   1.957   .     S
O102   Zn117   1.919   .     S
O103   Zn116   1.929   .     S
O104   Zn118   1.943   .     S
O105   Zn117   1.947   .     S
O106   Zn115   1.935   .     S
O107   Zn115   1.931   .     S
O108   Zn118   1.924   .     S
O109   Zn116   1.925   .     S
O110   Zn117   1.937   .     S
O111   Zn118   1.932   .     S
O112   Zn115   1.918   .     S
O113   Zn116   1.932   .     S
O114   Zn117   1.935   .     S
C119   O168    1.277   .     A
C119   O170    1.276   .     A
C119   C125    1.438   .     S
C120   C134    1.392   .     A
C120   H156    1.077   .     S
C120   C141    1.411   .     A
C121   H146    1.084   .     S
C121   C133    1.386   .     A
C121   C134    1.395   .     A
C122   O171    1.273   .     A
C122   O169    1.278   .     A
C122   C124    1.455   .     S
C123   C132    1.474   .     S
C123   C135    1.402   .     A
C123   C140    1.418   .     A
C124   C7      1.335   1_655 S
C124   H29     1.087   1_655 S
C126   C129    1.473   .     S
C126   C304    1.343   .     S
C126   C313    1.539   .     S
C127   C128    1.441   .     S
C127   C480    1.343   1_545 S
C127   H508    1.087   1_545 S
C128   O166    1.277   .     A
C128   O172    1.284   .     A
C129   O167    1.281   .     A
C129   O173    1.265   .     A
C130   C135    1.387   .     A
C130   C669    1.391   .     S
C130   H690    1.083   .     S
C131   C134    1.449   .     S
C131   O164    1.266   .     A
C131   O162    1.276   .     A
C132   O165    1.284   .     A
C132   O163    1.283   .     A
C133   C673    1.402   1_554 S
C133   H686    1.084   1_554 S
C135   H157    1.083   .     S
C136   H152    1.112   .     S
C136   H151    1.111   .     S
C136   C480    1.539   1_545 S
C136   C491    1.529   1_545 S
C137   H149    1.111   .     S
C137   H148    1.110   .     S
C137   H150    1.111   .     S
C137   C313    1.529   .     S
C138   H158    1.076   .     S
C138   C661    1.391   1_554 S
C138   C670    1.418   1_554 S
C139   C140    1.422   .     A
C139   C669    1.418   .     S
C139   C672    1.426   .     S
C140   C144    1.409   .     A
C141   C670    1.426   1_554 S
C141   C673    1.426   1_554 S
C142   C143    1.395   .     A
C142   C664    1.402   .     S
C142   C672    1.426   .     S
C143   F145    1.359   .     S
C143   C144    1.383   .     A
C144   H160    1.080   .     S
H153   C7      1.086   1_655 S
H154   C304    1.087   .     S
H155   C664    1.084   .     S
H159   C661    1.083   1_554 S
O161   Zn177   1.940   .     S
O161   Zn175   1.955   .     S
O161   Zn174   1.957   .     S
O161   Zn176   1.919   .     S
O162   Zn175   1.929   .     S
O163   Zn177   1.943   .     S
O164   Zn176   1.947   .     S
O165   Zn174   1.935   .     S
O166   Zn174   1.931   .     S
O167   Zn177   1.924   .     S
O168   Zn175   1.925   .     S
O169   Zn176   1.937   .     S
O170   Zn177   1.932   .     S
O171   Zn174   1.918   .     S
O172   Zn175   1.932   .     S
O173   Zn176   1.935   .     S
C178   O227    1.277   .     A
C178   O229    1.276   .     A
C178   C184    1.438   .     S
C179   C193    1.392   .     A
C179   H215    1.077   .     S
C179   C200    1.411   .     A
C180   H205    1.084   .     S
C180   C192    1.386   .     A
C180   C193    1.395   .     A
C181   O230    1.273   .     A
C181   O228    1.278   .     A
C181   C183    1.455   .     S
C182   C191    1.474   .     S
C182   C194    1.402   .     A
C182   C199    1.418   .     A
C183   C243    1.335   .     S
C183   H265    1.087   .     S
C184   C301    1.335   1_455 S
C184   H330    1.086   1_455 S
C185   C188    1.473   .     S
C185   C363    1.343   .     S
C185   C372    1.539   .     S
C186   C187    1.441   .     S
C187   O225    1.277   .     A
C187   O231    1.284   .     A
C188   O226    1.281   .     A
C188   O232    1.265   .     A
C189   C194    1.387   .     A
C189   C728    1.391   .     S
C189   H749    1.083   .     S
C190   C193    1.449   .     S
C190   O223    1.266   .     A
C190   O221    1.276   .     A
C191   O224    1.284   .     A
C191   O222    1.283   .     A
C192   C732    1.402   1_554 S
C192   H745    1.084   1_554 S
C194   H216    1.083   .     S
C195   H211    1.112   .     S
C195   H210    1.111   .     S
C196   H208    1.111   .     S
C196   H207    1.110   .     S
C196   H209    1.111   .     S
C196   C372    1.529   .     S
C197   H217    1.076   .     S
C197   C720    1.391   1_554 S
C197   C729    1.418   1_554 S
C198   C199    1.422   .     A
C198   C728    1.418   .     S
C198   C731    1.426   .     S
C199   C203    1.409   .     A
C200   C729    1.426   1_554 S
C200   C732    1.426   1_554 S
C201   C202    1.395   .     A
C201   C723    1.402   .     S
C201   C731    1.426   .     S
C202   F204    1.359   .     S
C202   C203    1.383   .     A
C203   H219    1.080   .     S
H206   C301    1.087   1_455 S
H212   C243    1.086   .     S
H213   C363    1.087   .     S
H214   C723    1.084   .     S
H218   C720    1.083   1_554 S
O220   Zn236   1.940   .     S
O220   Zn234   1.955   .     S
O220   Zn233   1.957   .     S
O220   Zn235   1.919   .     S
O221   Zn234   1.929   .     S
O222   Zn236   1.943   .     S
O223   Zn235   1.947   .     S
O224   Zn233   1.935   .     S
O225   Zn233   1.931   .     S
O226   Zn236   1.924   .     S
O227   Zn234   1.925   .     S
O228   Zn235   1.937   .     S
O229   Zn236   1.932   .     S
O230   Zn233   1.918   .     S
O231   Zn234   1.932   .     S
O232   Zn235   1.935   .     S
C237   O286    1.277   .     A
C237   O288    1.276   .     A
C237   C243    1.438   .     S
C238   C252    1.392   .     A
C238   H274    1.077   .     S
C238   C259    1.411   .     A
C239   H264    1.084   .     S
C239   C251    1.386   .     A
C239   C252    1.395   .     A
C240   O289    1.273   .     A
C240   O287    1.278   .     A
C240   C242    1.455   .     S
C241   C250    1.474   .     S
C241   C253    1.402   .     A
C241   C258    1.418   .     A
C242   C302    1.335   .     S
C242   H324    1.087   .     S
C244   C247    1.473   .     S
C244   C422    1.343   .     S
C244   C431    1.539   .     S
C245   C246    1.441   .     S
C246   O284    1.277   .     A
C246   O290    1.284   .     A
C247   O285    1.281   .     A
C247   O291    1.265   .     A
C248   C253    1.387   .     A
C248   C787    1.391   .     S
C248   H808    1.083   .     S
C249   C252    1.449   .     S
C249   O282    1.266   .     A
C249   O280    1.276   .     A
C250   O283    1.284   .     A
C250   O281    1.283   .     A
C251   C791    1.402   1_554 S
C251   H804    1.084   1_554 S
C253   H275    1.083   .     S
C254   H270    1.112   .     S
C254   H269    1.111   .     S
C255   H267    1.111   .     S
C255   H266    1.110   .     S
C255   H268    1.111   .     S
C255   C431    1.529   .     S
C256   H276    1.076   .     S
C256   C779    1.391   1_554 S
C256   C788    1.418   1_554 S
C257   C258    1.422   .     A
C257   C787    1.418   .     S
C257   C790    1.426   .     S
C258   C262    1.409   .     A
C259   C788    1.426   1_554 S
C259   C791    1.426   1_554 S
C260   C261    1.395   .     A
C260   C782    1.402   .     S
C260   C790    1.426   .     S
C261   F263    1.359   .     S
C261   C262    1.383   .     A
C262   H278    1.080   .     S
H271   C302    1.086   .     S
H272   C422    1.087   .     S
H273   C782    1.084   .     S
H277   C779    1.083   1_554 S
O279   Zn295   1.940   .     S
O279   Zn293   1.955   .     S
O279   Zn292   1.957   .     S
O279   Zn294   1.919   .     S
O280   Zn293   1.929   .     S
O281   Zn295   1.943   .     S
O282   Zn294   1.947   .     S
O283   Zn292   1.935   .     S
O284   Zn292   1.931   .     S
O285   Zn295   1.924   .     S
O286   Zn293   1.925   .     S
O287   Zn294   1.937   .     S
O288   Zn295   1.932   .     S
O289   Zn292   1.918   .     S
O290   Zn293   1.932   .     S
O291   Zn294   1.935   .     S
C296   O345    1.277   .     A
C296   O347    1.276   .     A
C296   C302    1.438   .     S
C297   C311    1.392   .     A
C297   H333    1.077   .     S
C297   C318    1.411   .     A
C298   H323    1.084   .     S
C298   C310    1.386   .     A
C298   C311    1.395   .     A
C299   O348    1.273   .     A
C299   O346    1.278   .     A
C299   C301    1.455   .     S
C300   C309    1.474   .     S
C300   C312    1.402   .     A
C300   C317    1.418   .     A
C301   C184    1.335   1_655 S
C301   H206    1.087   1_655 S
C303   C306    1.473   .     S
C303   C481    1.343   .     S
C303   C490    1.539   .     S
C304   C305    1.441   .     S
C305   O343    1.277   .     A
C305   O349    1.284   .     A
C306   O344    1.281   .     A
C306   O350    1.265   .     A
C307   C312    1.387   .     A
C307   C846    1.391   .     S
C307   H867    1.083   .     S
C308   C311    1.449   .     S
C308   O341    1.266   .     A
C308   O339    1.276   .     A
C309   O342    1.284   .     A
C309   O340    1.283   .     A
C310   C850    1.402   1_554 S
C310   H863    1.084   1_554 S
C312   H334    1.083   .     S
C313   H329    1.112   .     S
C313   H328    1.111   .     S
C314   H326    1.111   .     S
C314   H325    1.110   .     S
C314   H327    1.111   .     S
C314   C490    1.529   .     S
C315   H335    1.076   .     S
C315   C838    1.391   1_554 S
C315   C847    1.418   1_554 S
C316   C317    1.422   .     A
C316   C846    1.418   .     S
C316   C849    1.426   .     S
C317   C321    1.409   .     A
C318   C847    1.426   1_554 S
C318   C850    1.426   1_554 S
C319   C320    1.395   .     A
C319   C841    1.402   .     S
C319   C849    1.426   .     S
C320   F322    1.359   .     S
C320   C321    1.383   .     A
C321   H337    1.080   .     S
H330   C184    1.086   1_655 S
H331   C481    1.087   .     S
H332   C841    1.084   .     S
H336   C838    1.083   1_554 S
O338   Zn354   1.940   .     S
O338   Zn352   1.955   .     S
O338   Zn351   1.957   .     S
O338   Zn353   1.919   .     S
O339   Zn352   1.929   .     S
O340   Zn354   1.943   .     S
O341   Zn353   1.947   .     S
O342   Zn351   1.935   .     S
O343   Zn351   1.931   .     S
O344   Zn354   1.924   .     S
O345   Zn352   1.925   .     S
O346   Zn353   1.937   .     S
O347   Zn354   1.932   .     S
O348   Zn351   1.918   .     S
O349   Zn352   1.932   .     S
O350   Zn353   1.935   .     S
C355   O404    1.277   .     A
C355   O406    1.276   .     A
C355   C361    1.438   .     S
C356   C370    1.392   .     A
C356   H392    1.077   .     S
C356   C377    1.411   .     A
C357   H382    1.084   .     S
C357   C369    1.386   .     A
C357   C370    1.395   .     A
C358   O407    1.273   .     A
C358   O405    1.278   .     A
C358   C360    1.455   .     S
C359   C368    1.474   .     S
C359   C371    1.402   .     A
C359   C376    1.418   .     A
C360   C420    1.335   .     S
C360   H442    1.087   .     S
C361   C478    1.335   1_455 S
C361   H507    1.086   1_455 S
C362   C365    1.473   .     S
C362   C9      1.343   1_565 S
C362   C18     1.539   1_565 S
C363   C364    1.441   .     S
C364   O402    1.277   .     A
C364   O408    1.284   .     A
C365   O403    1.281   .     A
C365   O409    1.265   .     A
C366   C371    1.387   .     A
C366   C905    1.391   .     S
C366   H926    1.083   .     S
C367   C370    1.449   .     S
C367   O400    1.266   .     A
C367   O398    1.276   .     A
C368   O401    1.284   .     A
C368   O399    1.283   .     A
C369   C909    1.402   1_554 S
C369   H922    1.084   1_554 S
C371   H393    1.083   .     S
C372   H388    1.112   .     S
C372   H387    1.111   .     S
C373   H385    1.111   .     S
C373   H384    1.110   .     S
C373   H386    1.111   .     S
C373   C18     1.529   1_565 S
C374   H394    1.076   .     S
C374   C897    1.391   1_554 S
C374   C906    1.418   1_554 S
C375   C376    1.422   .     A
C375   C905    1.418   .     S
C375   C908    1.426   .     S
C376   C380    1.409   .     A
C377   C906    1.426   1_554 S
C377   C909    1.426   1_554 S
C378   C379    1.395   .     A
C378   C900    1.402   .     S
C378   C908    1.426   .     S
C379   F381    1.359   .     S
C379   C380    1.383   .     A
C380   H396    1.080   .     S
H383   C478    1.087   1_455 S
H389   C420    1.086   .     S
H390   C9      1.087   1_565 S
H391   C900    1.084   .     S
H395   C897    1.083   1_554 S
O397   Zn413   1.940   .     S
O397   Zn411   1.955   .     S
O397   Zn410   1.957   .     S
O397   Zn412   1.919   .     S
O398   Zn411   1.929   .     S
O399   Zn413   1.943   .     S
O400   Zn412   1.947   .     S
O401   Zn410   1.935   .     S
O402   Zn410   1.931   .     S
O403   Zn413   1.924   .     S
O404   Zn411   1.925   .     S
O405   Zn412   1.937   .     S
O406   Zn413   1.932   .     S
O407   Zn410   1.918   .     S
O408   Zn411   1.932   .     S
O409   Zn412   1.935   .     S
C414   O463    1.277   .     A
C414   O465    1.276   .     A
C414   C420    1.438   .     S
C415   C429    1.392   .     A
C415   H451    1.077   .     S
C415   C436    1.411   .     A
C416   H441    1.084   .     S
C416   C428    1.386   .     A
C416   C429    1.395   .     A
C417   O466    1.273   .     A
C417   O464    1.278   .     A
C417   C419    1.455   .     S
C418   C427    1.474   .     S
C418   C430    1.402   .     A
C418   C435    1.418   .     A
C419   C479    1.335   .     S
C419   H501    1.087   .     S
C421   C424    1.473   .     S
C421   C68     1.343   1_565 S
C421   C77     1.539   1_565 S
C422   C423    1.441   .     S
C423   O461    1.277   .     A
C423   O467    1.284   .     A
C424   O462    1.281   .     A
C424   O468    1.265   .     A
C425   C430    1.387   .     A
C425   C964    1.391   .     S
C425   H985    1.083   .     S
C426   C429    1.449   .     S
C426   O459    1.266   .     A
C426   O457    1.276   .     A
C427   O460    1.284   .     A
C427   O458    1.283   .     A
C428   C968    1.402   1_554 S
C428   H981    1.084   1_554 S
C430   H452    1.083   .     S
C431   H447    1.112   .     S
C431   H446    1.111   .     S
C432   H444    1.111   .     S
C432   H443    1.110   .     S
C432   H445    1.111   .     S
C432   C77     1.529   1_565 S
C433   H453    1.076   .     S
C433   C956    1.391   1_554 S
C433   C965    1.418   1_554 S
C434   C435    1.422   .     A
C434   C964    1.418   .     S
C434   C967    1.426   .     S
C435   C439    1.409   .     A
C436   C965    1.426   1_554 S
C436   C968    1.426   1_554 S
C437   C438    1.395   .     A
C437   C959    1.402   .     S
C437   C967    1.426   .     S
C438   F440    1.359   .     S
C438   C439    1.383   .     A
C439   H455    1.080   .     S
H448   C479    1.086   .     S
H449   C68     1.087   1_565 S
H450   C959    1.084   .     S
H454   C956    1.083   1_554 S
O456   Zn472   1.940   .     S
O456   Zn470   1.955   .     S
O456   Zn469   1.957   .     S
O456   Zn471   1.919   .     S
O457   Zn470   1.929   .     S
O458   Zn472   1.943   .     S
O459   Zn471   1.947   .     S
O460   Zn469   1.935   .     S
O461   Zn469   1.931   .     S
O462   Zn472   1.924   .     S
O463   Zn470   1.925   .     S
O464   Zn471   1.937   .     S
O465   Zn472   1.932   .     S
O466   Zn469   1.918   .     S
O467   Zn470   1.932   .     S
O468   Zn471   1.935   .     S
C473   O522    1.277   .     A
C473   O524    1.276   .     A
C473   C479    1.438   .     S
C474   C488    1.392   .     A
C474   H510    1.077   .     S
C474   C495    1.411   .     A
C475   H500    1.084   .     S
C475   C487    1.386   .     A
C475   C488    1.395   .     A
C476   O525    1.273   .     A
C476   O523    1.278   .     A
C476   C478    1.455   .     S
C477   C486    1.474   .     S
C477   C489    1.402   .     A
C477   C494    1.418   .     A
C478   C361    1.335   1_655 S
C478   H383    1.087   1_655 S
C480   C483    1.473   .     S
C480   C127    1.343   1_565 S
C480   C136    1.539   1_565 S
C481   C482    1.441   .     S
C482   O520    1.277   .     A
C482   O526    1.284   .     A
C483   O521    1.281   .     A
C483   O527    1.265   .     A
C484   C489    1.387   .     A
C484   C1023   1.391   .     S
C484   H1044   1.083   .     S
C485   C488    1.449   .     S
C485   O518    1.266   .     A
C485   O516    1.276   .     A
C486   O519    1.284   .     A
C486   O517    1.283   .     A
C487   C1027   1.402   1_554 S
C487   H1040   1.084   1_554 S
C489   H511    1.083   .     S
C490   H506    1.112   .     S
C490   H505    1.111   .     S
C491   H503    1.111   .     S
C491   H502    1.110   .     S
C491   H504    1.111   .     S
C491   C136    1.529   1_565 S
C492   H512    1.076   .     S
C492   C1015   1.391   1_554 S
C492   C1024   1.418   1_554 S
C493   C494    1.422   .     A
C493   C1023   1.418   .     S
C493   C1026   1.426   .     S
C494   C498    1.409   .     A
C495   C1024   1.426   1_554 S
C495   C1027   1.426   1_554 S
C496   C497    1.395   .     A
C496   C1018   1.402   .     S
C496   C1026   1.426   .     S
C497   F499    1.359   .     S
C497   C498    1.383   .     A
C498   H514    1.080   .     S
H507   C361    1.086   1_655 S
H508   C127    1.087   1_565 S
H509   C1018   1.084   .     S
H513   C1015   1.083   1_554 S
O515   Zn531   1.940   .     S
O515   Zn529   1.955   .     S
O515   Zn528   1.957   .     S
O515   Zn530   1.919   .     S
O516   Zn529   1.929   .     S
O517   Zn531   1.943   .     S
O518   Zn530   1.947   .     S
O519   Zn528   1.935   .     S
O520   Zn528   1.931   .     S
O521   Zn531   1.924   .     S
O522   Zn529   1.925   .     S
O523   Zn530   1.937   .     S
O524   Zn531   1.932   .     S
O525   Zn528   1.918   .     S
O526   Zn529   1.932   .     S
O527   Zn530   1.935   .     S
C532   O581    1.277   .     A
C532   O583    1.276   .     A
C532   C538    1.438   .     S
C533   C547    1.392   .     A
C533   H569    1.077   .     S
C533   C554    1.411   .     A
C534   H559    1.084   .     S
C534   C546    1.386   .     A
C534   C547    1.395   .     A
C535   O584    1.273   .     A
C535   O582    1.278   .     A
C535   C537    1.455   .     S
C536   C545    1.474   .     S
C536   C548    1.402   .     A
C536   C553    1.418   .     A
C537   C597    1.335   .     S
C537   H619    1.087   .     S
C538   C655    1.335   1_455 S
C538   H684    1.086   1_455 S
C539   C542    1.473   .     S
C539   C717    1.343   .     S
C539   C726    1.539   .     S
C540   C541    1.441   .     S
C540   C893    1.343   1_545 S
C540   H921    1.087   1_545 S
C541   O579    1.277   .     A
C541   O585    1.284   .     A
C542   O580    1.281   .     A
C542   O586    1.265   .     A
C543   C548    1.387   .     A
C543   C20     1.391   1_556 S
C543   H41     1.083   1_556 S
C544   C547    1.449   .     S
C544   O577    1.266   .     A
C544   O575    1.276   .     A
C545   O578    1.284   .     A
C545   O576    1.283   .     A
C548   H570    1.083   .     S
C549   H565    1.112   .     S
C549   H564    1.111   .     S
C549   C893    1.539   1_545 S
C549   C904    1.529   1_545 S
C550   H562    1.111   .     S
C550   H561    1.110   .     S
C550   H563    1.111   .     S
C550   C726    1.529   .     S
C551   H571    1.076   .     S
C552   C553    1.422   .     A
C552   C20     1.418   1_556 S
C552   C23     1.426   1_556 S
C553   C557    1.409   .     A
C555   C556    1.395   .     A
C555   C15     1.402   1_556 S
C555   C23     1.426   1_556 S
C556   F558    1.359   .     S
C556   C557    1.383   .     A
C557   H573    1.080   .     S
H560   C655    1.087   1_455 S
H566   C597    1.086   .     S
H567   C717    1.087   .     S
H568   C15     1.084   1_556 S
O574   Zn590   1.940   .     S
O574   Zn588   1.955   .     S
O574   Zn587   1.957   .     S
O574   Zn589   1.919   .     S
O575   Zn588   1.929   .     S
O576   Zn590   1.943   .     S
O577   Zn589   1.947   .     S
O578   Zn587   1.935   .     S
O579   Zn587   1.931   .     S
O580   Zn590   1.924   .     S
O581   Zn588   1.925   .     S
O582   Zn589   1.937   .     S
O583   Zn590   1.932   .     S
O584   Zn587   1.918   .     S
O585   Zn588   1.932   .     S
O586   Zn589   1.935   .     S
C591   O640    1.277   .     A
C591   O642    1.276   .     A
C591   C597    1.438   .     S
C592   C606    1.392   .     A
C592   H628    1.077   .     S
C592   C613    1.411   .     A
C593   H618    1.084   .     S
C593   C605    1.386   .     A
C593   C606    1.395   .     A
C594   O643    1.273   .     A
C594   O641    1.278   .     A
C594   C596    1.455   .     S
C595   C604    1.474   .     S
C595   C607    1.402   .     A
C595   C612    1.418   .     A
C596   C656    1.335   .     S
C596   H678    1.087   .     S
C598   C601    1.473   .     S
C598   C776    1.343   .     S
C598   C785    1.539   .     S
C599   C600    1.441   .     S
C599   C952    1.343   1_545 S
C599   H980    1.087   1_545 S
C600   O638    1.277   .     A
C600   O644    1.284   .     A
C601   O639    1.281   .     A
C601   O645    1.265   .     A
C602   C607    1.387   .     A
C602   C79     1.391   1_556 S
C602   H100    1.083   1_556 S
C603   C606    1.449   .     S
C603   O636    1.266   .     A
C603   O634    1.276   .     A
C604   O637    1.284   .     A
C604   O635    1.283   .     A
C607   H629    1.083   .     S
C608   H624    1.112   .     S
C608   H623    1.111   .     S
C608   C952    1.539   1_545 S
C608   C963    1.529   1_545 S
C609   H621    1.111   .     S
C609   H620    1.110   .     S
C609   H622    1.111   .     S
C609   C785    1.529   .     S
C610   H630    1.076   .     S
C611   C612    1.422   .     A
C611   C79     1.418   1_556 S
C611   C82     1.426   1_556 S
C612   C616    1.409   .     A
C614   C615    1.395   .     A
C614   C74     1.402   1_556 S
C614   C82     1.426   1_556 S
C615   F617    1.359   .     S
C615   C616    1.383   .     A
C616   H632    1.080   .     S
H625   C656    1.086   .     S
H626   C776    1.087   .     S
H627   C74     1.084   1_556 S
O633   Zn649   1.940   .     S
O633   Zn647   1.955   .     S
O633   Zn646   1.957   .     S
O633   Zn648   1.919   .     S
O634   Zn647   1.929   .     S
O635   Zn649   1.943   .     S
O636   Zn648   1.947   .     S
O637   Zn646   1.935   .     S
O638   Zn646   1.931   .     S
O639   Zn649   1.924   .     S
O640   Zn647   1.925   .     S
O641   Zn648   1.937   .     S
O642   Zn649   1.932   .     S
O643   Zn646   1.918   .     S
O644   Zn647   1.932   .     S
O645   Zn648   1.935   .     S
C650   O699    1.277   .     A
C650   O701    1.276   .     A
C650   C656    1.438   .     S
C651   C665    1.392   .     A
C651   H687    1.077   .     S
C651   C672    1.411   .     A
C652   H677    1.084   .     S
C652   C664    1.386   .     A
C652   C665    1.395   .     A
C653   O702    1.273   .     A
C653   O700    1.278   .     A
C653   C655    1.455   .     S
C654   C663    1.474   .     S
C654   C666    1.402   .     A
C654   C671    1.418   .     A
C655   C538    1.335   1_655 S
C655   H560    1.087   1_655 S
C657   C660    1.473   .     S
C657   C835    1.343   .     S
C657   C844    1.539   .     S
C658   C659    1.441   .     S
C658   C1011   1.343   1_545 S
C658   H1039   1.087   1_545 S
C659   O697    1.277   .     A
C659   O703    1.284   .     A
C660   O698    1.281   .     A
C660   O704    1.265   .     A
C661   C666    1.387   .     A
C661   C138    1.391   1_556 S
C661   H159    1.083   1_556 S
C662   C665    1.449   .     S
C662   O695    1.266   .     A
C662   O693    1.276   .     A
C663   O696    1.284   .     A
C663   O694    1.283   .     A
C666   H688    1.083   .     S
C667   H683    1.112   .     S
C667   H682    1.111   .     S
C667   C1011   1.539   1_545 S
C667   C1022   1.529   1_545 S
C668   H680    1.111   .     S
C668   H679    1.110   .     S
C668   H681    1.111   .     S
C668   C844    1.529   .     S
C669   H689    1.076   .     S
C670   C671    1.422   .     A
C670   C138    1.418   1_556 S
C670   C141    1.426   1_556 S
C671   C675    1.409   .     A
C673   C674    1.395   .     A
C673   C133    1.402   1_556 S
C673   C141    1.426   1_556 S
C674   F676    1.359   .     S
C674   C675    1.383   .     A
C675   H691    1.080   .     S
H684   C538    1.086   1_655 S
H685   C835    1.087   .     S
H686   C133    1.084   1_556 S
O692   Zn708   1.940   .     S
O692   Zn706   1.955   .     S
O692   Zn705   1.957   .     S
O692   Zn707   1.919   .     S
O693   Zn706   1.929   .     S
O694   Zn708   1.943   .     S
O695   Zn707   1.947   .     S
O696   Zn705   1.935   .     S
O697   Zn705   1.931   .     S
O698   Zn708   1.924   .     S
O699   Zn706   1.925   .     S
O700   Zn707   1.937   .     S
O701   Zn708   1.932   .     S
O702   Zn705   1.918   .     S
O703   Zn706   1.932   .     S
O704   Zn707   1.935   .     S
C709   O758    1.277   .     A
C709   O760    1.276   .     A
C709   C715    1.438   .     S
C710   C724    1.392   .     A
C710   H746    1.077   .     S
C710   C731    1.411   .     A
C711   H736    1.084   .     S
C711   C723    1.386   .     A
C711   C724    1.395   .     A
C712   O761    1.273   .     A
C712   O759    1.278   .     A
C712   C714    1.455   .     S
C713   C722    1.474   .     S
C713   C725    1.402   .     A
C713   C730    1.418   .     A
C714   C774    1.335   .     S
C714   H796    1.087   .     S
C715   C832    1.335   1_455 S
C715   H861    1.086   1_455 S
C716   C719    1.473   .     S
C716   C894    1.343   .     S
C716   C903    1.539   .     S
C717   C718    1.441   .     S
C718   O756    1.277   .     A
C718   O762    1.284   .     A
C719   O757    1.281   .     A
C719   O763    1.265   .     A
C720   C725    1.387   .     A
C720   C197    1.391   1_556 S
C720   H218    1.083   1_556 S
C721   C724    1.449   .     S
C721   O754    1.266   .     A
C721   O752    1.276   .     A
C722   O755    1.284   .     A
C722   O753    1.283   .     A
C725   H747    1.083   .     S
C726   H742    1.112   .     S
C726   H741    1.111   .     S
C727   H739    1.111   .     S
C727   H738    1.110   .     S
C727   H740    1.111   .     S
C727   C903    1.529   .     S
C728   H748    1.076   .     S
C729   C730    1.422   .     A
C729   C197    1.418   1_556 S
C729   C200    1.426   1_556 S
C730   C734    1.409   .     A
C732   C733    1.395   .     A
C732   C192    1.402   1_556 S
C732   C200    1.426   1_556 S
C733   F735    1.359   .     S
C733   C734    1.383   .     A
C734   H750    1.080   .     S
H737   C832    1.087   1_455 S
H743   C774    1.086   .     S
H744   C894    1.087   .     S
H745   C192    1.084   1_556 S
O751   Zn767   1.940   .     S
O751   Zn765   1.955   .     S
O751   Zn764   1.957   .     S
O751   Zn766   1.919   .     S
O752   Zn765   1.929   .     S
O753   Zn767   1.943   .     S
O754   Zn766   1.947   .     S
O755   Zn764   1.935   .     S
O756   Zn764   1.931   .     S
O757   Zn767   1.924   .     S
O758   Zn765   1.925   .     S
O759   Zn766   1.937   .     S
O760   Zn767   1.932   .     S
O761   Zn764   1.918   .     S
O762   Zn765   1.932   .     S
O763   Zn766   1.935   .     S
C768   O817    1.277   .     A
C768   O819    1.276   .     A
C768   C774    1.438   .     S
C769   C783    1.392   .     A
C769   H805    1.077   .     S
C769   C790    1.411   .     A
C770   H795    1.084   .     S
C770   C782    1.386   .     A
C770   C783    1.395   .     A
C771   O820    1.273   .     A
C771   O818    1.278   .     A
C771   C773    1.455   .     S
C772   C781    1.474   .     S
C772   C784    1.402   .     A
C772   C789    1.418   .     A
C773   C833    1.335   .     S
C773   H855    1.087   .     S
C775   C778    1.473   .     S
C775   C953    1.343   .     S
C775   C962    1.539   .     S
C776   C777    1.441   .     S
C777   O815    1.277   .     A
C777   O821    1.284   .     A
C778   O816    1.281   .     A
C778   O822    1.265   .     A
C779   C784    1.387   .     A
C779   C256    1.391   1_556 S
C779   H277    1.083   1_556 S
C780   C783    1.449   .     S
C780   O813    1.266   .     A
C780   O811    1.276   .     A
C781   O814    1.284   .     A
C781   O812    1.283   .     A
C784   H806    1.083   .     S
C785   H801    1.112   .     S
C785   H800    1.111   .     S
C786   H798    1.111   .     S
C786   H797    1.110   .     S
C786   H799    1.111   .     S
C786   C962    1.529   .     S
C787   H807    1.076   .     S
C788   C789    1.422   .     A
C788   C256    1.418   1_556 S
C788   C259    1.426   1_556 S
C789   C793    1.409   .     A
C791   C792    1.395   .     A
C791   C251    1.402   1_556 S
C791   C259    1.426   1_556 S
C792   F794    1.359   .     S
C792   C793    1.383   .     A
C793   H809    1.080   .     S
H802   C833    1.086   .     S
H803   C953    1.087   .     S
H804   C251    1.084   1_556 S
O810   Zn826   1.940   .     S
O810   Zn824   1.955   .     S
O810   Zn823   1.957   .     S
O810   Zn825   1.919   .     S
O811   Zn824   1.929   .     S
O812   Zn826   1.943   .     S
O813   Zn825   1.947   .     S
O814   Zn823   1.935   .     S
O815   Zn823   1.931   .     S
O816   Zn826   1.924   .     S
O817   Zn824   1.925   .     S
O818   Zn825   1.937   .     S
O819   Zn826   1.932   .     S
O820   Zn823   1.918   .     S
O821   Zn824   1.932   .     S
O822   Zn825   1.935   .     S
C827   O876    1.277   .     A
C827   O878    1.276   .     A
C827   C833    1.438   .     S
C828   C842    1.392   .     A
C828   H864    1.077   .     S
C828   C849    1.411   .     A
C829   H854    1.084   .     S
C829   C841    1.386   .     A
C829   C842    1.395   .     A
C830   O879    1.273   .     A
C830   O877    1.278   .     A
C830   C832    1.455   .     S
C831   C840    1.474   .     S
C831   C843    1.402   .     A
C831   C848    1.418   .     A
C832   C715    1.335   1_655 S
C832   H737    1.087   1_655 S
C834   C837    1.473   .     S
C834   C1012   1.343   .     S
C834   C1021   1.539   .     S
C835   C836    1.441   .     S
C836   O874    1.277   .     A
C836   O880    1.284   .     A
C837   O875    1.281   .     A
C837   O881    1.265   .     A
C838   C843    1.387   .     A
C838   C315    1.391   1_556 S
C838   H336    1.083   1_556 S
C839   C842    1.449   .     S
C839   O872    1.266   .     A
C839   O870    1.276   .     A
C840   O873    1.284   .     A
C840   O871    1.283   .     A
C843   H865    1.083   .     S
C844   H860    1.112   .     S
C844   H859    1.111   .     S
C845   H857    1.111   .     S
C845   H856    1.110   .     S
C845   H858    1.111   .     S
C845   C1021   1.529   .     S
C846   H866    1.076   .     S
C847   C848    1.422   .     A
C847   C315    1.418   1_556 S
C847   C318    1.426   1_556 S
C848   C852    1.409   .     A
C850   C851    1.395   .     A
C850   C310    1.402   1_556 S
C850   C318    1.426   1_556 S
C851   F853    1.359   .     S
C851   C852    1.383   .     A
C852   H868    1.080   .     S
H861   C715    1.086   1_655 S
H862   C1012   1.087   .     S
H863   C310    1.084   1_556 S
O869   Zn885   1.940   .     S
O869   Zn883   1.955   .     S
O869   Zn882   1.957   .     S
O869   Zn884   1.919   .     S
O870   Zn883   1.929   .     S
O871   Zn885   1.943   .     S
O872   Zn884   1.947   .     S
O873   Zn882   1.935   .     S
O874   Zn882   1.931   .     S
O875   Zn885   1.924   .     S
O876   Zn883   1.925   .     S
O877   Zn884   1.937   .     S
O878   Zn885   1.932   .     S
O879   Zn882   1.918   .     S
O880   Zn883   1.932   .     S
O881   Zn884   1.935   .     S
C886   O935    1.277   .     A
C886   O937    1.276   .     A
C886   C892    1.438   .     S
C887   C901    1.392   .     A
C887   H923    1.077   .     S
C887   C908    1.411   .     A
C888   H913    1.084   .     S
C888   C900    1.386   .     A
C888   C901    1.395   .     A
C889   O938    1.273   .     A
C889   O936    1.278   .     A
C889   C891    1.455   .     S
C890   C899    1.474   .     S
C890   C902    1.402   .     A
C890   C907    1.418   .     A
C891   C951    1.335   .     S
C891   H973    1.087   .     S
C892   C1009   1.335   1_455 S
C892   H1038   1.086   1_455 S
C893   C896    1.473   .     S
C893   C540    1.343   1_565 S
C893   C549    1.539   1_565 S
C894   C895    1.441   .     S
C895   O933    1.277   .     A
C895   O939    1.284   .     A
C896   O934    1.281   .     A
C896   O940    1.265   .     A
C897   C902    1.387   .     A
C897   C374    1.391   1_556 S
C897   H395    1.083   1_556 S
C898   C901    1.449   .     S
C898   O931    1.266   .     A
C898   O929    1.276   .     A
C899   O932    1.284   .     A
C899   O930    1.283   .     A
C902   H924    1.083   .     S
C903   H919    1.112   .     S
C903   H918    1.111   .     S
C904   H916    1.111   .     S
C904   H915    1.110   .     S
C904   H917    1.111   .     S
C904   C549    1.529   1_565 S
C905   H925    1.076   .     S
C906   C907    1.422   .     A
C906   C374    1.418   1_556 S
C906   C377    1.426   1_556 S
C907   C911    1.409   .     A
C909   C910    1.395   .     A
C909   C369    1.402   1_556 S
C909   C377    1.426   1_556 S
C910   F912    1.359   .     S
C910   C911    1.383   .     A
C911   H927    1.080   .     S
H914   C1009   1.087   1_455 S
H920   C951    1.086   .     S
H921   C540    1.087   1_565 S
H922   C369    1.084   1_556 S
O928   Zn944   1.940   .     S
O928   Zn942   1.955   .     S
O928   Zn941   1.957   .     S
O928   Zn943   1.919   .     S
O929   Zn942   1.929   .     S
O930   Zn944   1.943   .     S
O931   Zn943   1.947   .     S
O932   Zn941   1.935   .     S
O933   Zn941   1.931   .     S
O934   Zn944   1.924   .     S
O935   Zn942   1.925   .     S
O936   Zn943   1.937   .     S
O937   Zn944   1.932   .     S
O938   Zn941   1.918   .     S
O939   Zn942   1.932   .     S
O940   Zn943   1.935   .     S
C945   O994    1.277   .     A
C945   O996    1.276   .     A
C945   C951    1.438   .     S
C946   C960    1.392   .     A
C946   H982    1.077   .     S
C946   C967    1.411   .     A
C947   H972    1.084   .     S
C947   C959    1.386   .     A
C947   C960    1.395   .     A
C948   O997    1.273   .     A
C948   O995    1.278   .     A
C948   C950    1.455   .     S
C949   C958    1.474   .     S
C949   C961    1.402   .     A
C949   C966    1.418   .     A
C950   C1010   1.335   .     S
C950   H1032   1.087   .     S
C952   C955    1.473   .     S
C952   C599    1.343   1_565 S
C952   C608    1.539   1_565 S
C953   C954    1.441   .     S
C954   O992    1.277   .     A
C954   O998    1.284   .     A
C955   O993    1.281   .     A
C955   O999    1.265   .     A
C956   C961    1.387   .     A
C956   C433    1.391   1_556 S
C956   H454    1.083   1_556 S
C957   C960    1.449   .     S
C957   O990    1.266   .     A
C957   O988    1.276   .     A
C958   O991    1.284   .     A
C958   O989    1.283   .     A
C961   H983    1.083   .     S
C962   H978    1.112   .     S
C962   H977    1.111   .     S
C963   H975    1.111   .     S
C963   H974    1.110   .     S
C963   H976    1.111   .     S
C963   C608    1.529   1_565 S
C964   H984    1.076   .     S
C965   C966    1.422   .     A
C965   C433    1.418   1_556 S
C965   C436    1.426   1_556 S
C966   C970    1.409   .     A
C968   C969    1.395   .     A
C968   C428    1.402   1_556 S
C968   C436    1.426   1_556 S
C969   F971    1.359   .     S
C969   C970    1.383   .     A
C970   H986    1.080   .     S
H979   C1010   1.086   .     S
H980   C599    1.087   1_565 S
H981   C428    1.084   1_556 S
O987   Zn1003  1.940   .     S
O987   Zn1001  1.955   .     S
O987   Zn1000  1.957   .     S
O987   Zn1002  1.919   .     S
O988   Zn1001  1.929   .     S
O989   Zn1003  1.943   .     S
O990   Zn1002  1.947   .     S
O991   Zn1000  1.935   .     S
O992   Zn1000  1.931   .     S
O993   Zn1003  1.924   .     S
O994   Zn1001  1.925   .     S
O995   Zn1002  1.937   .     S
O996   Zn1003  1.932   .     S
O997   Zn1000  1.918   .     S
O998   Zn1001  1.932   .     S
O999   Zn1002  1.935   .     S
C1004  O1053   1.277   .     A
C1004  O1055   1.276   .     A
C1004  C1010   1.438   .     S
C1005  C1019   1.392   .     A
C1005  H1041   1.077   .     S
C1005  C1026   1.411   .     A
C1006  H1031   1.084   .     S
C1006  C1018   1.386   .     A
C1006  C1019   1.395   .     A
C1007  O1056   1.273   .     A
C1007  O1054   1.278   .     A
C1007  C1009   1.455   .     S
C1008  C1017   1.474   .     S
C1008  C1020   1.402   .     A
C1008  C1025   1.418   .     A
C1009  C892    1.335   1_655 S
C1009  H914    1.087   1_655 S
C1011  C1014   1.473   .     S
C1011  C658    1.343   1_565 S
C1011  C667    1.539   1_565 S
C1012  C1013   1.441   .     S
C1013  O1051   1.277   .     A
C1013  O1057   1.284   .     A
C1014  O1052   1.281   .     A
C1014  O1058   1.265   .     A
C1015  C1020   1.387   .     A
C1015  C492    1.391   1_556 S
C1015  H513    1.083   1_556 S
C1016  C1019   1.449   .     S
C1016  O1049   1.266   .     A
C1016  O1047   1.276   .     A
C1017  O1050   1.284   .     A
C1017  O1048   1.283   .     A
C1020  H1042   1.083   .     S
C1021  H1037   1.112   .     S
C1021  H1036   1.111   .     S
C1022  H1034   1.111   .     S
C1022  H1033   1.110   .     S
C1022  H1035   1.111   .     S
C1022  C667    1.529   1_565 S
C1023  H1043   1.076   .     S
C1024  C1025   1.422   .     A
C1024  C492    1.418   1_556 S
C1024  C495    1.426   1_556 S
C1025  C1029   1.409   .     A
C1027  C1028   1.395   .     A
C1027  C487    1.402   1_556 S
C1027  C495    1.426   1_556 S
C1028  F1030   1.359   .     S
C1028  C1029   1.383   .     A
C1029  H1045   1.080   .     S
H1038  C892    1.086   1_655 S
H1039  C658    1.087   1_565 S
H1040  C487    1.084   1_556 S
O1046  Zn1062  1.940   .     S
O1046  Zn1060  1.955   .     S
O1046  Zn1059  1.957   .     S
O1046  Zn1061  1.919   .     S
O1047  Zn1060  1.929   .     S
O1048  Zn1062  1.943   .     S
O1049  Zn1061  1.947   .     S
O1050  Zn1059  1.935   .     S
O1051  Zn1059  1.931   .     S
O1052  Zn1062  1.924   .     S
O1053  Zn1060  1.925   .     S
O1054  Zn1061  1.937   .     S
O1055  Zn1062  1.932   .     S
O1056  Zn1059  1.918   .     S
O1057  Zn1060  1.932   .     S
O1058  Zn1061  1.935   .     S
