data_str_m1_o10_o16_pcu_sym.192
_audit_creation_date              2020-01-03
_audit_creation_method            'Materials Studio'
_symmetry_space_group_name_H-M    'P1'
_symmetry_Int_Tables_number       1
_symmetry_cell_setting            triclinic
loop_
_symmetry_equiv_pos_as_xyz
  x,y,z
_cell_length_a                    32.6803
_cell_length_b                    32.5149
_cell_length_c                    30.9135
_cell_angle_alpha                 95.8349
_cell_angle_beta                  74.4941
_cell_angle_gamma                 98.2464
loop_
_atom_site_label
_atom_site_type_symbol
_atom_site_fract_x
_atom_site_fract_y
_atom_site_fract_z
_atom_site_U_iso_or_equiv
_atom_site_adp_type
_atom_site_occupancy
C1     C     0.05313   0.16026   0.25953   0.00000  Uiso   1.00
C2     C     0.16660   0.15028   0.05834   0.00000  Uiso   1.00
C3     C     0.23782   0.13541   0.05586   0.00000  Uiso   1.00
C4     C     0.28077   0.17368   0.24021   0.00000  Uiso   1.00
C5     C     0.13556   0.18624   0.42083   0.00000  Uiso   1.00
C6     C     0.32634   0.17469   0.23599   0.00000  Uiso   1.00
C7     C     0.00792   0.15754   0.26573   0.00000  Uiso   1.00
C8     C     0.18107   0.32262   0.23577   0.00000  Uiso   1.00
C9     C     0.15277   0.01185   0.26390   0.00000  Uiso   1.00
C10    C     0.15600   0.05598   0.26061   0.00000  Uiso   1.00
C11    C     0.17677   0.27799   0.24002   0.00000  Uiso   1.00
C12    C     0.07615   0.16909   0.48509   0.00000  Uiso   1.00
C13    C     0.18584   0.14827   0.12927   0.00000  Uiso   1.00
C14    C     0.14819   0.18431   0.37111   0.00000  Uiso   1.00
C15    C     0.25057   0.14137   0.01001   0.00000  Uiso   1.00
C16    C     0.19609   0.14176   0.08045   0.00000  Uiso   1.00
C17    C     0.09166   0.18555   0.44331   0.00000  Uiso   1.00
C18    C     0.10323   0.15383   0.00574   0.00000  Uiso   1.00
C19    C     0.14840   0.16166   0.48817   0.00000  Uiso   1.00
C20    C     0.16476   0.17803   0.44482   0.00000  Uiso   1.00
C21    C     0.17794   0.15313   0.01151   0.00000  Uiso   1.00
C22    C     0.22163   0.15269   0.48842   0.00000  Uiso   1.00
C23    C     0.23701   0.16819   0.44604   0.00000  Uiso   1.00
C24    C     0.20987   0.18450   0.42635   0.00000  Uiso   1.00
Cl25   Cl    0.27595   0.12384   0.08229   0.00000  Uiso   1.00
Cl26   Cl    0.31017   0.13572   0.31617   0.00000  Uiso   1.00
Cl27   Cl    0.22367   0.01226   0.19342   0.00000  Uiso   1.00
Cl28   Cl    0.05291   0.19842   0.41827   0.00000  Uiso   1.00
Cl29   Cl    0.23528   0.21802   0.38281   0.00000  Uiso   1.00
H30    H     0.12661   0.33117   0.28991   0.00000  Uiso   1.00
H31    H     0.27110   0.17161   0.43022   0.00000  Uiso   1.00
H32    H     0.28372   0.13972   0.49194   0.00000  Uiso   1.00
H33    H     0.13662   0.15963   0.07870   0.00000  Uiso   1.00
H34    H     0.04189   0.16444   0.49967   0.00000  Uiso   1.00
H35    H     0.01530   0.18953   0.20746   0.00000  Uiso   1.00
I36    I     0.07037   0.10985   0.05425   0.00000  Uiso   1.00
O37    O     0.16667   0.16667   0.25000   0.00000  Uiso   1.00
O38    O     0.15451   0.12637   0.15459   0.00000  Uiso   1.00
O39    O     0.12940   0.20391   0.34968   0.00000  Uiso   1.00
O40    O     0.20824   0.17759   0.14606   0.00000  Uiso   1.00
O41    O     0.17451   0.15880   0.34968   0.00000  Uiso   1.00
O42    O     0.17930   0.08019   0.28214   0.00000  Uiso   1.00
O43    O     0.14632   0.26085   0.27014   0.00000  Uiso   1.00
O44    O     0.07412   0.13291   0.23413   0.00000  Uiso   1.00
O45    O     0.26693   0.19272   0.21361   0.00000  Uiso   1.00
O46    O     0.07071   0.18878   0.28213   0.00000  Uiso   1.00
O47    O     0.25491   0.15226   0.27014   0.00000  Uiso   1.00
O48    O     0.13760   0.06944   0.23413   0.00000  Uiso   1.00
O49    O     0.20345   0.25620   0.21361   0.00000  Uiso   1.00
Zn50   Zn    0.19338   0.13994   0.28734   0.00000  Uiso   1.00
Zn51   Zn    0.13379   0.12458   0.21876   0.00000  Uiso   1.00
Zn52   Zn    0.21056   0.19775   0.20657   0.00000  Uiso   1.00
Zn53   Zn    0.12893   0.20439   0.28734   0.00000  Uiso   1.00
C54    C     0.38647   0.16026   0.25953   0.00000  Uiso   1.00
C55    C     0.49993   0.15028   0.05834   0.00000  Uiso   1.00
C56    C     0.57115   0.13541   0.05586   0.00000  Uiso   1.00
C57    C     0.61410   0.17368   0.24021   0.00000  Uiso   1.00
C58    C     0.46890   0.18624   0.42083   0.00000  Uiso   1.00
C59    C     0.65967   0.17469   0.23599   0.00000  Uiso   1.00
C60    C     0.34125   0.15754   0.26573   0.00000  Uiso   1.00
C61    C     0.51440   0.32262   0.23577   0.00000  Uiso   1.00
C62    C     0.48611   0.01185   0.26390   0.00000  Uiso   1.00
C63    C     0.48933   0.05598   0.26061   0.00000  Uiso   1.00
C64    C     0.51010   0.27799   0.24002   0.00000  Uiso   1.00
C65    C     0.40948   0.16909   0.48509   0.00000  Uiso   1.00
C66    C     0.51917   0.14827   0.12927   0.00000  Uiso   1.00
C67    C     0.48153   0.18431   0.37111   0.00000  Uiso   1.00
C68    C     0.58390   0.14137   0.01001   0.00000  Uiso   1.00
C69    C     0.52942   0.14176   0.08045   0.00000  Uiso   1.00
C70    C     0.42499   0.18555   0.44331   0.00000  Uiso   1.00
C71    C     0.43656   0.15383   0.00574   0.00000  Uiso   1.00
C72    C     0.48173   0.16166   0.48817   0.00000  Uiso   1.00
C73    C     0.49810   0.17803   0.44482   0.00000  Uiso   1.00
C74    C     0.51127   0.15313   0.01151   0.00000  Uiso   1.00
C75    C     0.55496   0.15269   0.48842   0.00000  Uiso   1.00
C76    C     0.57034   0.16819   0.44604   0.00000  Uiso   1.00
C77    C     0.54320   0.18450   0.42635   0.00000  Uiso   1.00
Cl78   Cl    0.60928   0.12384   0.08229   0.00000  Uiso   1.00
Cl79   Cl    0.64350   0.13572   0.31617   0.00000  Uiso   1.00
Cl80   Cl    0.55701   0.01226   0.19342   0.00000  Uiso   1.00
Cl81   Cl    0.38625   0.19842   0.41827   0.00000  Uiso   1.00
Cl82   Cl    0.56862   0.21802   0.38281   0.00000  Uiso   1.00
H83    H     0.45994   0.33117   0.28991   0.00000  Uiso   1.00
H84    H     0.60443   0.17161   0.43022   0.00000  Uiso   1.00
H85    H     0.61705   0.13972   0.49194   0.00000  Uiso   1.00
H86    H     0.46995   0.15963   0.07870   0.00000  Uiso   1.00
H87    H     0.37522   0.16444   0.49967   0.00000  Uiso   1.00
H88    H     0.34863   0.18953   0.20746   0.00000  Uiso   1.00
I89    I     0.40370   0.10985   0.05425   0.00000  Uiso   1.00
O90    O     0.50000   0.16667   0.25000   0.00000  Uiso   1.00
O91    O     0.48784   0.12637   0.15459   0.00000  Uiso   1.00
O92    O     0.46274   0.20391   0.34968   0.00000  Uiso   1.00
O93    O     0.54157   0.17759   0.14606   0.00000  Uiso   1.00
O94    O     0.50785   0.15880   0.34968   0.00000  Uiso   1.00
O95    O     0.51264   0.08019   0.28214   0.00000  Uiso   1.00
O96    O     0.47965   0.26085   0.27014   0.00000  Uiso   1.00
O97    O     0.40745   0.13291   0.23413   0.00000  Uiso   1.00
O98    O     0.60026   0.19272   0.21361   0.00000  Uiso   1.00
O99    O     0.40405   0.18878   0.28213   0.00000  Uiso   1.00
O100   O     0.58824   0.15226   0.27014   0.00000  Uiso   1.00
O101   O     0.47093   0.06944   0.23413   0.00000  Uiso   1.00
O102   O     0.53678   0.25620   0.21361   0.00000  Uiso   1.00
Zn103  Zn    0.52672   0.13994   0.28734   0.00000  Uiso   1.00
Zn104  Zn    0.46713   0.12458   0.21876   0.00000  Uiso   1.00
Zn105  Zn    0.54389   0.19775   0.20657   0.00000  Uiso   1.00
Zn106  Zn    0.46226   0.20439   0.28734   0.00000  Uiso   1.00
C107   C     0.71980   0.16026   0.25953   0.00000  Uiso   1.00
C108   C     0.83326   0.15028   0.05834   0.00000  Uiso   1.00
C109   C     0.90448   0.13541   0.05586   0.00000  Uiso   1.00
C110   C     0.94744   0.17368   0.24021   0.00000  Uiso   1.00
C111   C     0.80223   0.18624   0.42083   0.00000  Uiso   1.00
C112   C     0.99300   0.17469   0.23599   0.00000  Uiso   1.00
C113   C     0.67459   0.15754   0.26573   0.00000  Uiso   1.00
C114   C     0.84774   0.32262   0.23577   0.00000  Uiso   1.00
C115   C     0.81944   0.01185   0.26390   0.00000  Uiso   1.00
C116   C     0.82267   0.05598   0.26061   0.00000  Uiso   1.00
C117   C     0.84343   0.27799   0.24002   0.00000  Uiso   1.00
C118   C     0.74282   0.16909   0.48509   0.00000  Uiso   1.00
C119   C     0.85250   0.14827   0.12927   0.00000  Uiso   1.00
C120   C     0.81486   0.18431   0.37111   0.00000  Uiso   1.00
C121   C     0.91723   0.14137   0.01001   0.00000  Uiso   1.00
C122   C     0.86275   0.14176   0.08045   0.00000  Uiso   1.00
C123   C     0.75833   0.18555   0.44331   0.00000  Uiso   1.00
C124   C     0.76990   0.15383   0.00574   0.00000  Uiso   1.00
C125   C     0.81507   0.16166   0.48817   0.00000  Uiso   1.00
C126   C     0.83143   0.17803   0.44482   0.00000  Uiso   1.00
C127   C     0.84461   0.15313   0.01151   0.00000  Uiso   1.00
C128   C     0.88830   0.15269   0.48842   0.00000  Uiso   1.00
C129   C     0.90368   0.16819   0.44604   0.00000  Uiso   1.00
C130   C     0.87654   0.18450   0.42635   0.00000  Uiso   1.00
Cl131  Cl    0.94262   0.12384   0.08229   0.00000  Uiso   1.00
Cl132  Cl    0.97684   0.13572   0.31617   0.00000  Uiso   1.00
Cl133  Cl    0.89034   0.01226   0.19342   0.00000  Uiso   1.00
Cl134  Cl    0.71958   0.19842   0.41827   0.00000  Uiso   1.00
Cl135  Cl    0.90195   0.21802   0.38281   0.00000  Uiso   1.00
H136   H     0.79328   0.33117   0.28991   0.00000  Uiso   1.00
H137   H     0.93776   0.17161   0.43022   0.00000  Uiso   1.00
H138   H     0.95039   0.13972   0.49194   0.00000  Uiso   1.00
H139   H     0.80329   0.15963   0.07870   0.00000  Uiso   1.00
H140   H     0.70856   0.16444   0.49967   0.00000  Uiso   1.00
H141   H     0.68196   0.18953   0.20746   0.00000  Uiso   1.00
I142   I     0.73704   0.10985   0.05425   0.00000  Uiso   1.00
O143   O     0.83333   0.16667   0.25000   0.00000  Uiso   1.00
O144   O     0.82118   0.12637   0.15459   0.00000  Uiso   1.00
O145   O     0.79607   0.20391   0.34968   0.00000  Uiso   1.00
O146   O     0.87491   0.17759   0.14606   0.00000  Uiso   1.00
O147   O     0.84118   0.15880   0.34968   0.00000  Uiso   1.00
O148   O     0.84597   0.08019   0.28214   0.00000  Uiso   1.00
O149   O     0.81298   0.26085   0.27014   0.00000  Uiso   1.00
O150   O     0.74078   0.13291   0.23413   0.00000  Uiso   1.00
O151   O     0.93360   0.19272   0.21361   0.00000  Uiso   1.00
O152   O     0.73738   0.18878   0.28213   0.00000  Uiso   1.00
O153   O     0.92158   0.15226   0.27014   0.00000  Uiso   1.00
O154   O     0.80426   0.06944   0.23413   0.00000  Uiso   1.00
O155   O     0.87012   0.25620   0.21361   0.00000  Uiso   1.00
Zn156  Zn    0.86005   0.13994   0.28734   0.00000  Uiso   1.00
Zn157  Zn    0.80046   0.12458   0.21876   0.00000  Uiso   1.00
Zn158  Zn    0.87723   0.19775   0.20657   0.00000  Uiso   1.00
Zn159  Zn    0.79560   0.20439   0.28734   0.00000  Uiso   1.00
C160   C     0.05313   0.49360   0.25953   0.00000  Uiso   1.00
C161   C     0.16660   0.48361   0.05834   0.00000  Uiso   1.00
C162   C     0.23782   0.46874   0.05586   0.00000  Uiso   1.00
C163   C     0.28077   0.50702   0.24021   0.00000  Uiso   1.00
C164   C     0.13556   0.51957   0.42083   0.00000  Uiso   1.00
C165   C     0.32634   0.50803   0.23599   0.00000  Uiso   1.00
C166   C     0.00792   0.49087   0.26573   0.00000  Uiso   1.00
C167   C     0.18107   0.65596   0.23577   0.00000  Uiso   1.00
C168   C     0.15277   0.34518   0.26390   0.00000  Uiso   1.00
C169   C     0.15600   0.38931   0.26061   0.00000  Uiso   1.00
C170   C     0.17677   0.61132   0.24002   0.00000  Uiso   1.00
C171   C     0.07615   0.50242   0.48509   0.00000  Uiso   1.00
C172   C     0.18584   0.48160   0.12927   0.00000  Uiso   1.00
C173   C     0.14819   0.51764   0.37111   0.00000  Uiso   1.00
C174   C     0.25057   0.47470   0.01001   0.00000  Uiso   1.00
C175   C     0.19609   0.47509   0.08045   0.00000  Uiso   1.00
C176   C     0.09166   0.51888   0.44331   0.00000  Uiso   1.00
C177   C     0.10323   0.48716   0.00574   0.00000  Uiso   1.00
C178   C     0.14840   0.49499   0.48817   0.00000  Uiso   1.00
C179   C     0.16476   0.51136   0.44482   0.00000  Uiso   1.00
C180   C     0.17794   0.48647   0.01151   0.00000  Uiso   1.00
C181   C     0.22163   0.48602   0.48842   0.00000  Uiso   1.00
C182   C     0.23701   0.50153   0.44604   0.00000  Uiso   1.00
C183   C     0.20987   0.51783   0.42635   0.00000  Uiso   1.00
Cl184  Cl    0.27595   0.45717   0.08229   0.00000  Uiso   1.00
Cl185  Cl    0.31017   0.46905   0.31617   0.00000  Uiso   1.00
Cl186  Cl    0.22367   0.34559   0.19342   0.00000  Uiso   1.00
Cl187  Cl    0.05291   0.53175   0.41827   0.00000  Uiso   1.00
Cl188  Cl    0.23528   0.55135   0.38281   0.00000  Uiso   1.00
H189   H     0.12661   0.66451   0.28991   0.00000  Uiso   1.00
H190   H     0.27110   0.50495   0.43022   0.00000  Uiso   1.00
H191   H     0.28372   0.47305   0.49194   0.00000  Uiso   1.00
H192   H     0.13662   0.49296   0.07870   0.00000  Uiso   1.00
H193   H     0.04189   0.49777   0.49967   0.00000  Uiso   1.00
H194   H     0.01530   0.52286   0.20746   0.00000  Uiso   1.00
I195   I     0.07037   0.44318   0.05425   0.00000  Uiso   1.00
O196   O     0.16667   0.50000   0.25000   0.00000  Uiso   1.00
O197   O     0.15451   0.45970   0.15459   0.00000  Uiso   1.00
O198   O     0.12940   0.53724   0.34968   0.00000  Uiso   1.00
O199   O     0.20824   0.51092   0.14606   0.00000  Uiso   1.00
O200   O     0.17451   0.49213   0.34968   0.00000  Uiso   1.00
O201   O     0.17930   0.41352   0.28214   0.00000  Uiso   1.00
O202   O     0.14632   0.59418   0.27014   0.00000  Uiso   1.00
O203   O     0.07412   0.46625   0.23413   0.00000  Uiso   1.00
O204   O     0.26693   0.52605   0.21361   0.00000  Uiso   1.00
O205   O     0.07071   0.52211   0.28213   0.00000  Uiso   1.00
O206   O     0.25491   0.48559   0.27014   0.00000  Uiso   1.00
O207   O     0.13760   0.40277   0.23413   0.00000  Uiso   1.00
O208   O     0.20345   0.58953   0.21361   0.00000  Uiso   1.00
Zn209  Zn    0.19338   0.47327   0.28734   0.00000  Uiso   1.00
Zn210  Zn    0.13379   0.45791   0.21876   0.00000  Uiso   1.00
Zn211  Zn    0.21056   0.53109   0.20657   0.00000  Uiso   1.00
Zn212  Zn    0.12893   0.53773   0.28734   0.00000  Uiso   1.00
C213   C     0.38647   0.49360   0.25953   0.00000  Uiso   1.00
C214   C     0.49993   0.48361   0.05834   0.00000  Uiso   1.00
C215   C     0.57115   0.46874   0.05586   0.00000  Uiso   1.00
C216   C     0.61410   0.50702   0.24021   0.00000  Uiso   1.00
C217   C     0.46890   0.51957   0.42083   0.00000  Uiso   1.00
C218   C     0.65967   0.50803   0.23599   0.00000  Uiso   1.00
C219   C     0.34125   0.49087   0.26573   0.00000  Uiso   1.00
C220   C     0.51440   0.65596   0.23577   0.00000  Uiso   1.00
C221   C     0.48611   0.34518   0.26390   0.00000  Uiso   1.00
C222   C     0.48933   0.38931   0.26061   0.00000  Uiso   1.00
C223   C     0.51010   0.61132   0.24002   0.00000  Uiso   1.00
C224   C     0.40948   0.50242   0.48509   0.00000  Uiso   1.00
C225   C     0.51917   0.48160   0.12927   0.00000  Uiso   1.00
C226   C     0.48153   0.51764   0.37111   0.00000  Uiso   1.00
C227   C     0.58390   0.47470   0.01001   0.00000  Uiso   1.00
C228   C     0.52942   0.47509   0.08045   0.00000  Uiso   1.00
C229   C     0.42499   0.51888   0.44331   0.00000  Uiso   1.00
C230   C     0.43656   0.48716   0.00574   0.00000  Uiso   1.00
C231   C     0.48173   0.49499   0.48817   0.00000  Uiso   1.00
C232   C     0.49810   0.51136   0.44482   0.00000  Uiso   1.00
C233   C     0.51127   0.48647   0.01151   0.00000  Uiso   1.00
C234   C     0.55496   0.48602   0.48842   0.00000  Uiso   1.00
C235   C     0.57034   0.50153   0.44604   0.00000  Uiso   1.00
C236   C     0.54320   0.51783   0.42635   0.00000  Uiso   1.00
Cl237  Cl    0.60928   0.45717   0.08229   0.00000  Uiso   1.00
Cl238  Cl    0.64350   0.46905   0.31617   0.00000  Uiso   1.00
Cl239  Cl    0.55701   0.34559   0.19342   0.00000  Uiso   1.00
Cl240  Cl    0.38625   0.53175   0.41827   0.00000  Uiso   1.00
Cl241  Cl    0.56862   0.55135   0.38281   0.00000  Uiso   1.00
H242   H     0.45994   0.66451   0.28991   0.00000  Uiso   1.00
H243   H     0.60443   0.50495   0.43022   0.00000  Uiso   1.00
H244   H     0.61705   0.47305   0.49194   0.00000  Uiso   1.00
H245   H     0.46995   0.49296   0.07870   0.00000  Uiso   1.00
H246   H     0.37522   0.49777   0.49967   0.00000  Uiso   1.00
H247   H     0.34863   0.52286   0.20746   0.00000  Uiso   1.00
I248   I     0.40370   0.44318   0.05425   0.00000  Uiso   1.00
O249   O     0.50000   0.50000   0.25000   0.00000  Uiso   1.00
O250   O     0.48784   0.45970   0.15459   0.00000  Uiso   1.00
O251   O     0.46274   0.53724   0.34968   0.00000  Uiso   1.00
O252   O     0.54157   0.51092   0.14606   0.00000  Uiso   1.00
O253   O     0.50785   0.49213   0.34968   0.00000  Uiso   1.00
O254   O     0.51264   0.41352   0.28214   0.00000  Uiso   1.00
O255   O     0.47965   0.59418   0.27014   0.00000  Uiso   1.00
O256   O     0.40745   0.46625   0.23413   0.00000  Uiso   1.00
O257   O     0.60026   0.52605   0.21361   0.00000  Uiso   1.00
O258   O     0.40405   0.52211   0.28213   0.00000  Uiso   1.00
O259   O     0.58824   0.48559   0.27014   0.00000  Uiso   1.00
O260   O     0.47093   0.40277   0.23413   0.00000  Uiso   1.00
O261   O     0.53678   0.58953   0.21361   0.00000  Uiso   1.00
Zn262  Zn    0.52672   0.47327   0.28734   0.00000  Uiso   1.00
Zn263  Zn    0.46713   0.45791   0.21876   0.00000  Uiso   1.00
Zn264  Zn    0.54389   0.53109   0.20657   0.00000  Uiso   1.00
Zn265  Zn    0.46226   0.53773   0.28734   0.00000  Uiso   1.00
C266   C     0.71980   0.49360   0.25953   0.00000  Uiso   1.00
C267   C     0.83326   0.48361   0.05834   0.00000  Uiso   1.00
C268   C     0.90448   0.46874   0.05586   0.00000  Uiso   1.00
C269   C     0.94744   0.50702   0.24021   0.00000  Uiso   1.00
C270   C     0.80223   0.51957   0.42083   0.00000  Uiso   1.00
C271   C     0.99300   0.50803   0.23599   0.00000  Uiso   1.00
C272   C     0.67459   0.49087   0.26573   0.00000  Uiso   1.00
C273   C     0.84774   0.65596   0.23577   0.00000  Uiso   1.00
C274   C     0.81944   0.34518   0.26390   0.00000  Uiso   1.00
C275   C     0.82267   0.38931   0.26061   0.00000  Uiso   1.00
C276   C     0.84343   0.61132   0.24002   0.00000  Uiso   1.00
C277   C     0.74282   0.50242   0.48509   0.00000  Uiso   1.00
C278   C     0.85250   0.48160   0.12927   0.00000  Uiso   1.00
C279   C     0.81486   0.51764   0.37111   0.00000  Uiso   1.00
C280   C     0.91723   0.47470   0.01001   0.00000  Uiso   1.00
C281   C     0.86275   0.47509   0.08045   0.00000  Uiso   1.00
C282   C     0.75833   0.51888   0.44331   0.00000  Uiso   1.00
C283   C     0.76990   0.48716   0.00574   0.00000  Uiso   1.00
C284   C     0.81507   0.49499   0.48817   0.00000  Uiso   1.00
C285   C     0.83143   0.51136   0.44482   0.00000  Uiso   1.00
C286   C     0.84461   0.48647   0.01151   0.00000  Uiso   1.00
C287   C     0.88830   0.48602   0.48842   0.00000  Uiso   1.00
C288   C     0.90368   0.50153   0.44604   0.00000  Uiso   1.00
C289   C     0.87654   0.51783   0.42635   0.00000  Uiso   1.00
Cl290  Cl    0.94262   0.45717   0.08229   0.00000  Uiso   1.00
Cl291  Cl    0.97684   0.46905   0.31617   0.00000  Uiso   1.00
Cl292  Cl    0.89034   0.34559   0.19342   0.00000  Uiso   1.00
Cl293  Cl    0.71958   0.53175   0.41827   0.00000  Uiso   1.00
Cl294  Cl    0.90195   0.55135   0.38281   0.00000  Uiso   1.00
H295   H     0.79328   0.66451   0.28991   0.00000  Uiso   1.00
H296   H     0.93776   0.50495   0.43022   0.00000  Uiso   1.00
H297   H     0.95039   0.47305   0.49194   0.00000  Uiso   1.00
H298   H     0.80329   0.49296   0.07870   0.00000  Uiso   1.00
H299   H     0.70856   0.49777   0.49967   0.00000  Uiso   1.00
H300   H     0.68196   0.52286   0.20746   0.00000  Uiso   1.00
I301   I     0.73704   0.44318   0.05425   0.00000  Uiso   1.00
O302   O     0.83333   0.50000   0.25000   0.00000  Uiso   1.00
O303   O     0.82118   0.45970   0.15459   0.00000  Uiso   1.00
O304   O     0.79607   0.53724   0.34968   0.00000  Uiso   1.00
O305   O     0.87491   0.51092   0.14606   0.00000  Uiso   1.00
O306   O     0.84118   0.49213   0.34968   0.00000  Uiso   1.00
O307   O     0.84597   0.41352   0.28214   0.00000  Uiso   1.00
O308   O     0.81298   0.59418   0.27014   0.00000  Uiso   1.00
O309   O     0.74078   0.46625   0.23413   0.00000  Uiso   1.00
O310   O     0.93360   0.52605   0.21361   0.00000  Uiso   1.00
O311   O     0.73738   0.52211   0.28213   0.00000  Uiso   1.00
O312   O     0.92158   0.48559   0.27014   0.00000  Uiso   1.00
O313   O     0.80426   0.40277   0.23413   0.00000  Uiso   1.00
O314   O     0.87012   0.58953   0.21361   0.00000  Uiso   1.00
Zn315  Zn    0.86005   0.47327   0.28734   0.00000  Uiso   1.00
Zn316  Zn    0.80046   0.45791   0.21876   0.00000  Uiso   1.00
Zn317  Zn    0.87723   0.53109   0.20657   0.00000  Uiso   1.00
Zn318  Zn    0.79560   0.53773   0.28734   0.00000  Uiso   1.00
C319   C     0.05313   0.82693   0.25953   0.00000  Uiso   1.00
C320   C     0.16660   0.81695   0.05834   0.00000  Uiso   1.00
C321   C     0.23782   0.80208   0.05586   0.00000  Uiso   1.00
C322   C     0.28077   0.84035   0.24021   0.00000  Uiso   1.00
C323   C     0.13556   0.85291   0.42083   0.00000  Uiso   1.00
C324   C     0.32634   0.84136   0.23599   0.00000  Uiso   1.00
C325   C     0.00792   0.82420   0.26573   0.00000  Uiso   1.00
C326   C     0.18107   0.98929   0.23577   0.00000  Uiso   1.00
C327   C     0.15277   0.67852   0.26390   0.00000  Uiso   1.00
C328   C     0.15600   0.72265   0.26061   0.00000  Uiso   1.00
C329   C     0.17677   0.94466   0.24002   0.00000  Uiso   1.00
C330   C     0.07615   0.83575   0.48509   0.00000  Uiso   1.00
C331   C     0.18584   0.81494   0.12927   0.00000  Uiso   1.00
C332   C     0.14819   0.85097   0.37111   0.00000  Uiso   1.00
C333   C     0.25057   0.80803   0.01001   0.00000  Uiso   1.00
C334   C     0.19609   0.80842   0.08045   0.00000  Uiso   1.00
C335   C     0.09166   0.85222   0.44331   0.00000  Uiso   1.00
C336   C     0.10323   0.82049   0.00574   0.00000  Uiso   1.00
C337   C     0.14840   0.82833   0.48817   0.00000  Uiso   1.00
C338   C     0.16476   0.84469   0.44482   0.00000  Uiso   1.00
C339   C     0.17794   0.81980   0.01151   0.00000  Uiso   1.00
C340   C     0.22163   0.81935   0.48842   0.00000  Uiso   1.00
C341   C     0.23701   0.83486   0.44604   0.00000  Uiso   1.00
C342   C     0.20987   0.85117   0.42635   0.00000  Uiso   1.00
Cl343  Cl    0.27595   0.79051   0.08229   0.00000  Uiso   1.00
Cl344  Cl    0.31017   0.80239   0.31617   0.00000  Uiso   1.00
Cl345  Cl    0.22367   0.67892   0.19342   0.00000  Uiso   1.00
Cl346  Cl    0.05291   0.86509   0.41827   0.00000  Uiso   1.00
Cl347  Cl    0.23528   0.88469   0.38281   0.00000  Uiso   1.00
H348   H     0.12661   0.99784   0.28991   0.00000  Uiso   1.00
H349   H     0.27110   0.83828   0.43022   0.00000  Uiso   1.00
H350   H     0.28372   0.80638   0.49194   0.00000  Uiso   1.00
H351   H     0.13662   0.82629   0.07870   0.00000  Uiso   1.00
H352   H     0.04189   0.83110   0.49967   0.00000  Uiso   1.00
H353   H     0.01530   0.85620   0.20746   0.00000  Uiso   1.00
I354   I     0.07037   0.77651   0.05425   0.00000  Uiso   1.00
O355   O     0.16667   0.83333   0.25000   0.00000  Uiso   1.00
O356   O     0.15451   0.79304   0.15459   0.00000  Uiso   1.00
O357   O     0.12940   0.87058   0.34968   0.00000  Uiso   1.00
O358   O     0.20824   0.84425   0.14606   0.00000  Uiso   1.00
O359   O     0.17451   0.82546   0.34968   0.00000  Uiso   1.00
O360   O     0.17930   0.74686   0.28214   0.00000  Uiso   1.00
O361   O     0.14632   0.92751   0.27014   0.00000  Uiso   1.00
O362   O     0.07412   0.79958   0.23413   0.00000  Uiso   1.00
O363   O     0.26693   0.85939   0.21361   0.00000  Uiso   1.00
O364   O     0.07071   0.85544   0.28213   0.00000  Uiso   1.00
O365   O     0.25491   0.81892   0.27014   0.00000  Uiso   1.00
O366   O     0.13760   0.73610   0.23413   0.00000  Uiso   1.00
O367   O     0.20345   0.92286   0.21361   0.00000  Uiso   1.00
Zn368  Zn    0.19338   0.80661   0.28734   0.00000  Uiso   1.00
Zn369  Zn    0.13379   0.79124   0.21876   0.00000  Uiso   1.00
Zn370  Zn    0.21056   0.86442   0.20657   0.00000  Uiso   1.00
Zn371  Zn    0.12893   0.87106   0.28734   0.00000  Uiso   1.00
C372   C     0.38647   0.82693   0.25953   0.00000  Uiso   1.00
C373   C     0.49993   0.81695   0.05834   0.00000  Uiso   1.00
C374   C     0.57115   0.80208   0.05586   0.00000  Uiso   1.00
C375   C     0.61410   0.84035   0.24021   0.00000  Uiso   1.00
C376   C     0.46890   0.85291   0.42083   0.00000  Uiso   1.00
C377   C     0.65967   0.84136   0.23599   0.00000  Uiso   1.00
C378   C     0.34125   0.82420   0.26573   0.00000  Uiso   1.00
C379   C     0.51440   0.98929   0.23577   0.00000  Uiso   1.00
C380   C     0.48611   0.67852   0.26390   0.00000  Uiso   1.00
C381   C     0.48933   0.72265   0.26061   0.00000  Uiso   1.00
C382   C     0.51010   0.94466   0.24002   0.00000  Uiso   1.00
C383   C     0.40948   0.83575   0.48509   0.00000  Uiso   1.00
C384   C     0.51917   0.81494   0.12927   0.00000  Uiso   1.00
C385   C     0.48153   0.85097   0.37111   0.00000  Uiso   1.00
C386   C     0.58390   0.80803   0.01001   0.00000  Uiso   1.00
C387   C     0.52942   0.80842   0.08045   0.00000  Uiso   1.00
C388   C     0.42499   0.85222   0.44331   0.00000  Uiso   1.00
C389   C     0.43656   0.82049   0.00574   0.00000  Uiso   1.00
C390   C     0.48173   0.82833   0.48817   0.00000  Uiso   1.00
C391   C     0.49810   0.84469   0.44482   0.00000  Uiso   1.00
C392   C     0.51127   0.81980   0.01151   0.00000  Uiso   1.00
C393   C     0.55496   0.81935   0.48842   0.00000  Uiso   1.00
C394   C     0.57034   0.83486   0.44604   0.00000  Uiso   1.00
C395   C     0.54320   0.85117   0.42635   0.00000  Uiso   1.00
Cl396  Cl    0.60928   0.79051   0.08229   0.00000  Uiso   1.00
Cl397  Cl    0.64350   0.80239   0.31617   0.00000  Uiso   1.00
Cl398  Cl    0.55701   0.67892   0.19342   0.00000  Uiso   1.00
Cl399  Cl    0.38625   0.86509   0.41827   0.00000  Uiso   1.00
Cl400  Cl    0.56862   0.88469   0.38281   0.00000  Uiso   1.00
H401   H     0.45994   0.99784   0.28991   0.00000  Uiso   1.00
H402   H     0.60443   0.83828   0.43022   0.00000  Uiso   1.00
H403   H     0.61705   0.80638   0.49194   0.00000  Uiso   1.00
H404   H     0.46995   0.82629   0.07870   0.00000  Uiso   1.00
H405   H     0.37522   0.83110   0.49967   0.00000  Uiso   1.00
H406   H     0.34863   0.85620   0.20746   0.00000  Uiso   1.00
I407   I     0.40370   0.77651   0.05425   0.00000  Uiso   1.00
O408   O     0.50000   0.83333   0.25000   0.00000  Uiso   1.00
O409   O     0.48784   0.79304   0.15459   0.00000  Uiso   1.00
O410   O     0.46274   0.87058   0.34968   0.00000  Uiso   1.00
O411   O     0.54157   0.84425   0.14606   0.00000  Uiso   1.00
O412   O     0.50785   0.82546   0.34968   0.00000  Uiso   1.00
O413   O     0.51264   0.74686   0.28214   0.00000  Uiso   1.00
O414   O     0.47965   0.92751   0.27014   0.00000  Uiso   1.00
O415   O     0.40745   0.79958   0.23413   0.00000  Uiso   1.00
O416   O     0.60026   0.85939   0.21361   0.00000  Uiso   1.00
O417   O     0.40405   0.85544   0.28213   0.00000  Uiso   1.00
O418   O     0.58824   0.81892   0.27014   0.00000  Uiso   1.00
O419   O     0.47093   0.73610   0.23413   0.00000  Uiso   1.00
O420   O     0.53678   0.92286   0.21361   0.00000  Uiso   1.00
Zn421  Zn    0.52672   0.80661   0.28734   0.00000  Uiso   1.00
Zn422  Zn    0.46713   0.79124   0.21876   0.00000  Uiso   1.00
Zn423  Zn    0.54389   0.86442   0.20657   0.00000  Uiso   1.00
Zn424  Zn    0.46226   0.87106   0.28734   0.00000  Uiso   1.00
C425   C     0.71980   0.82693   0.25953   0.00000  Uiso   1.00
C426   C     0.83326   0.81695   0.05834   0.00000  Uiso   1.00
C427   C     0.90448   0.80208   0.05586   0.00000  Uiso   1.00
C428   C     0.94744   0.84035   0.24021   0.00000  Uiso   1.00
C429   C     0.80223   0.85291   0.42083   0.00000  Uiso   1.00
C430   C     0.99300   0.84136   0.23599   0.00000  Uiso   1.00
C431   C     0.67459   0.82420   0.26573   0.00000  Uiso   1.00
C432   C     0.84774   0.98929   0.23577   0.00000  Uiso   1.00
C433   C     0.81944   0.67852   0.26390   0.00000  Uiso   1.00
C434   C     0.82267   0.72265   0.26061   0.00000  Uiso   1.00
C435   C     0.84343   0.94466   0.24002   0.00000  Uiso   1.00
C436   C     0.74282   0.83575   0.48509   0.00000  Uiso   1.00
C437   C     0.85250   0.81494   0.12927   0.00000  Uiso   1.00
C438   C     0.81486   0.85097   0.37111   0.00000  Uiso   1.00
C439   C     0.91723   0.80803   0.01001   0.00000  Uiso   1.00
C440   C     0.86275   0.80842   0.08045   0.00000  Uiso   1.00
C441   C     0.75833   0.85222   0.44331   0.00000  Uiso   1.00
C442   C     0.76990   0.82049   0.00574   0.00000  Uiso   1.00
C443   C     0.81507   0.82833   0.48817   0.00000  Uiso   1.00
C444   C     0.83143   0.84469   0.44482   0.00000  Uiso   1.00
C445   C     0.84461   0.81980   0.01151   0.00000  Uiso   1.00
C446   C     0.88830   0.81935   0.48842   0.00000  Uiso   1.00
C447   C     0.90368   0.83486   0.44604   0.00000  Uiso   1.00
C448   C     0.87654   0.85117   0.42635   0.00000  Uiso   1.00
Cl449  Cl    0.94262   0.79051   0.08229   0.00000  Uiso   1.00
Cl450  Cl    0.97684   0.80239   0.31617   0.00000  Uiso   1.00
Cl451  Cl    0.89034   0.67892   0.19342   0.00000  Uiso   1.00
Cl452  Cl    0.71958   0.86509   0.41827   0.00000  Uiso   1.00
Cl453  Cl    0.90195   0.88469   0.38281   0.00000  Uiso   1.00
H454   H     0.79328   0.99784   0.28991   0.00000  Uiso   1.00
H455   H     0.93776   0.83828   0.43022   0.00000  Uiso   1.00
H456   H     0.95039   0.80638   0.49194   0.00000  Uiso   1.00
H457   H     0.80329   0.82629   0.07870   0.00000  Uiso   1.00
H458   H     0.70856   0.83110   0.49967   0.00000  Uiso   1.00
H459   H     0.68196   0.85620   0.20746   0.00000  Uiso   1.00
I460   I     0.73704   0.77651   0.05425   0.00000  Uiso   1.00
O461   O     0.83333   0.83333   0.25000   0.00000  Uiso   1.00
O462   O     0.82118   0.79304   0.15459   0.00000  Uiso   1.00
O463   O     0.79607   0.87058   0.34968   0.00000  Uiso   1.00
O464   O     0.87491   0.84425   0.14606   0.00000  Uiso   1.00
O465   O     0.84118   0.82546   0.34968   0.00000  Uiso   1.00
O466   O     0.84597   0.74686   0.28214   0.00000  Uiso   1.00
O467   O     0.81298   0.92751   0.27014   0.00000  Uiso   1.00
O468   O     0.74078   0.79958   0.23413   0.00000  Uiso   1.00
O469   O     0.93360   0.85939   0.21361   0.00000  Uiso   1.00
O470   O     0.73738   0.85544   0.28213   0.00000  Uiso   1.00
O471   O     0.92158   0.81892   0.27014   0.00000  Uiso   1.00
O472   O     0.80426   0.73610   0.23413   0.00000  Uiso   1.00
O473   O     0.87012   0.92286   0.21361   0.00000  Uiso   1.00
Zn474  Zn    0.86005   0.80661   0.28734   0.00000  Uiso   1.00
Zn475  Zn    0.80046   0.79124   0.21876   0.00000  Uiso   1.00
Zn476  Zn    0.87723   0.86442   0.20657   0.00000  Uiso   1.00
Zn477  Zn    0.79560   0.87106   0.28734   0.00000  Uiso   1.00
C478   C     0.05313   0.16026   0.75953   0.00000  Uiso   1.00
C479   C     0.16660   0.15028   0.55834   0.00000  Uiso   1.00
C480   C     0.23782   0.13541   0.55586   0.00000  Uiso   1.00
C481   C     0.28077   0.17368   0.74021   0.00000  Uiso   1.00
C482   C     0.13556   0.18624   0.92083   0.00000  Uiso   1.00
C483   C     0.32634   0.17469   0.73599   0.00000  Uiso   1.00
C484   C     0.00792   0.15754   0.76573   0.00000  Uiso   1.00
C485   C     0.18107   0.32262   0.73577   0.00000  Uiso   1.00
C486   C     0.15277   0.01185   0.76390   0.00000  Uiso   1.00
C487   C     0.15600   0.05598   0.76061   0.00000  Uiso   1.00
C488   C     0.17677   0.27799   0.74002   0.00000  Uiso   1.00
C489   C     0.07615   0.16909   0.98509   0.00000  Uiso   1.00
C490   C     0.18584   0.14827   0.62927   0.00000  Uiso   1.00
C491   C     0.14819   0.18431   0.87111   0.00000  Uiso   1.00
C492   C     0.25057   0.14137   0.51001   0.00000  Uiso   1.00
C493   C     0.19609   0.14176   0.58045   0.00000  Uiso   1.00
C494   C     0.09166   0.18555   0.94331   0.00000  Uiso   1.00
C495   C     0.10323   0.15383   0.50574   0.00000  Uiso   1.00
C496   C     0.14840   0.16166   0.98817   0.00000  Uiso   1.00
C497   C     0.16476   0.17803   0.94482   0.00000  Uiso   1.00
C498   C     0.17794   0.15313   0.51151   0.00000  Uiso   1.00
C499   C     0.22163   0.15269   0.98842   0.00000  Uiso   1.00
C500   C     0.23701   0.16819   0.94604   0.00000  Uiso   1.00
C501   C     0.20987   0.18450   0.92635   0.00000  Uiso   1.00
Cl502  Cl    0.27595   0.12384   0.58229   0.00000  Uiso   1.00
Cl503  Cl    0.31017   0.13572   0.81617   0.00000  Uiso   1.00
Cl504  Cl    0.22367   0.01226   0.69342   0.00000  Uiso   1.00
Cl505  Cl    0.05291   0.19842   0.91827   0.00000  Uiso   1.00
Cl506  Cl    0.23528   0.21802   0.88281   0.00000  Uiso   1.00
H507   H     0.12661   0.33117   0.78991   0.00000  Uiso   1.00
H508   H     0.27110   0.17161   0.93022   0.00000  Uiso   1.00
H509   H     0.28372   0.13972   0.99194   0.00000  Uiso   1.00
H510   H     0.13662   0.15963   0.57870   0.00000  Uiso   1.00
H511   H     0.04189   0.16444   0.99967   0.00000  Uiso   1.00
H512   H     0.01530   0.18953   0.70746   0.00000  Uiso   1.00
I513   I     0.07037   0.10985   0.55425   0.00000  Uiso   1.00
O514   O     0.16667   0.16667   0.75000   0.00000  Uiso   1.00
O515   O     0.15451   0.12637   0.65459   0.00000  Uiso   1.00
O516   O     0.12940   0.20391   0.84968   0.00000  Uiso   1.00
O517   O     0.20824   0.17759   0.64606   0.00000  Uiso   1.00
O518   O     0.17451   0.15880   0.84968   0.00000  Uiso   1.00
O519   O     0.17930   0.08019   0.78214   0.00000  Uiso   1.00
O520   O     0.14632   0.26085   0.77014   0.00000  Uiso   1.00
O521   O     0.07412   0.13291   0.73413   0.00000  Uiso   1.00
O522   O     0.26693   0.19272   0.71361   0.00000  Uiso   1.00
O523   O     0.07071   0.18878   0.78213   0.00000  Uiso   1.00
O524   O     0.25491   0.15226   0.77014   0.00000  Uiso   1.00
O525   O     0.13760   0.06944   0.73413   0.00000  Uiso   1.00
O526   O     0.20345   0.25620   0.71361   0.00000  Uiso   1.00
Zn527  Zn    0.19338   0.13994   0.78734   0.00000  Uiso   1.00
Zn528  Zn    0.13379   0.12458   0.71876   0.00000  Uiso   1.00
Zn529  Zn    0.21056   0.19775   0.70657   0.00000  Uiso   1.00
Zn530  Zn    0.12893   0.20439   0.78734   0.00000  Uiso   1.00
C531   C     0.38647   0.16026   0.75953   0.00000  Uiso   1.00
C532   C     0.49993   0.15028   0.55834   0.00000  Uiso   1.00
C533   C     0.57115   0.13541   0.55586   0.00000  Uiso   1.00
C534   C     0.61410   0.17368   0.74021   0.00000  Uiso   1.00
C535   C     0.46890   0.18624   0.92083   0.00000  Uiso   1.00
C536   C     0.65967   0.17469   0.73599   0.00000  Uiso   1.00
C537   C     0.34125   0.15754   0.76573   0.00000  Uiso   1.00
C538   C     0.51440   0.32262   0.73577   0.00000  Uiso   1.00
C539   C     0.48611   0.01185   0.76390   0.00000  Uiso   1.00
C540   C     0.48933   0.05598   0.76061   0.00000  Uiso   1.00
C541   C     0.51010   0.27799   0.74002   0.00000  Uiso   1.00
C542   C     0.40948   0.16909   0.98509   0.00000  Uiso   1.00
C543   C     0.51917   0.14827   0.62927   0.00000  Uiso   1.00
C544   C     0.48153   0.18431   0.87111   0.00000  Uiso   1.00
C545   C     0.58390   0.14137   0.51001   0.00000  Uiso   1.00
C546   C     0.52942   0.14176   0.58045   0.00000  Uiso   1.00
C547   C     0.42499   0.18555   0.94331   0.00000  Uiso   1.00
C548   C     0.43656   0.15383   0.50574   0.00000  Uiso   1.00
C549   C     0.48173   0.16166   0.98817   0.00000  Uiso   1.00
C550   C     0.49810   0.17803   0.94482   0.00000  Uiso   1.00
C551   C     0.51127   0.15313   0.51151   0.00000  Uiso   1.00
C552   C     0.55496   0.15269   0.98842   0.00000  Uiso   1.00
C553   C     0.57034   0.16819   0.94604   0.00000  Uiso   1.00
C554   C     0.54320   0.18450   0.92635   0.00000  Uiso   1.00
Cl555  Cl    0.60928   0.12384   0.58229   0.00000  Uiso   1.00
Cl556  Cl    0.64350   0.13572   0.81617   0.00000  Uiso   1.00
Cl557  Cl    0.55701   0.01226   0.69342   0.00000  Uiso   1.00
Cl558  Cl    0.38625   0.19842   0.91827   0.00000  Uiso   1.00
Cl559  Cl    0.56862   0.21802   0.88281   0.00000  Uiso   1.00
H560   H     0.45994   0.33117   0.78991   0.00000  Uiso   1.00
H561   H     0.60443   0.17161   0.93022   0.00000  Uiso   1.00
H562   H     0.61705   0.13972   0.99194   0.00000  Uiso   1.00
H563   H     0.46995   0.15963   0.57870   0.00000  Uiso   1.00
H564   H     0.37522   0.16444   0.99967   0.00000  Uiso   1.00
H565   H     0.34863   0.18953   0.70746   0.00000  Uiso   1.00
I566   I     0.40370   0.10985   0.55425   0.00000  Uiso   1.00
O567   O     0.50000   0.16667   0.75000   0.00000  Uiso   1.00
O568   O     0.48784   0.12637   0.65459   0.00000  Uiso   1.00
O569   O     0.46274   0.20391   0.84968   0.00000  Uiso   1.00
O570   O     0.54157   0.17759   0.64606   0.00000  Uiso   1.00
O571   O     0.50785   0.15880   0.84968   0.00000  Uiso   1.00
O572   O     0.51264   0.08019   0.78214   0.00000  Uiso   1.00
O573   O     0.47965   0.26085   0.77014   0.00000  Uiso   1.00
O574   O     0.40745   0.13291   0.73413   0.00000  Uiso   1.00
O575   O     0.60026   0.19272   0.71361   0.00000  Uiso   1.00
O576   O     0.40405   0.18878   0.78213   0.00000  Uiso   1.00
O577   O     0.58824   0.15226   0.77014   0.00000  Uiso   1.00
O578   O     0.47093   0.06944   0.73413   0.00000  Uiso   1.00
O579   O     0.53678   0.25620   0.71361   0.00000  Uiso   1.00
Zn580  Zn    0.52672   0.13994   0.78734   0.00000  Uiso   1.00
Zn581  Zn    0.46713   0.12458   0.71876   0.00000  Uiso   1.00
Zn582  Zn    0.54389   0.19775   0.70657   0.00000  Uiso   1.00
Zn583  Zn    0.46226   0.20439   0.78734   0.00000  Uiso   1.00
C584   C     0.71980   0.16026   0.75953   0.00000  Uiso   1.00
C585   C     0.83326   0.15028   0.55834   0.00000  Uiso   1.00
C586   C     0.90448   0.13541   0.55586   0.00000  Uiso   1.00
C587   C     0.94744   0.17368   0.74021   0.00000  Uiso   1.00
C588   C     0.80223   0.18624   0.92083   0.00000  Uiso   1.00
C589   C     0.99300   0.17469   0.73599   0.00000  Uiso   1.00
C590   C     0.67459   0.15754   0.76573   0.00000  Uiso   1.00
C591   C     0.84774   0.32262   0.73577   0.00000  Uiso   1.00
C592   C     0.81944   0.01185   0.76390   0.00000  Uiso   1.00
C593   C     0.82267   0.05598   0.76061   0.00000  Uiso   1.00
C594   C     0.84343   0.27799   0.74002   0.00000  Uiso   1.00
C595   C     0.74282   0.16909   0.98509   0.00000  Uiso   1.00
C596   C     0.85250   0.14827   0.62927   0.00000  Uiso   1.00
C597   C     0.81486   0.18431   0.87111   0.00000  Uiso   1.00
C598   C     0.91723   0.14137   0.51001   0.00000  Uiso   1.00
C599   C     0.86275   0.14176   0.58045   0.00000  Uiso   1.00
C600   C     0.75833   0.18555   0.94331   0.00000  Uiso   1.00
C601   C     0.76990   0.15383   0.50574   0.00000  Uiso   1.00
C602   C     0.81507   0.16166   0.98817   0.00000  Uiso   1.00
C603   C     0.83143   0.17803   0.94482   0.00000  Uiso   1.00
C604   C     0.84461   0.15313   0.51151   0.00000  Uiso   1.00
C605   C     0.88830   0.15269   0.98842   0.00000  Uiso   1.00
C606   C     0.90368   0.16819   0.94604   0.00000  Uiso   1.00
C607   C     0.87654   0.18450   0.92635   0.00000  Uiso   1.00
Cl608  Cl    0.94262   0.12384   0.58229   0.00000  Uiso   1.00
Cl609  Cl    0.97684   0.13572   0.81617   0.00000  Uiso   1.00
Cl610  Cl    0.89034   0.01226   0.69342   0.00000  Uiso   1.00
Cl611  Cl    0.71958   0.19842   0.91827   0.00000  Uiso   1.00
Cl612  Cl    0.90195   0.21802   0.88281   0.00000  Uiso   1.00
H613   H     0.79328   0.33117   0.78991   0.00000  Uiso   1.00
H614   H     0.93776   0.17161   0.93022   0.00000  Uiso   1.00
H615   H     0.95039   0.13972   0.99194   0.00000  Uiso   1.00
H616   H     0.80329   0.15963   0.57870   0.00000  Uiso   1.00
H617   H     0.70856   0.16444   0.99967   0.00000  Uiso   1.00
H618   H     0.68196   0.18953   0.70746   0.00000  Uiso   1.00
I619   I     0.73704   0.10985   0.55425   0.00000  Uiso   1.00
O620   O     0.83333   0.16667   0.75000   0.00000  Uiso   1.00
O621   O     0.82118   0.12637   0.65459   0.00000  Uiso   1.00
O622   O     0.79607   0.20391   0.84968   0.00000  Uiso   1.00
O623   O     0.87491   0.17759   0.64606   0.00000  Uiso   1.00
O624   O     0.84118   0.15880   0.84968   0.00000  Uiso   1.00
O625   O     0.84597   0.08019   0.78214   0.00000  Uiso   1.00
O626   O     0.81298   0.26085   0.77014   0.00000  Uiso   1.00
O627   O     0.74078   0.13291   0.73413   0.00000  Uiso   1.00
O628   O     0.93360   0.19272   0.71361   0.00000  Uiso   1.00
O629   O     0.73738   0.18878   0.78213   0.00000  Uiso   1.00
O630   O     0.92158   0.15226   0.77014   0.00000  Uiso   1.00
O631   O     0.80426   0.06944   0.73413   0.00000  Uiso   1.00
O632   O     0.87012   0.25620   0.71361   0.00000  Uiso   1.00
Zn633  Zn    0.86005   0.13994   0.78734   0.00000  Uiso   1.00
Zn634  Zn    0.80046   0.12458   0.71876   0.00000  Uiso   1.00
Zn635  Zn    0.87723   0.19775   0.70657   0.00000  Uiso   1.00
Zn636  Zn    0.79560   0.20439   0.78734   0.00000  Uiso   1.00
C637   C     0.05313   0.49360   0.75953   0.00000  Uiso   1.00
C638   C     0.16660   0.48361   0.55834   0.00000  Uiso   1.00
C639   C     0.23782   0.46874   0.55586   0.00000  Uiso   1.00
C640   C     0.28077   0.50702   0.74021   0.00000  Uiso   1.00
C641   C     0.13556   0.51957   0.92083   0.00000  Uiso   1.00
C642   C     0.32634   0.50803   0.73599   0.00000  Uiso   1.00
C643   C     0.00792   0.49087   0.76573   0.00000  Uiso   1.00
C644   C     0.18107   0.65596   0.73577   0.00000  Uiso   1.00
C645   C     0.15277   0.34518   0.76390   0.00000  Uiso   1.00
C646   C     0.15600   0.38931   0.76061   0.00000  Uiso   1.00
C647   C     0.17677   0.61132   0.74002   0.00000  Uiso   1.00
C648   C     0.07615   0.50242   0.98509   0.00000  Uiso   1.00
C649   C     0.18584   0.48160   0.62927   0.00000  Uiso   1.00
C650   C     0.14819   0.51764   0.87111   0.00000  Uiso   1.00
C651   C     0.25057   0.47470   0.51001   0.00000  Uiso   1.00
C652   C     0.19609   0.47509   0.58045   0.00000  Uiso   1.00
C653   C     0.09166   0.51888   0.94331   0.00000  Uiso   1.00
C654   C     0.10323   0.48716   0.50574   0.00000  Uiso   1.00
C655   C     0.14840   0.49499   0.98817   0.00000  Uiso   1.00
C656   C     0.16476   0.51136   0.94482   0.00000  Uiso   1.00
C657   C     0.17794   0.48647   0.51151   0.00000  Uiso   1.00
C658   C     0.22163   0.48602   0.98842   0.00000  Uiso   1.00
C659   C     0.23701   0.50153   0.94604   0.00000  Uiso   1.00
C660   C     0.20987   0.51783   0.92635   0.00000  Uiso   1.00
Cl661  Cl    0.27595   0.45717   0.58229   0.00000  Uiso   1.00
Cl662  Cl    0.31017   0.46905   0.81617   0.00000  Uiso   1.00
Cl663  Cl    0.22367   0.34559   0.69342   0.00000  Uiso   1.00
Cl664  Cl    0.05291   0.53175   0.91827   0.00000  Uiso   1.00
Cl665  Cl    0.23528   0.55135   0.88281   0.00000  Uiso   1.00
H666   H     0.12661   0.66451   0.78991   0.00000  Uiso   1.00
H667   H     0.27110   0.50495   0.93022   0.00000  Uiso   1.00
H668   H     0.28372   0.47305   0.99194   0.00000  Uiso   1.00
H669   H     0.13662   0.49296   0.57870   0.00000  Uiso   1.00
H670   H     0.04189   0.49777   0.99967   0.00000  Uiso   1.00
H671   H     0.01530   0.52286   0.70746   0.00000  Uiso   1.00
I672   I     0.07037   0.44318   0.55425   0.00000  Uiso   1.00
O673   O     0.16667   0.50000   0.75000   0.00000  Uiso   1.00
O674   O     0.15451   0.45970   0.65459   0.00000  Uiso   1.00
O675   O     0.12940   0.53724   0.84968   0.00000  Uiso   1.00
O676   O     0.20824   0.51092   0.64606   0.00000  Uiso   1.00
O677   O     0.17451   0.49213   0.84968   0.00000  Uiso   1.00
O678   O     0.17930   0.41352   0.78214   0.00000  Uiso   1.00
O679   O     0.14632   0.59418   0.77014   0.00000  Uiso   1.00
O680   O     0.07412   0.46625   0.73413   0.00000  Uiso   1.00
O681   O     0.26693   0.52605   0.71361   0.00000  Uiso   1.00
O682   O     0.07071   0.52211   0.78213   0.00000  Uiso   1.00
O683   O     0.25491   0.48559   0.77014   0.00000  Uiso   1.00
O684   O     0.13760   0.40277   0.73413   0.00000  Uiso   1.00
O685   O     0.20345   0.58953   0.71361   0.00000  Uiso   1.00
Zn686  Zn    0.19338   0.47327   0.78734   0.00000  Uiso   1.00
Zn687  Zn    0.13379   0.45791   0.71876   0.00000  Uiso   1.00
Zn688  Zn    0.21056   0.53109   0.70657   0.00000  Uiso   1.00
Zn689  Zn    0.12893   0.53773   0.78734   0.00000  Uiso   1.00
C690   C     0.38647   0.49360   0.75953   0.00000  Uiso   1.00
C691   C     0.49993   0.48361   0.55834   0.00000  Uiso   1.00
C692   C     0.57115   0.46874   0.55586   0.00000  Uiso   1.00
C693   C     0.61410   0.50702   0.74021   0.00000  Uiso   1.00
C694   C     0.46890   0.51957   0.92083   0.00000  Uiso   1.00
C695   C     0.65967   0.50803   0.73599   0.00000  Uiso   1.00
C696   C     0.34125   0.49087   0.76573   0.00000  Uiso   1.00
C697   C     0.51440   0.65596   0.73577   0.00000  Uiso   1.00
C698   C     0.48611   0.34518   0.76390   0.00000  Uiso   1.00
C699   C     0.48933   0.38931   0.76061   0.00000  Uiso   1.00
C700   C     0.51010   0.61132   0.74002   0.00000  Uiso   1.00
C701   C     0.40948   0.50242   0.98509   0.00000  Uiso   1.00
C702   C     0.51917   0.48160   0.62927   0.00000  Uiso   1.00
C703   C     0.48153   0.51764   0.87111   0.00000  Uiso   1.00
C704   C     0.58390   0.47470   0.51001   0.00000  Uiso   1.00
C705   C     0.52942   0.47509   0.58045   0.00000  Uiso   1.00
C706   C     0.42499   0.51888   0.94331   0.00000  Uiso   1.00
C707   C     0.43656   0.48716   0.50574   0.00000  Uiso   1.00
C708   C     0.48173   0.49499   0.98817   0.00000  Uiso   1.00
C709   C     0.49810   0.51136   0.94482   0.00000  Uiso   1.00
C710   C     0.51127   0.48647   0.51151   0.00000  Uiso   1.00
C711   C     0.55496   0.48602   0.98842   0.00000  Uiso   1.00
C712   C     0.57034   0.50153   0.94604   0.00000  Uiso   1.00
C713   C     0.54320   0.51783   0.92635   0.00000  Uiso   1.00
Cl714  Cl    0.60928   0.45717   0.58229   0.00000  Uiso   1.00
Cl715  Cl    0.64350   0.46905   0.81617   0.00000  Uiso   1.00
Cl716  Cl    0.55701   0.34559   0.69342   0.00000  Uiso   1.00
Cl717  Cl    0.38625   0.53175   0.91827   0.00000  Uiso   1.00
Cl718  Cl    0.56862   0.55135   0.88281   0.00000  Uiso   1.00
H719   H     0.45994   0.66451   0.78991   0.00000  Uiso   1.00
H720   H     0.60443   0.50495   0.93022   0.00000  Uiso   1.00
H721   H     0.61705   0.47305   0.99194   0.00000  Uiso   1.00
H722   H     0.46995   0.49296   0.57870   0.00000  Uiso   1.00
H723   H     0.37522   0.49777   0.99967   0.00000  Uiso   1.00
H724   H     0.34863   0.52286   0.70746   0.00000  Uiso   1.00
I725   I     0.40370   0.44318   0.55425   0.00000  Uiso   1.00
O726   O     0.50000   0.50000   0.75000   0.00000  Uiso   1.00
O727   O     0.48784   0.45970   0.65459   0.00000  Uiso   1.00
O728   O     0.46274   0.53724   0.84968   0.00000  Uiso   1.00
O729   O     0.54157   0.51092   0.64606   0.00000  Uiso   1.00
O730   O     0.50785   0.49213   0.84968   0.00000  Uiso   1.00
O731   O     0.51264   0.41352   0.78214   0.00000  Uiso   1.00
O732   O     0.47965   0.59418   0.77014   0.00000  Uiso   1.00
O733   O     0.40745   0.46625   0.73413   0.00000  Uiso   1.00
O734   O     0.60026   0.52605   0.71361   0.00000  Uiso   1.00
O735   O     0.40405   0.52211   0.78213   0.00000  Uiso   1.00
O736   O     0.58824   0.48559   0.77014   0.00000  Uiso   1.00
O737   O     0.47093   0.40277   0.73413   0.00000  Uiso   1.00
O738   O     0.53678   0.58953   0.71361   0.00000  Uiso   1.00
Zn739  Zn    0.52672   0.47327   0.78734   0.00000  Uiso   1.00
Zn740  Zn    0.46713   0.45791   0.71876   0.00000  Uiso   1.00
Zn741  Zn    0.54389   0.53109   0.70657   0.00000  Uiso   1.00
Zn742  Zn    0.46226   0.53773   0.78734   0.00000  Uiso   1.00
C743   C     0.71980   0.49360   0.75953   0.00000  Uiso   1.00
C744   C     0.83326   0.48361   0.55834   0.00000  Uiso   1.00
C745   C     0.90448   0.46874   0.55586   0.00000  Uiso   1.00
C746   C     0.94744   0.50702   0.74021   0.00000  Uiso   1.00
C747   C     0.80223   0.51957   0.92083   0.00000  Uiso   1.00
C748   C     0.99300   0.50803   0.73599   0.00000  Uiso   1.00
C749   C     0.67459   0.49087   0.76573   0.00000  Uiso   1.00
C750   C     0.84774   0.65596   0.73577   0.00000  Uiso   1.00
C751   C     0.81944   0.34518   0.76390   0.00000  Uiso   1.00
C752   C     0.82267   0.38931   0.76061   0.00000  Uiso   1.00
C753   C     0.84343   0.61132   0.74002   0.00000  Uiso   1.00
C754   C     0.74282   0.50242   0.98509   0.00000  Uiso   1.00
C755   C     0.85250   0.48160   0.62927   0.00000  Uiso   1.00
C756   C     0.81486   0.51764   0.87111   0.00000  Uiso   1.00
C757   C     0.91723   0.47470   0.51001   0.00000  Uiso   1.00
C758   C     0.86275   0.47509   0.58045   0.00000  Uiso   1.00
C759   C     0.75833   0.51888   0.94331   0.00000  Uiso   1.00
C760   C     0.76990   0.48716   0.50574   0.00000  Uiso   1.00
C761   C     0.81507   0.49499   0.98817   0.00000  Uiso   1.00
C762   C     0.83143   0.51136   0.94482   0.00000  Uiso   1.00
C763   C     0.84461   0.48647   0.51151   0.00000  Uiso   1.00
C764   C     0.88830   0.48602   0.98842   0.00000  Uiso   1.00
C765   C     0.90368   0.50153   0.94604   0.00000  Uiso   1.00
C766   C     0.87654   0.51783   0.92635   0.00000  Uiso   1.00
Cl767  Cl    0.94262   0.45717   0.58229   0.00000  Uiso   1.00
Cl768  Cl    0.97684   0.46905   0.81617   0.00000  Uiso   1.00
Cl769  Cl    0.89034   0.34559   0.69342   0.00000  Uiso   1.00
Cl770  Cl    0.71958   0.53175   0.91827   0.00000  Uiso   1.00
Cl771  Cl    0.90195   0.55135   0.88281   0.00000  Uiso   1.00
H772   H     0.79328   0.66451   0.78991   0.00000  Uiso   1.00
H773   H     0.93776   0.50495   0.93022   0.00000  Uiso   1.00
H774   H     0.95039   0.47305   0.99194   0.00000  Uiso   1.00
H775   H     0.80329   0.49296   0.57870   0.00000  Uiso   1.00
H776   H     0.70856   0.49777   0.99967   0.00000  Uiso   1.00
H777   H     0.68196   0.52286   0.70746   0.00000  Uiso   1.00
I778   I     0.73704   0.44318   0.55425   0.00000  Uiso   1.00
O779   O     0.83333   0.50000   0.75000   0.00000  Uiso   1.00
O780   O     0.82118   0.45970   0.65459   0.00000  Uiso   1.00
O781   O     0.79607   0.53724   0.84968   0.00000  Uiso   1.00
O782   O     0.87491   0.51092   0.64606   0.00000  Uiso   1.00
O783   O     0.84118   0.49213   0.84968   0.00000  Uiso   1.00
O784   O     0.84597   0.41352   0.78214   0.00000  Uiso   1.00
O785   O     0.81298   0.59418   0.77014   0.00000  Uiso   1.00
O786   O     0.74078   0.46625   0.73413   0.00000  Uiso   1.00
O787   O     0.93360   0.52605   0.71361   0.00000  Uiso   1.00
O788   O     0.73738   0.52211   0.78213   0.00000  Uiso   1.00
O789   O     0.92158   0.48559   0.77014   0.00000  Uiso   1.00
O790   O     0.80426   0.40277   0.73413   0.00000  Uiso   1.00
O791   O     0.87012   0.58953   0.71361   0.00000  Uiso   1.00
Zn792  Zn    0.86005   0.47327   0.78734   0.00000  Uiso   1.00
Zn793  Zn    0.80046   0.45791   0.71876   0.00000  Uiso   1.00
Zn794  Zn    0.87723   0.53109   0.70657   0.00000  Uiso   1.00
Zn795  Zn    0.79560   0.53773   0.78734   0.00000  Uiso   1.00
C796   C     0.05313   0.82693   0.75953   0.00000  Uiso   1.00
C797   C     0.16660   0.81695   0.55834   0.00000  Uiso   1.00
C798   C     0.23782   0.80208   0.55586   0.00000  Uiso   1.00
C799   C     0.28077   0.84035   0.74021   0.00000  Uiso   1.00
C800   C     0.13556   0.85291   0.92083   0.00000  Uiso   1.00
C801   C     0.32634   0.84136   0.73599   0.00000  Uiso   1.00
C802   C     0.00792   0.82420   0.76573   0.00000  Uiso   1.00
C803   C     0.18107   0.98929   0.73577   0.00000  Uiso   1.00
C804   C     0.15277   0.67852   0.76390   0.00000  Uiso   1.00
C805   C     0.15600   0.72265   0.76061   0.00000  Uiso   1.00
C806   C     0.17677   0.94466   0.74002   0.00000  Uiso   1.00
C807   C     0.07615   0.83575   0.98509   0.00000  Uiso   1.00
C808   C     0.18584   0.81494   0.62927   0.00000  Uiso   1.00
C809   C     0.14819   0.85097   0.87111   0.00000  Uiso   1.00
C810   C     0.25057   0.80803   0.51001   0.00000  Uiso   1.00
C811   C     0.19609   0.80842   0.58045   0.00000  Uiso   1.00
C812   C     0.09166   0.85222   0.94331   0.00000  Uiso   1.00
C813   C     0.10323   0.82049   0.50574   0.00000  Uiso   1.00
C814   C     0.14840   0.82833   0.98817   0.00000  Uiso   1.00
C815   C     0.16476   0.84469   0.94482   0.00000  Uiso   1.00
C816   C     0.17794   0.81980   0.51151   0.00000  Uiso   1.00
C817   C     0.22163   0.81935   0.98842   0.00000  Uiso   1.00
C818   C     0.23701   0.83486   0.94604   0.00000  Uiso   1.00
C819   C     0.20987   0.85117   0.92635   0.00000  Uiso   1.00
Cl820  Cl    0.27595   0.79051   0.58229   0.00000  Uiso   1.00
Cl821  Cl    0.31017   0.80239   0.81617   0.00000  Uiso   1.00
Cl822  Cl    0.22367   0.67892   0.69342   0.00000  Uiso   1.00
Cl823  Cl    0.05291   0.86509   0.91827   0.00000  Uiso   1.00
Cl824  Cl    0.23528   0.88469   0.88281   0.00000  Uiso   1.00
H825   H     0.12661   0.99784   0.78991   0.00000  Uiso   1.00
H826   H     0.27110   0.83828   0.93022   0.00000  Uiso   1.00
H827   H     0.28372   0.80638   0.99194   0.00000  Uiso   1.00
H828   H     0.13662   0.82629   0.57870   0.00000  Uiso   1.00
H829   H     0.04189   0.83110   0.99967   0.00000  Uiso   1.00
H830   H     0.01530   0.85620   0.70746   0.00000  Uiso   1.00
I831   I     0.07037   0.77651   0.55425   0.00000  Uiso   1.00
O832   O     0.16667   0.83333   0.75000   0.00000  Uiso   1.00
O833   O     0.15451   0.79304   0.65459   0.00000  Uiso   1.00
O834   O     0.12940   0.87058   0.84968   0.00000  Uiso   1.00
O835   O     0.20824   0.84425   0.64606   0.00000  Uiso   1.00
O836   O     0.17451   0.82546   0.84968   0.00000  Uiso   1.00
O837   O     0.17930   0.74686   0.78214   0.00000  Uiso   1.00
O838   O     0.14632   0.92751   0.77014   0.00000  Uiso   1.00
O839   O     0.07412   0.79958   0.73413   0.00000  Uiso   1.00
O840   O     0.26693   0.85939   0.71361   0.00000  Uiso   1.00
O841   O     0.07071   0.85544   0.78213   0.00000  Uiso   1.00
O842   O     0.25491   0.81892   0.77014   0.00000  Uiso   1.00
O843   O     0.13760   0.73610   0.73413   0.00000  Uiso   1.00
O844   O     0.20345   0.92286   0.71361   0.00000  Uiso   1.00
Zn845  Zn    0.19338   0.80661   0.78734   0.00000  Uiso   1.00
Zn846  Zn    0.13379   0.79124   0.71876   0.00000  Uiso   1.00
Zn847  Zn    0.21056   0.86442   0.70657   0.00000  Uiso   1.00
Zn848  Zn    0.12893   0.87106   0.78734   0.00000  Uiso   1.00
C849   C     0.38647   0.82693   0.75953   0.00000  Uiso   1.00
C850   C     0.49993   0.81695   0.55834   0.00000  Uiso   1.00
C851   C     0.57115   0.80208   0.55586   0.00000  Uiso   1.00
C852   C     0.61410   0.84035   0.74021   0.00000  Uiso   1.00
C853   C     0.46890   0.85291   0.92083   0.00000  Uiso   1.00
C854   C     0.65967   0.84136   0.73599   0.00000  Uiso   1.00
C855   C     0.34125   0.82420   0.76573   0.00000  Uiso   1.00
C856   C     0.51440   0.98929   0.73577   0.00000  Uiso   1.00
C857   C     0.48611   0.67852   0.76390   0.00000  Uiso   1.00
C858   C     0.48933   0.72265   0.76061   0.00000  Uiso   1.00
C859   C     0.51010   0.94466   0.74002   0.00000  Uiso   1.00
C860   C     0.40948   0.83575   0.98509   0.00000  Uiso   1.00
C861   C     0.51917   0.81494   0.62927   0.00000  Uiso   1.00
C862   C     0.48153   0.85097   0.87111   0.00000  Uiso   1.00
C863   C     0.58390   0.80803   0.51001   0.00000  Uiso   1.00
C864   C     0.52942   0.80842   0.58045   0.00000  Uiso   1.00
C865   C     0.42499   0.85222   0.94331   0.00000  Uiso   1.00
C866   C     0.43656   0.82049   0.50574   0.00000  Uiso   1.00
C867   C     0.48173   0.82833   0.98817   0.00000  Uiso   1.00
C868   C     0.49810   0.84469   0.94482   0.00000  Uiso   1.00
C869   C     0.51127   0.81980   0.51151   0.00000  Uiso   1.00
C870   C     0.55496   0.81935   0.98842   0.00000  Uiso   1.00
C871   C     0.57034   0.83486   0.94604   0.00000  Uiso   1.00
C872   C     0.54320   0.85117   0.92635   0.00000  Uiso   1.00
Cl873  Cl    0.60928   0.79051   0.58229   0.00000  Uiso   1.00
Cl874  Cl    0.64350   0.80239   0.81617   0.00000  Uiso   1.00
Cl875  Cl    0.55701   0.67892   0.69342   0.00000  Uiso   1.00
Cl876  Cl    0.38625   0.86509   0.91827   0.00000  Uiso   1.00
Cl877  Cl    0.56862   0.88469   0.88281   0.00000  Uiso   1.00
H878   H     0.45994   0.99784   0.78991   0.00000  Uiso   1.00
H879   H     0.60443   0.83828   0.93022   0.00000  Uiso   1.00
H880   H     0.61705   0.80638   0.99194   0.00000  Uiso   1.00
H881   H     0.46995   0.82629   0.57870   0.00000  Uiso   1.00
H882   H     0.37522   0.83110   0.99967   0.00000  Uiso   1.00
H883   H     0.34863   0.85620   0.70746   0.00000  Uiso   1.00
I884   I     0.40370   0.77651   0.55425   0.00000  Uiso   1.00
O885   O     0.50000   0.83333   0.75000   0.00000  Uiso   1.00
O886   O     0.48784   0.79304   0.65459   0.00000  Uiso   1.00
O887   O     0.46274   0.87058   0.84968   0.00000  Uiso   1.00
O888   O     0.54157   0.84425   0.64606   0.00000  Uiso   1.00
O889   O     0.50785   0.82546   0.84968   0.00000  Uiso   1.00
O890   O     0.51264   0.74686   0.78214   0.00000  Uiso   1.00
O891   O     0.47965   0.92751   0.77014   0.00000  Uiso   1.00
O892   O     0.40745   0.79958   0.73413   0.00000  Uiso   1.00
O893   O     0.60026   0.85939   0.71361   0.00000  Uiso   1.00
O894   O     0.40405   0.85544   0.78213   0.00000  Uiso   1.00
O895   O     0.58824   0.81892   0.77014   0.00000  Uiso   1.00
O896   O     0.47093   0.73610   0.73413   0.00000  Uiso   1.00
O897   O     0.53678   0.92286   0.71361   0.00000  Uiso   1.00
Zn898  Zn    0.52672   0.80661   0.78734   0.00000  Uiso   1.00
Zn899  Zn    0.46713   0.79124   0.71876   0.00000  Uiso   1.00
Zn900  Zn    0.54389   0.86442   0.70657   0.00000  Uiso   1.00
Zn901  Zn    0.46226   0.87106   0.78734   0.00000  Uiso   1.00
C902   C     0.71980   0.82693   0.75953   0.00000  Uiso   1.00
C903   C     0.83326   0.81695   0.55834   0.00000  Uiso   1.00
C904   C     0.90448   0.80208   0.55586   0.00000  Uiso   1.00
C905   C     0.94744   0.84035   0.74021   0.00000  Uiso   1.00
C906   C     0.80223   0.85291   0.92083   0.00000  Uiso   1.00
C907   C     0.99300   0.84136   0.73599   0.00000  Uiso   1.00
C908   C     0.67459   0.82420   0.76573   0.00000  Uiso   1.00
C909   C     0.84774   0.98929   0.73577   0.00000  Uiso   1.00
C910   C     0.81944   0.67852   0.76390   0.00000  Uiso   1.00
C911   C     0.82267   0.72265   0.76061   0.00000  Uiso   1.00
C912   C     0.84343   0.94466   0.74002   0.00000  Uiso   1.00
C913   C     0.74282   0.83575   0.98509   0.00000  Uiso   1.00
C914   C     0.85250   0.81494   0.62927   0.00000  Uiso   1.00
C915   C     0.81486   0.85097   0.87111   0.00000  Uiso   1.00
C916   C     0.91723   0.80803   0.51001   0.00000  Uiso   1.00
C917   C     0.86275   0.80842   0.58045   0.00000  Uiso   1.00
C918   C     0.75833   0.85222   0.94331   0.00000  Uiso   1.00
C919   C     0.76990   0.82049   0.50574   0.00000  Uiso   1.00
C920   C     0.81507   0.82833   0.98817   0.00000  Uiso   1.00
C921   C     0.83143   0.84469   0.94482   0.00000  Uiso   1.00
C922   C     0.84461   0.81980   0.51151   0.00000  Uiso   1.00
C923   C     0.88830   0.81935   0.98842   0.00000  Uiso   1.00
C924   C     0.90368   0.83486   0.94604   0.00000  Uiso   1.00
C925   C     0.87654   0.85117   0.92635   0.00000  Uiso   1.00
Cl926  Cl    0.94262   0.79051   0.58229   0.00000  Uiso   1.00
Cl927  Cl    0.97684   0.80239   0.81617   0.00000  Uiso   1.00
Cl928  Cl    0.89034   0.67892   0.69342   0.00000  Uiso   1.00
Cl929  Cl    0.71958   0.86509   0.91827   0.00000  Uiso   1.00
Cl930  Cl    0.90195   0.88469   0.88281   0.00000  Uiso   1.00
H931   H     0.79328   0.99784   0.78991   0.00000  Uiso   1.00
H932   H     0.93776   0.83828   0.93022   0.00000  Uiso   1.00
H933   H     0.95039   0.80638   0.99194   0.00000  Uiso   1.00
H934   H     0.80329   0.82629   0.57870   0.00000  Uiso   1.00
H935   H     0.70856   0.83110   0.99967   0.00000  Uiso   1.00
H936   H     0.68196   0.85620   0.70746   0.00000  Uiso   1.00
I937   I     0.73704   0.77651   0.55425   0.00000  Uiso   1.00
O938   O     0.83333   0.83333   0.75000   0.00000  Uiso   1.00
O939   O     0.82118   0.79304   0.65459   0.00000  Uiso   1.00
O940   O     0.79607   0.87058   0.84968   0.00000  Uiso   1.00
O941   O     0.87491   0.84425   0.64606   0.00000  Uiso   1.00
O942   O     0.84118   0.82546   0.84968   0.00000  Uiso   1.00
O943   O     0.84597   0.74686   0.78214   0.00000  Uiso   1.00
O944   O     0.81298   0.92751   0.77014   0.00000  Uiso   1.00
O945   O     0.74078   0.79958   0.73413   0.00000  Uiso   1.00
O946   O     0.93360   0.85939   0.71361   0.00000  Uiso   1.00
O947   O     0.73738   0.85544   0.78213   0.00000  Uiso   1.00
O948   O     0.92158   0.81892   0.77014   0.00000  Uiso   1.00
O949   O     0.80426   0.73610   0.73413   0.00000  Uiso   1.00
O950   O     0.87012   0.92286   0.71361   0.00000  Uiso   1.00
Zn951  Zn    0.86005   0.80661   0.78734   0.00000  Uiso   1.00
Zn952  Zn    0.80046   0.79124   0.71876   0.00000  Uiso   1.00
Zn953  Zn    0.87723   0.86442   0.70657   0.00000  Uiso   1.00
Zn954  Zn    0.79560   0.87106   0.78734   0.00000  Uiso   1.00
loop_
_geom_bond_atom_site_label_1
_geom_bond_atom_site_label_2
_geom_bond_distance
_geom_bond_site_symmetry_2
_ccdc_geom_bond_type
C1     O44     1.274   .     A
C1     C7      1.429   .     S
C1     O46     1.268   .     A
C2     C16     1.393   .     A
C2     C21     1.404   .     A
C2     H33     1.079   .     S
C3     Cl25    1.762   .     S
C3     C15     1.392   .     A
C3     C16     1.405   .     A
C4     O45     1.283   .     A
C4     C6      1.455   .     S
C4     O47     1.265   .     A
C5     C20     1.423   .     A
C5     C14     1.478   .     S
C5     C17     1.415   .     A
C6     C60     1.347   .     S
C6     H88     1.088   .     S
C7     C112    1.347   1_455 S
C7     Cl132   1.772   1_455 S
C8     C11     1.454   .     S
C8     C168    1.336   .     S
C8     Cl186   1.771   .     S
C9     C10     1.436   .     S
C9     C326    1.336   1_545 S
C9     H348    1.086   1_545 S
C10    O42     1.279   .     A
C10    O48     1.279   .     A
C11    O43     1.272   .     A
C11    O49     1.268   .     A
C12    C17     1.387   .     A
C12    H34     1.084   .     S
C12    C495    1.389   .     S
C13    O38     1.282   .     A
C13    C16     1.456   .     S
C13    O40     1.271   .     A
C14    O41     1.286   .     A
C14    O39     1.280   .     A
C15    C499    1.401   1_554 S
C15    H509    1.084   1_554 S
C17    Cl28    1.766   .     S
C18    I36     2.140   .     S
C18    C489    1.389   1_554 S
C18    C496    1.425   1_554 S
C19    C20     1.430   .     A
C19    C495    1.425   .     S
C19    C498    1.421   .     S
C20    C24     1.424   .     A
C21    C496    1.421   1_554 S
C21    C499    1.417   1_554 S
C22    C23     1.390   .     A
C22    C492    1.401   .     S
C22    C498    1.417   .     S
C23    C24     1.388   .     A
C23    H31     1.085   .     S
C24    Cl29    1.769   .     S
Cl26   C60     1.772   .     S
Cl27   C326    1.771   1_545 S
H30    C168    1.086   .     S
H32    C492    1.084   .     S
H35    C112    1.088   1_455 S
O37    Zn53    1.935   .     S
O37    Zn50    1.952   .     S
O37    Zn51    1.956   .     S
O37    Zn52    1.927   .     S
O38    Zn51    1.921   .     S
O39    Zn53    1.933   .     S
O40    Zn52    1.936   .     S
O41    Zn50    1.924   .     S
O42    Zn50    1.932   .     S
O43    Zn53    1.927   .     S
O44    Zn51    1.932   .     S
O45    Zn52    1.943   .     S
O46    Zn53    1.943   .     S
O47    Zn50    1.930   .     S
O48    Zn51    1.930   .     S
O49    Zn52    1.931   .     S
C54    O97     1.274   .     A
C54    C60     1.429   .     S
C54    O99     1.268   .     A
C55    C69     1.393   .     A
C55    C74     1.404   .     A
C55    H86     1.079   .     S
C56    Cl78    1.762   .     S
C56    C68     1.392   .     A
C56    C69     1.405   .     A
C57    O98     1.283   .     A
C57    C59     1.455   .     S
C57    O100    1.265   .     A
C58    C73     1.423   .     A
C58    C67     1.478   .     S
C58    C70     1.415   .     A
C59    C113    1.347   .     S
C59    H141    1.088   .     S
C61    C64     1.454   .     S
C61    C221    1.336   .     S
C61    Cl239   1.771   .     S
C62    C63     1.436   .     S
C62    C379    1.336   1_545 S
C62    H401    1.086   1_545 S
C63    O95     1.279   .     A
C63    O101    1.279   .     A
C64    O96     1.272   .     A
C64    O102    1.268   .     A
C65    C70     1.387   .     A
C65    H87     1.084   .     S
C65    C548    1.389   .     S
C66    O91     1.282   .     A
C66    C69     1.456   .     S
C66    O93     1.271   .     A
C67    O94     1.286   .     A
C67    O92     1.280   .     A
C68    C552    1.401   1_554 S
C68    H562    1.084   1_554 S
C70    Cl81    1.766   .     S
C71    I89     2.140   .     S
C71    C542    1.389   1_554 S
C71    C549    1.425   1_554 S
C72    C73     1.430   .     A
C72    C548    1.425   .     S
C72    C551    1.421   .     S
C73    C77     1.424   .     A
C74    C549    1.421   1_554 S
C74    C552    1.417   1_554 S
C75    C76     1.390   .     A
C75    C545    1.401   .     S
C75    C551    1.417   .     S
C76    C77     1.388   .     A
C76    H84     1.085   .     S
C77    Cl82    1.769   .     S
Cl79   C113    1.772   .     S
Cl80   C379    1.771   1_545 S
H83    C221    1.086   .     S
H85    C545    1.084   .     S
O90    Zn106   1.935   .     S
O90    Zn103   1.952   .     S
O90    Zn104   1.956   .     S
O90    Zn105   1.927   .     S
O91    Zn104   1.921   .     S
O92    Zn106   1.933   .     S
O93    Zn105   1.936   .     S
O94    Zn103   1.924   .     S
O95    Zn103   1.932   .     S
O96    Zn106   1.927   .     S
O97    Zn104   1.932   .     S
O98    Zn105   1.943   .     S
O99    Zn106   1.943   .     S
O100   Zn103   1.930   .     S
O101   Zn104   1.930   .     S
O102   Zn105   1.931   .     S
C107   O150    1.274   .     A
C107   C113    1.429   .     S
C107   O152    1.268   .     A
C108   C122    1.393   .     A
C108   C127    1.404   .     A
C108   H139    1.079   .     S
C109   Cl131   1.762   .     S
C109   C121    1.392   .     A
C109   C122    1.405   .     A
C110   O151    1.283   .     A
C110   C112    1.455   .     S
C110   O153    1.265   .     A
C111   C126    1.423   .     A
C111   C120    1.478   .     S
C111   C123    1.415   .     A
C112   C7      1.347   1_655 S
C112   H35     1.088   1_655 S
C114   C117    1.454   .     S
C114   C274    1.336   .     S
C114   Cl292   1.771   .     S
C115   C116    1.436   .     S
C115   C432    1.336   1_545 S
C115   H454    1.086   1_545 S
C116   O148    1.279   .     A
C116   O154    1.279   .     A
C117   O149    1.272   .     A
C117   O155    1.268   .     A
C118   C123    1.387   .     A
C118   H140    1.084   .     S
C118   C601    1.389   .     S
C119   O144    1.282   .     A
C119   C122    1.456   .     S
C119   O146    1.271   .     A
C120   O147    1.286   .     A
C120   O145    1.280   .     A
C121   C605    1.401   1_554 S
C121   H615    1.084   1_554 S
C123   Cl134   1.766   .     S
C124   I142    2.140   .     S
C124   C595    1.389   1_554 S
C124   C602    1.425   1_554 S
C125   C126    1.430   .     A
C125   C601    1.425   .     S
C125   C604    1.421   .     S
C126   C130    1.424   .     A
C127   C602    1.421   1_554 S
C127   C605    1.417   1_554 S
C128   C129    1.390   .     A
C128   C598    1.401   .     S
C128   C604    1.417   .     S
C129   C130    1.388   .     A
C129   H137    1.085   .     S
C130   Cl135   1.769   .     S
Cl132  C7      1.772   1_655 S
Cl133  C432    1.771   1_545 S
H136   C274    1.086   .     S
H138   C598    1.084   .     S
O143   Zn159   1.935   .     S
O143   Zn156   1.952   .     S
O143   Zn157   1.956   .     S
O143   Zn158   1.927   .     S
O144   Zn157   1.921   .     S
O145   Zn159   1.933   .     S
O146   Zn158   1.936   .     S
O147   Zn156   1.924   .     S
O148   Zn156   1.932   .     S
O149   Zn159   1.927   .     S
O150   Zn157   1.932   .     S
O151   Zn158   1.943   .     S
O152   Zn159   1.943   .     S
O153   Zn156   1.930   .     S
O154   Zn157   1.930   .     S
O155   Zn158   1.931   .     S
C160   O203    1.274   .     A
C160   C166    1.429   .     S
C160   O205    1.268   .     A
C161   C175    1.393   .     A
C161   C180    1.404   .     A
C161   H192    1.079   .     S
C162   Cl184   1.762   .     S
C162   C174    1.392   .     A
C162   C175    1.405   .     A
C163   O204    1.283   .     A
C163   C165    1.455   .     S
C163   O206    1.265   .     A
C164   C179    1.423   .     A
C164   C173    1.478   .     S
C164   C176    1.415   .     A
C165   C219    1.347   .     S
C165   H247    1.088   .     S
C166   C271    1.347   1_455 S
C166   Cl291   1.772   1_455 S
C167   C170    1.454   .     S
C167   C327    1.336   .     S
C167   Cl345   1.771   .     S
C168   C169    1.436   .     S
C169   O201    1.279   .     A
C169   O207    1.279   .     A
C170   O202    1.272   .     A
C170   O208    1.268   .     A
C171   C176    1.387   .     A
C171   H193    1.084   .     S
C171   C654    1.389   .     S
C172   O197    1.282   .     A
C172   C175    1.456   .     S
C172   O199    1.271   .     A
C173   O200    1.286   .     A
C173   O198    1.280   .     A
C174   C658    1.401   1_554 S
C174   H668    1.084   1_554 S
C176   Cl187   1.766   .     S
C177   I195    2.140   .     S
C177   C648    1.389   1_554 S
C177   C655    1.425   1_554 S
C178   C179    1.430   .     A
C178   C654    1.425   .     S
C178   C657    1.421   .     S
C179   C183    1.424   .     A
C180   C655    1.421   1_554 S
C180   C658    1.417   1_554 S
C181   C182    1.390   .     A
C181   C651    1.401   .     S
C181   C657    1.417   .     S
C182   C183    1.388   .     A
C182   H190    1.085   .     S
C183   Cl188   1.769   .     S
Cl185  C219    1.772   .     S
H189   C327    1.086   .     S
H191   C651    1.084   .     S
H194   C271    1.088   1_455 S
O196   Zn212   1.935   .     S
O196   Zn209   1.952   .     S
O196   Zn210   1.956   .     S
O196   Zn211   1.927   .     S
O197   Zn210   1.921   .     S
O198   Zn212   1.933   .     S
O199   Zn211   1.936   .     S
O200   Zn209   1.924   .     S
O201   Zn209   1.932   .     S
O202   Zn212   1.927   .     S
O203   Zn210   1.932   .     S
O204   Zn211   1.943   .     S
O205   Zn212   1.943   .     S
O206   Zn209   1.930   .     S
O207   Zn210   1.930   .     S
O208   Zn211   1.931   .     S
C213   O256    1.274   .     A
C213   C219    1.429   .     S
C213   O258    1.268   .     A
C214   C228    1.393   .     A
C214   C233    1.404   .     A
C214   H245    1.079   .     S
C215   Cl237   1.762   .     S
C215   C227    1.392   .     A
C215   C228    1.405   .     A
C216   O257    1.283   .     A
C216   C218    1.455   .     S
C216   O259    1.265   .     A
C217   C232    1.423   .     A
C217   C226    1.478   .     S
C217   C229    1.415   .     A
C218   C272    1.347   .     S
C218   H300    1.088   .     S
C220   C223    1.454   .     S
C220   C380    1.336   .     S
C220   Cl398   1.771   .     S
C221   C222    1.436   .     S
C222   O254    1.279   .     A
C222   O260    1.279   .     A
C223   O255    1.272   .     A
C223   O261    1.268   .     A
C224   C229    1.387   .     A
C224   H246    1.084   .     S
C224   C707    1.389   .     S
C225   O250    1.282   .     A
C225   C228    1.456   .     S
C225   O252    1.271   .     A
C226   O253    1.286   .     A
C226   O251    1.280   .     A
C227   C711    1.401   1_554 S
C227   H721    1.084   1_554 S
C229   Cl240   1.766   .     S
C230   I248    2.140   .     S
C230   C701    1.389   1_554 S
C230   C708    1.425   1_554 S
C231   C232    1.430   .     A
C231   C707    1.425   .     S
C231   C710    1.421   .     S
C232   C236    1.424   .     A
C233   C708    1.421   1_554 S
C233   C711    1.417   1_554 S
C234   C235    1.390   .     A
C234   C704    1.401   .     S
C234   C710    1.417   .     S
C235   C236    1.388   .     A
C235   H243    1.085   .     S
C236   Cl241   1.769   .     S
Cl238  C272    1.772   .     S
H242   C380    1.086   .     S
H244   C704    1.084   .     S
O249   Zn265   1.935   .     S
O249   Zn262   1.952   .     S
O249   Zn263   1.956   .     S
O249   Zn264   1.927   .     S
O250   Zn263   1.921   .     S
O251   Zn265   1.933   .     S
O252   Zn264   1.936   .     S
O253   Zn262   1.924   .     S
O254   Zn262   1.932   .     S
O255   Zn265   1.927   .     S
O256   Zn263   1.932   .     S
O257   Zn264   1.943   .     S
O258   Zn265   1.943   .     S
O259   Zn262   1.930   .     S
O260   Zn263   1.930   .     S
O261   Zn264   1.931   .     S
C266   O309    1.274   .     A
C266   C272    1.429   .     S
C266   O311    1.268   .     A
C267   C281    1.393   .     A
C267   C286    1.404   .     A
C267   H298    1.079   .     S
C268   Cl290   1.762   .     S
C268   C280    1.392   .     A
C268   C281    1.405   .     A
C269   O310    1.283   .     A
C269   C271    1.455   .     S
C269   O312    1.265   .     A
C270   C285    1.423   .     A
C270   C279    1.478   .     S
C270   C282    1.415   .     A
C271   C166    1.347   1_655 S
C271   H194    1.088   1_655 S
C273   C276    1.454   .     S
C273   C433    1.336   .     S
C273   Cl451   1.771   .     S
C274   C275    1.436   .     S
C275   O307    1.279   .     A
C275   O313    1.279   .     A
C276   O308    1.272   .     A
C276   O314    1.268   .     A
C277   C282    1.387   .     A
C277   H299    1.084   .     S
C277   C760    1.389   .     S
C278   O303    1.282   .     A
C278   C281    1.456   .     S
C278   O305    1.271   .     A
C279   O306    1.286   .     A
C279   O304    1.280   .     A
C280   C764    1.401   1_554 S
C280   H774    1.084   1_554 S
C282   Cl293   1.766   .     S
C283   I301    2.140   .     S
C283   C754    1.389   1_554 S
C283   C761    1.425   1_554 S
C284   C285    1.430   .     A
C284   C760    1.425   .     S
C284   C763    1.421   .     S
C285   C289    1.424   .     A
C286   C761    1.421   1_554 S
C286   C764    1.417   1_554 S
C287   C288    1.390   .     A
C287   C757    1.401   .     S
C287   C763    1.417   .     S
C288   C289    1.388   .     A
C288   H296    1.085   .     S
C289   Cl294   1.769   .     S
Cl291  C166    1.772   1_655 S
H295   C433    1.086   .     S
H297   C757    1.084   .     S
O302   Zn318   1.935   .     S
O302   Zn315   1.952   .     S
O302   Zn316   1.956   .     S
O302   Zn317   1.927   .     S
O303   Zn316   1.921   .     S
O304   Zn318   1.933   .     S
O305   Zn317   1.936   .     S
O306   Zn315   1.924   .     S
O307   Zn315   1.932   .     S
O308   Zn318   1.927   .     S
O309   Zn316   1.932   .     S
O310   Zn317   1.943   .     S
O311   Zn318   1.943   .     S
O312   Zn315   1.930   .     S
O313   Zn316   1.930   .     S
O314   Zn317   1.931   .     S
C319   O362    1.274   .     A
C319   C325    1.429   .     S
C319   O364    1.268   .     A
C320   C334    1.393   .     A
C320   C339    1.404   .     A
C320   H351    1.079   .     S
C321   Cl343   1.762   .     S
C321   C333    1.392   .     A
C321   C334    1.405   .     A
C322   O363    1.283   .     A
C322   C324    1.455   .     S
C322   O365    1.265   .     A
C323   C338    1.423   .     A
C323   C332    1.478   .     S
C323   C335    1.415   .     A
C324   C378    1.347   .     S
C324   H406    1.088   .     S
C325   C430    1.347   1_455 S
C325   Cl450   1.772   1_455 S
C326   C329    1.454   .     S
C326   C9      1.336   1_565 S
C326   Cl27    1.771   1_565 S
C327   C328    1.436   .     S
C328   O360    1.279   .     A
C328   O366    1.279   .     A
C329   O361    1.272   .     A
C329   O367    1.268   .     A
C330   C335    1.387   .     A
C330   H352    1.084   .     S
C330   C813    1.389   .     S
C331   O356    1.282   .     A
C331   C334    1.456   .     S
C331   O358    1.271   .     A
C332   O359    1.286   .     A
C332   O357    1.280   .     A
C333   C817    1.401   1_554 S
C333   H827    1.084   1_554 S
C335   Cl346   1.766   .     S
C336   I354    2.140   .     S
C336   C807    1.389   1_554 S
C336   C814    1.425   1_554 S
C337   C338    1.430   .     A
C337   C813    1.425   .     S
C337   C816    1.421   .     S
C338   C342    1.424   .     A
C339   C814    1.421   1_554 S
C339   C817    1.417   1_554 S
C340   C341    1.390   .     A
C340   C810    1.401   .     S
C340   C816    1.417   .     S
C341   C342    1.388   .     A
C341   H349    1.085   .     S
C342   Cl347   1.769   .     S
Cl344  C378    1.772   .     S
H348   C9      1.086   1_565 S
H350   C810    1.084   .     S
H353   C430    1.088   1_455 S
O355   Zn371   1.935   .     S
O355   Zn368   1.952   .     S
O355   Zn369   1.956   .     S
O355   Zn370   1.927   .     S
O356   Zn369   1.921   .     S
O357   Zn371   1.933   .     S
O358   Zn370   1.936   .     S
O359   Zn368   1.924   .     S
O360   Zn368   1.932   .     S
O361   Zn371   1.927   .     S
O362   Zn369   1.932   .     S
O363   Zn370   1.943   .     S
O364   Zn371   1.943   .     S
O365   Zn368   1.930   .     S
O366   Zn369   1.930   .     S
O367   Zn370   1.931   .     S
C372   O415    1.274   .     A
C372   C378    1.429   .     S
C372   O417    1.268   .     A
C373   C387    1.393   .     A
C373   C392    1.404   .     A
C373   H404    1.079   .     S
C374   Cl396   1.762   .     S
C374   C386    1.392   .     A
C374   C387    1.405   .     A
C375   O416    1.283   .     A
C375   C377    1.455   .     S
C375   O418    1.265   .     A
C376   C391    1.423   .     A
C376   C385    1.478   .     S
C376   C388    1.415   .     A
C377   C431    1.347   .     S
C377   H459    1.088   .     S
C379   C382    1.454   .     S
C379   C62     1.336   1_565 S
C379   Cl80    1.771   1_565 S
C380   C381    1.436   .     S
C381   O413    1.279   .     A
C381   O419    1.279   .     A
C382   O414    1.272   .     A
C382   O420    1.268   .     A
C383   C388    1.387   .     A
C383   H405    1.084   .     S
C383   C866    1.389   .     S
C384   O409    1.282   .     A
C384   C387    1.456   .     S
C384   O411    1.271   .     A
C385   O412    1.286   .     A
C385   O410    1.280   .     A
C386   C870    1.401   1_554 S
C386   H880    1.084   1_554 S
C388   Cl399   1.766   .     S
C389   I407    2.140   .     S
C389   C860    1.389   1_554 S
C389   C867    1.425   1_554 S
C390   C391    1.430   .     A
C390   C866    1.425   .     S
C390   C869    1.421   .     S
C391   C395    1.424   .     A
C392   C867    1.421   1_554 S
C392   C870    1.417   1_554 S
C393   C394    1.390   .     A
C393   C863    1.401   .     S
C393   C869    1.417   .     S
C394   C395    1.388   .     A
C394   H402    1.085   .     S
C395   Cl400   1.769   .     S
Cl397  C431    1.772   .     S
H401   C62     1.086   1_565 S
H403   C863    1.084   .     S
O408   Zn424   1.935   .     S
O408   Zn421   1.952   .     S
O408   Zn422   1.956   .     S
O408   Zn423   1.927   .     S
O409   Zn422   1.921   .     S
O410   Zn424   1.933   .     S
O411   Zn423   1.936   .     S
O412   Zn421   1.924   .     S
O413   Zn421   1.932   .     S
O414   Zn424   1.927   .     S
O415   Zn422   1.932   .     S
O416   Zn423   1.943   .     S
O417   Zn424   1.943   .     S
O418   Zn421   1.930   .     S
O419   Zn422   1.930   .     S
O420   Zn423   1.931   .     S
C425   O468    1.274   .     A
C425   C431    1.429   .     S
C425   O470    1.268   .     A
C426   C440    1.393   .     A
C426   C445    1.404   .     A
C426   H457    1.079   .     S
C427   Cl449   1.762   .     S
C427   C439    1.392   .     A
C427   C440    1.405   .     A
C428   O469    1.283   .     A
C428   C430    1.455   .     S
C428   O471    1.265   .     A
C429   C444    1.423   .     A
C429   C438    1.478   .     S
C429   C441    1.415   .     A
C430   C325    1.347   1_655 S
C430   H353    1.088   1_655 S
C432   C435    1.454   .     S
C432   C115    1.336   1_565 S
C432   Cl133   1.771   1_565 S
C433   C434    1.436   .     S
C434   O466    1.279   .     A
C434   O472    1.279   .     A
C435   O467    1.272   .     A
C435   O473    1.268   .     A
C436   C441    1.387   .     A
C436   H458    1.084   .     S
C436   C919    1.389   .     S
C437   O462    1.282   .     A
C437   C440    1.456   .     S
C437   O464    1.271   .     A
C438   O465    1.286   .     A
C438   O463    1.280   .     A
C439   C923    1.401   1_554 S
C439   H933    1.084   1_554 S
C441   Cl452   1.766   .     S
C442   I460    2.140   .     S
C442   C913    1.389   1_554 S
C442   C920    1.425   1_554 S
C443   C444    1.430   .     A
C443   C919    1.425   .     S
C443   C922    1.421   .     S
C444   C448    1.424   .     A
C445   C920    1.421   1_554 S
C445   C923    1.417   1_554 S
C446   C447    1.390   .     A
C446   C916    1.401   .     S
C446   C922    1.417   .     S
C447   C448    1.388   .     A
C447   H455    1.085   .     S
C448   Cl453   1.769   .     S
Cl450  C325    1.772   1_655 S
H454   C115    1.086   1_565 S
H456   C916    1.084   .     S
O461   Zn477   1.935   .     S
O461   Zn474   1.952   .     S
O461   Zn475   1.956   .     S
O461   Zn476   1.927   .     S
O462   Zn475   1.921   .     S
O463   Zn477   1.933   .     S
O464   Zn476   1.936   .     S
O465   Zn474   1.924   .     S
O466   Zn474   1.932   .     S
O467   Zn477   1.927   .     S
O468   Zn475   1.932   .     S
O469   Zn476   1.943   .     S
O470   Zn477   1.943   .     S
O471   Zn474   1.930   .     S
O472   Zn475   1.930   .     S
O473   Zn476   1.931   .     S
C478   O521    1.274   .     A
C478   C484    1.429   .     S
C478   O523    1.268   .     A
C479   C493    1.393   .     A
C479   C498    1.404   .     A
C479   H510    1.079   .     S
C480   Cl502   1.762   .     S
C480   C492    1.392   .     A
C480   C493    1.405   .     A
C481   O522    1.283   .     A
C481   C483    1.455   .     S
C481   O524    1.265   .     A
C482   C497    1.423   .     A
C482   C491    1.478   .     S
C482   C494    1.415   .     A
C483   C537    1.347   .     S
C483   H565    1.088   .     S
C484   C589    1.347   1_455 S
C484   Cl609   1.772   1_455 S
C485   C488    1.454   .     S
C485   C645    1.336   .     S
C485   Cl663   1.771   .     S
C486   C487    1.436   .     S
C486   C803    1.336   1_545 S
C486   H825    1.086   1_545 S
C487   O519    1.279   .     A
C487   O525    1.279   .     A
C488   O520    1.272   .     A
C488   O526    1.268   .     A
C489   C494    1.387   .     A
C489   H511    1.084   .     S
C489   C18     1.389   1_556 S
C490   O515    1.282   .     A
C490   C493    1.456   .     S
C490   O517    1.271   .     A
C491   O518    1.286   .     A
C491   O516    1.280   .     A
C494   Cl505   1.766   .     S
C495   I513    2.140   .     S
C496   C497    1.430   .     A
C496   C18     1.425   1_556 S
C496   C21     1.421   1_556 S
C497   C501    1.424   .     A
C499   C500    1.390   .     A
C499   C15     1.401   1_556 S
C499   C21     1.417   1_556 S
C500   C501    1.388   .     A
C500   H508    1.085   .     S
C501   Cl506   1.769   .     S
Cl503  C537    1.772   .     S
Cl504  C803    1.771   1_545 S
H507   C645    1.086   .     S
H509   C15     1.084   1_556 S
H512   C589    1.088   1_455 S
O514   Zn530   1.935   .     S
O514   Zn527   1.952   .     S
O514   Zn528   1.956   .     S
O514   Zn529   1.927   .     S
O515   Zn528   1.921   .     S
O516   Zn530   1.933   .     S
O517   Zn529   1.936   .     S
O518   Zn527   1.924   .     S
O519   Zn527   1.932   .     S
O520   Zn530   1.927   .     S
O521   Zn528   1.932   .     S
O522   Zn529   1.943   .     S
O523   Zn530   1.943   .     S
O524   Zn527   1.930   .     S
O525   Zn528   1.930   .     S
O526   Zn529   1.931   .     S
C531   O574    1.274   .     A
C531   C537    1.429   .     S
C531   O576    1.268   .     A
C532   C546    1.393   .     A
C532   C551    1.404   .     A
C532   H563    1.079   .     S
C533   Cl555   1.762   .     S
C533   C545    1.392   .     A
C533   C546    1.405   .     A
C534   O575    1.283   .     A
C534   C536    1.455   .     S
C534   O577    1.265   .     A
C535   C550    1.423   .     A
C535   C544    1.478   .     S
C535   C547    1.415   .     A
C536   C590    1.347   .     S
C536   H618    1.088   .     S
C538   C541    1.454   .     S
C538   C698    1.336   .     S
C538   Cl716   1.771   .     S
C539   C540    1.436   .     S
C539   C856    1.336   1_545 S
C539   H878    1.086   1_545 S
C540   O572    1.279   .     A
C540   O578    1.279   .     A
C541   O573    1.272   .     A
C541   O579    1.268   .     A
C542   C547    1.387   .     A
C542   H564    1.084   .     S
C542   C71     1.389   1_556 S
C543   O568    1.282   .     A
C543   C546    1.456   .     S
C543   O570    1.271   .     A
C544   O571    1.286   .     A
C544   O569    1.280   .     A
C547   Cl558   1.766   .     S
C548   I566    2.140   .     S
C549   C550    1.430   .     A
C549   C71     1.425   1_556 S
C549   C74     1.421   1_556 S
C550   C554    1.424   .     A
C552   C553    1.390   .     A
C552   C68     1.401   1_556 S
C552   C74     1.417   1_556 S
C553   C554    1.388   .     A
C553   H561    1.085   .     S
C554   Cl559   1.769   .     S
Cl556  C590    1.772   .     S
Cl557  C856    1.771   1_545 S
H560   C698    1.086   .     S
H562   C68     1.084   1_556 S
O567   Zn583   1.935   .     S
O567   Zn580   1.952   .     S
O567   Zn581   1.956   .     S
O567   Zn582   1.927   .     S
O568   Zn581   1.921   .     S
O569   Zn583   1.933   .     S
O570   Zn582   1.936   .     S
O571   Zn580   1.924   .     S
O572   Zn580   1.932   .     S
O573   Zn583   1.927   .     S
O574   Zn581   1.932   .     S
O575   Zn582   1.943   .     S
O576   Zn583   1.943   .     S
O577   Zn580   1.930   .     S
O578   Zn581   1.930   .     S
O579   Zn582   1.931   .     S
C584   O627    1.274   .     A
C584   C590    1.429   .     S
C584   O629    1.268   .     A
C585   C599    1.393   .     A
C585   C604    1.404   .     A
C585   H616    1.079   .     S
C586   Cl608   1.762   .     S
C586   C598    1.392   .     A
C586   C599    1.405   .     A
C587   O628    1.283   .     A
C587   C589    1.455   .     S
C587   O630    1.265   .     A
C588   C603    1.423   .     A
C588   C597    1.478   .     S
C588   C600    1.415   .     A
C589   C484    1.347   1_655 S
C589   H512    1.088   1_655 S
C591   C594    1.454   .     S
C591   C751    1.336   .     S
C591   Cl769   1.771   .     S
C592   C593    1.436   .     S
C592   C909    1.336   1_545 S
C592   H931    1.086   1_545 S
C593   O625    1.279   .     A
C593   O631    1.279   .     A
C594   O626    1.272   .     A
C594   O632    1.268   .     A
C595   C600    1.387   .     A
C595   H617    1.084   .     S
C595   C124    1.389   1_556 S
C596   O621    1.282   .     A
C596   C599    1.456   .     S
C596   O623    1.271   .     A
C597   O624    1.286   .     A
C597   O622    1.280   .     A
C600   Cl611   1.766   .     S
C601   I619    2.140   .     S
C602   C603    1.430   .     A
C602   C124    1.425   1_556 S
C602   C127    1.421   1_556 S
C603   C607    1.424   .     A
C605   C606    1.390   .     A
C605   C121    1.401   1_556 S
C605   C127    1.417   1_556 S
C606   C607    1.388   .     A
C606   H614    1.085   .     S
C607   Cl612   1.769   .     S
Cl609  C484    1.772   1_655 S
Cl610  C909    1.771   1_545 S
H613   C751    1.086   .     S
H615   C121    1.084   1_556 S
O620   Zn636   1.935   .     S
O620   Zn633   1.952   .     S
O620   Zn634   1.956   .     S
O620   Zn635   1.927   .     S
O621   Zn634   1.921   .     S
O622   Zn636   1.933   .     S
O623   Zn635   1.936   .     S
O624   Zn633   1.924   .     S
O625   Zn633   1.932   .     S
O626   Zn636   1.927   .     S
O627   Zn634   1.932   .     S
O628   Zn635   1.943   .     S
O629   Zn636   1.943   .     S
O630   Zn633   1.930   .     S
O631   Zn634   1.930   .     S
O632   Zn635   1.931   .     S
C637   O680    1.274   .     A
C637   C643    1.429   .     S
C637   O682    1.268   .     A
C638   C652    1.393   .     A
C638   C657    1.404   .     A
C638   H669    1.079   .     S
C639   Cl661   1.762   .     S
C639   C651    1.392   .     A
C639   C652    1.405   .     A
C640   O681    1.283   .     A
C640   C642    1.455   .     S
C640   O683    1.265   .     A
C641   C656    1.423   .     A
C641   C650    1.478   .     S
C641   C653    1.415   .     A
C642   C696    1.347   .     S
C642   H724    1.088   .     S
C643   C748    1.347   1_455 S
C643   Cl768   1.772   1_455 S
C644   C647    1.454   .     S
C644   C804    1.336   .     S
C644   Cl822   1.771   .     S
C645   C646    1.436   .     S
C646   O678    1.279   .     A
C646   O684    1.279   .     A
C647   O679    1.272   .     A
C647   O685    1.268   .     A
C648   C653    1.387   .     A
C648   H670    1.084   .     S
C648   C177    1.389   1_556 S
C649   O674    1.282   .     A
C649   C652    1.456   .     S
C649   O676    1.271   .     A
C650   O677    1.286   .     A
C650   O675    1.280   .     A
C653   Cl664   1.766   .     S
C654   I672    2.140   .     S
C655   C656    1.430   .     A
C655   C177    1.425   1_556 S
C655   C180    1.421   1_556 S
C656   C660    1.424   .     A
C658   C659    1.390   .     A
C658   C174    1.401   1_556 S
C658   C180    1.417   1_556 S
C659   C660    1.388   .     A
C659   H667    1.085   .     S
C660   Cl665   1.769   .     S
Cl662  C696    1.772   .     S
H666   C804    1.086   .     S
H668   C174    1.084   1_556 S
H671   C748    1.088   1_455 S
O673   Zn689   1.935   .     S
O673   Zn686   1.952   .     S
O673   Zn687   1.956   .     S
O673   Zn688   1.927   .     S
O674   Zn687   1.921   .     S
O675   Zn689   1.933   .     S
O676   Zn688   1.936   .     S
O677   Zn686   1.924   .     S
O678   Zn686   1.932   .     S
O679   Zn689   1.927   .     S
O680   Zn687   1.932   .     S
O681   Zn688   1.943   .     S
O682   Zn689   1.943   .     S
O683   Zn686   1.930   .     S
O684   Zn687   1.930   .     S
O685   Zn688   1.931   .     S
C690   O733    1.274   .     A
C690   C696    1.429   .     S
C690   O735    1.268   .     A
C691   C705    1.393   .     A
C691   C710    1.404   .     A
C691   H722    1.079   .     S
C692   Cl714   1.762   .     S
C692   C704    1.392   .     A
C692   C705    1.405   .     A
C693   O734    1.283   .     A
C693   C695    1.455   .     S
C693   O736    1.265   .     A
C694   C709    1.423   .     A
C694   C703    1.478   .     S
C694   C706    1.415   .     A
C695   C749    1.347   .     S
C695   H777    1.088   .     S
C697   C700    1.454   .     S
C697   C857    1.336   .     S
C697   Cl875   1.771   .     S
C698   C699    1.436   .     S
C699   O731    1.279   .     A
C699   O737    1.279   .     A
C700   O732    1.272   .     A
C700   O738    1.268   .     A
C701   C706    1.387   .     A
C701   H723    1.084   .     S
C701   C230    1.389   1_556 S
C702   O727    1.282   .     A
C702   C705    1.456   .     S
C702   O729    1.271   .     A
C703   O730    1.286   .     A
C703   O728    1.280   .     A
C706   Cl717   1.766   .     S
C707   I725    2.140   .     S
C708   C709    1.430   .     A
C708   C230    1.425   1_556 S
C708   C233    1.421   1_556 S
C709   C713    1.424   .     A
C711   C712    1.390   .     A
C711   C227    1.401   1_556 S
C711   C233    1.417   1_556 S
C712   C713    1.388   .     A
C712   H720    1.085   .     S
C713   Cl718   1.769   .     S
Cl715  C749    1.772   .     S
H719   C857    1.086   .     S
H721   C227    1.084   1_556 S
O726   Zn742   1.935   .     S
O726   Zn739   1.952   .     S
O726   Zn740   1.956   .     S
O726   Zn741   1.927   .     S
O727   Zn740   1.921   .     S
O728   Zn742   1.933   .     S
O729   Zn741   1.936   .     S
O730   Zn739   1.924   .     S
O731   Zn739   1.932   .     S
O732   Zn742   1.927   .     S
O733   Zn740   1.932   .     S
O734   Zn741   1.943   .     S
O735   Zn742   1.943   .     S
O736   Zn739   1.930   .     S
O737   Zn740   1.930   .     S
O738   Zn741   1.931   .     S
C743   O786    1.274   .     A
C743   C749    1.429   .     S
C743   O788    1.268   .     A
C744   C758    1.393   .     A
C744   C763    1.404   .     A
C744   H775    1.079   .     S
C745   Cl767   1.762   .     S
C745   C757    1.392   .     A
C745   C758    1.405   .     A
C746   O787    1.283   .     A
C746   C748    1.455   .     S
C746   O789    1.265   .     A
C747   C762    1.423   .     A
C747   C756    1.478   .     S
C747   C759    1.415   .     A
C748   C643    1.347   1_655 S
C748   H671    1.088   1_655 S
C750   C753    1.454   .     S
C750   C910    1.336   .     S
C750   Cl928   1.771   .     S
C751   C752    1.436   .     S
C752   O784    1.279   .     A
C752   O790    1.279   .     A
C753   O785    1.272   .     A
C753   O791    1.268   .     A
C754   C759    1.387   .     A
C754   H776    1.084   .     S
C754   C283    1.389   1_556 S
C755   O780    1.282   .     A
C755   C758    1.456   .     S
C755   O782    1.271   .     A
C756   O783    1.286   .     A
C756   O781    1.280   .     A
C759   Cl770   1.766   .     S
C760   I778    2.140   .     S
C761   C762    1.430   .     A
C761   C283    1.425   1_556 S
C761   C286    1.421   1_556 S
C762   C766    1.424   .     A
C764   C765    1.390   .     A
C764   C280    1.401   1_556 S
C764   C286    1.417   1_556 S
C765   C766    1.388   .     A
C765   H773    1.085   .     S
C766   Cl771   1.769   .     S
Cl768  C643    1.772   1_655 S
H772   C910    1.086   .     S
H774   C280    1.084   1_556 S
O779   Zn795   1.935   .     S
O779   Zn792   1.952   .     S
O779   Zn793   1.956   .     S
O779   Zn794   1.927   .     S
O780   Zn793   1.921   .     S
O781   Zn795   1.933   .     S
O782   Zn794   1.936   .     S
O783   Zn792   1.924   .     S
O784   Zn792   1.932   .     S
O785   Zn795   1.927   .     S
O786   Zn793   1.932   .     S
O787   Zn794   1.943   .     S
O788   Zn795   1.943   .     S
O789   Zn792   1.930   .     S
O790   Zn793   1.930   .     S
O791   Zn794   1.931   .     S
C796   O839    1.274   .     A
C796   C802    1.429   .     S
C796   O841    1.268   .     A
C797   C811    1.393   .     A
C797   C816    1.404   .     A
C797   H828    1.079   .     S
C798   Cl820   1.762   .     S
C798   C810    1.392   .     A
C798   C811    1.405   .     A
C799   O840    1.283   .     A
C799   C801    1.455   .     S
C799   O842    1.265   .     A
C800   C815    1.423   .     A
C800   C809    1.478   .     S
C800   C812    1.415   .     A
C801   C855    1.347   .     S
C801   H883    1.088   .     S
C802   C907    1.347   1_455 S
C802   Cl927   1.772   1_455 S
C803   C806    1.454   .     S
C803   C486    1.336   1_565 S
C803   Cl504   1.771   1_565 S
C804   C805    1.436   .     S
C805   O837    1.279   .     A
C805   O843    1.279   .     A
C806   O838    1.272   .     A
C806   O844    1.268   .     A
C807   C812    1.387   .     A
C807   H829    1.084   .     S
C807   C336    1.389   1_556 S
C808   O833    1.282   .     A
C808   C811    1.456   .     S
C808   O835    1.271   .     A
C809   O836    1.286   .     A
C809   O834    1.280   .     A
C812   Cl823   1.766   .     S
C813   I831    2.140   .     S
C814   C815    1.430   .     A
C814   C336    1.425   1_556 S
C814   C339    1.421   1_556 S
C815   C819    1.424   .     A
C817   C818    1.390   .     A
C817   C333    1.401   1_556 S
C817   C339    1.417   1_556 S
C818   C819    1.388   .     A
C818   H826    1.085   .     S
C819   Cl824   1.769   .     S
Cl821  C855    1.772   .     S
H825   C486    1.086   1_565 S
H827   C333    1.084   1_556 S
H830   C907    1.088   1_455 S
O832   Zn848   1.935   .     S
O832   Zn845   1.952   .     S
O832   Zn846   1.956   .     S
O832   Zn847   1.927   .     S
O833   Zn846   1.921   .     S
O834   Zn848   1.933   .     S
O835   Zn847   1.936   .     S
O836   Zn845   1.924   .     S
O837   Zn845   1.932   .     S
O838   Zn848   1.927   .     S
O839   Zn846   1.932   .     S
O840   Zn847   1.943   .     S
O841   Zn848   1.943   .     S
O842   Zn845   1.930   .     S
O843   Zn846   1.930   .     S
O844   Zn847   1.931   .     S
C849   O892    1.274   .     A
C849   C855    1.429   .     S
C849   O894    1.268   .     A
C850   C864    1.393   .     A
C850   C869    1.404   .     A
C850   H881    1.079   .     S
C851   Cl873   1.762   .     S
C851   C863    1.392   .     A
C851   C864    1.405   .     A
C852   O893    1.283   .     A
C852   C854    1.455   .     S
C852   O895    1.265   .     A
C853   C868    1.423   .     A
C853   C862    1.478   .     S
C853   C865    1.415   .     A
C854   C908    1.347   .     S
C854   H936    1.088   .     S
C856   C859    1.454   .     S
C856   C539    1.336   1_565 S
C856   Cl557   1.771   1_565 S
C857   C858    1.436   .     S
C858   O890    1.279   .     A
C858   O896    1.279   .     A
C859   O891    1.272   .     A
C859   O897    1.268   .     A
C860   C865    1.387   .     A
C860   H882    1.084   .     S
C860   C389    1.389   1_556 S
C861   O886    1.282   .     A
C861   C864    1.456   .     S
C861   O888    1.271   .     A
C862   O889    1.286   .     A
C862   O887    1.280   .     A
C865   Cl876   1.766   .     S
C866   I884    2.140   .     S
C867   C868    1.430   .     A
C867   C389    1.425   1_556 S
C867   C392    1.421   1_556 S
C868   C872    1.424   .     A
C870   C871    1.390   .     A
C870   C386    1.401   1_556 S
C870   C392    1.417   1_556 S
C871   C872    1.388   .     A
C871   H879    1.085   .     S
C872   Cl877   1.769   .     S
Cl874  C908    1.772   .     S
H878   C539    1.086   1_565 S
H880   C386    1.084   1_556 S
O885   Zn901   1.935   .     S
O885   Zn898   1.952   .     S
O885   Zn899   1.956   .     S
O885   Zn900   1.927   .     S
O886   Zn899   1.921   .     S
O887   Zn901   1.933   .     S
O888   Zn900   1.936   .     S
O889   Zn898   1.924   .     S
O890   Zn898   1.932   .     S
O891   Zn901   1.927   .     S
O892   Zn899   1.932   .     S
O893   Zn900   1.943   .     S
O894   Zn901   1.943   .     S
O895   Zn898   1.930   .     S
O896   Zn899   1.930   .     S
O897   Zn900   1.931   .     S
C902   O945    1.274   .     A
C902   C908    1.429   .     S
C902   O947    1.268   .     A
C903   C917    1.393   .     A
C903   C922    1.404   .     A
C903   H934    1.079   .     S
C904   Cl926   1.762   .     S
C904   C916    1.392   .     A
C904   C917    1.405   .     A
C905   O946    1.283   .     A
C905   C907    1.455   .     S
C905   O948    1.265   .     A
C906   C921    1.423   .     A
C906   C915    1.478   .     S
C906   C918    1.415   .     A
C907   C802    1.347   1_655 S
C907   H830    1.088   1_655 S
C909   C912    1.454   .     S
C909   C592    1.336   1_565 S
C909   Cl610   1.771   1_565 S
C910   C911    1.436   .     S
C911   O943    1.279   .     A
C911   O949    1.279   .     A
C912   O944    1.272   .     A
C912   O950    1.268   .     A
C913   C918    1.387   .     A
C913   H935    1.084   .     S
C913   C442    1.389   1_556 S
C914   O939    1.282   .     A
C914   C917    1.456   .     S
C914   O941    1.271   .     A
C915   O942    1.286   .     A
C915   O940    1.280   .     A
C918   Cl929   1.766   .     S
C919   I937    2.140   .     S
C920   C921    1.430   .     A
C920   C442    1.425   1_556 S
C920   C445    1.421   1_556 S
C921   C925    1.424   .     A
C923   C924    1.390   .     A
C923   C439    1.401   1_556 S
C923   C445    1.417   1_556 S
C924   C925    1.388   .     A
C924   H932    1.085   .     S
C925   Cl930   1.769   .     S
Cl927  C802    1.772   1_655 S
H931   C592    1.086   1_565 S
H933   C439    1.084   1_556 S
O938   Zn954   1.935   .     S
O938   Zn951   1.952   .     S
O938   Zn952   1.956   .     S
O938   Zn953   1.927   .     S
O939   Zn952   1.921   .     S
O940   Zn954   1.933   .     S
O941   Zn953   1.936   .     S
O942   Zn951   1.924   .     S
O943   Zn951   1.932   .     S
O944   Zn954   1.927   .     S
O945   Zn952   1.932   .     S
O946   Zn953   1.943   .     S
O947   Zn954   1.943   .     S
O948   Zn951   1.930   .     S
O949   Zn952   1.930   .     S
O950   Zn953   1.931   .     S
