data_str_m1_o10_o16_pcu_sym.141
_audit_creation_date              2020-01-03
_audit_creation_method            'Materials Studio'
_symmetry_space_group_name_H-M    'P1'
_symmetry_Int_Tables_number       1
_symmetry_cell_setting            triclinic
loop_
_symmetry_equiv_pos_as_xyz
  x,y,z
_cell_length_a                    32.5713
_cell_length_b                    32.4293
_cell_length_c                    31.2114
_cell_angle_alpha                 95.9770
_cell_angle_beta                  74.4626
_cell_angle_gamma                 98.1160
loop_
_atom_site_label
_atom_site_type_symbol
_atom_site_fract_x
_atom_site_fract_y
_atom_site_fract_z
_atom_site_U_iso_or_equiv
_atom_site_adp_type
_atom_site_occupancy
C1     C     0.05303   0.16030   0.25970   0.00000  Uiso   1.00
C2     C     0.07459   0.17542   0.48500   0.00000  Uiso   1.00
C3     C     0.10241   0.16716   0.00892   0.00000  Uiso   1.00
C4     C     0.14724   0.17129   0.49039   0.00000  Uiso   1.00
C5     C     0.16330   0.17991   0.44488   0.00000  Uiso   1.00
C6     C     0.17622   0.16296   0.01458   0.00000  Uiso   1.00
C7     C     0.21839   0.15529   0.49045   0.00000  Uiso   1.00
C8     C     0.23410   0.16554   0.44637   0.00000  Uiso   1.00
C9     C     0.20770   0.18043   0.42489   0.00000  Uiso   1.00
C10    C     0.16533   0.16248   0.06172   0.00000  Uiso   1.00
C11    C     0.23122   0.13212   0.05605   0.00000  Uiso   1.00
C12    C     0.28078   0.17362   0.24012   0.00000  Uiso   1.00
C13    C     0.13441   0.18575   0.41980   0.00000  Uiso   1.00
C14    C     0.32653   0.17376   0.23550   0.00000  Uiso   1.00
C15    C     0.00717   0.15780   0.26646   0.00000  Uiso   1.00
C16    C     0.17805   0.32199   0.23342   0.00000  Uiso   1.00
C17    C     0.15282   0.01197   0.26448   0.00000  Uiso   1.00
C18    C     0.15594   0.05605   0.26071   0.00000  Uiso   1.00
C19    C     0.17617   0.27782   0.23958   0.00000  Uiso   1.00
C20    C     0.18549   0.14847   0.12957   0.00000  Uiso   1.00
C21    C     0.14833   0.18445   0.37082   0.00000  Uiso   1.00
C22    C     0.24503   0.13891   0.01108   0.00000  Uiso   1.00
C23    C     0.19224   0.14477   0.08162   0.00000  Uiso   1.00
C24    C     0.09008   0.18555   0.44062   0.00000  Uiso   1.00
H25    H     0.25260   0.12016   0.07177   0.00000  Uiso   1.00
H26    H     0.13117   0.33241   0.29422   0.00000  Uiso   1.00
H27    H     0.26723   0.16283   0.42873   0.00000  Uiso   1.00
H28    H     0.27680   0.13191   0.49254   0.00000  Uiso   1.00
H29    H     0.08781   0.15511   0.04115   0.00000  Uiso   1.00
H30    H     0.04043   0.17105   0.00030   0.00000  Uiso   1.00
H31    H     0.22233   0.19062   0.39176   0.00000  Uiso   1.00
H32    H     0.01579   0.18597   0.20585   0.00000  Uiso   1.00
O33    O     0.16667   0.16667   0.25000   0.00000  Uiso   1.00
O34    O     0.17930   0.08019   0.28213   0.00000  Uiso   1.00
O35    O     0.14632   0.26085   0.27013   0.00000  Uiso   1.00
O36    O     0.07412   0.13291   0.23413   0.00000  Uiso   1.00
O37    O     0.26693   0.19272   0.21360   0.00000  Uiso   1.00
O38    O     0.07071   0.18878   0.28213   0.00000  Uiso   1.00
O39    O     0.25491   0.15226   0.27013   0.00000  Uiso   1.00
O40    O     0.13760   0.06944   0.23413   0.00000  Uiso   1.00
O41    O     0.20345   0.25620   0.21360   0.00000  Uiso   1.00
O42    O     0.15451   0.12637   0.15458   0.00000  Uiso   1.00
O43    O     0.12940   0.20391   0.34968   0.00000  Uiso   1.00
O44    O     0.20824   0.17759   0.14606   0.00000  Uiso   1.00
O45    O     0.17451   0.15880   0.34968   0.00000  Uiso   1.00
Zn46   Zn    0.19338   0.13994   0.28734   0.00000  Uiso   1.00
Zn47   Zn    0.13379   0.12458   0.21875   0.00000  Uiso   1.00
Zn48   Zn    0.21056   0.19775   0.20657   0.00000  Uiso   1.00
Zn49   Zn    0.12893   0.20439   0.28733   0.00000  Uiso   1.00
O50    O     0.31234   0.14806   0.30757   0.00000  Uiso   1.00
C51    C     0.32514   0.11664   0.32786   0.00000  Uiso   1.00
H52    H     0.30477   0.11593   0.36263   0.00000  Uiso   1.00
H53    H     0.02538   0.12381   0.33085   0.00000  Uiso   1.00
C54    C     0.31767   0.07343   0.30407   0.00000  Uiso   1.00
H55    H     0.28338   0.06671   0.30353   0.00000  Uiso   1.00
H56    H     0.00429   0.07291   0.26910   0.00000  Uiso   1.00
C57    C     0.32914   0.03936   0.32757   0.00000  Uiso   1.00
H58    H     0.03022   0.04510   0.32768   0.00000  Uiso   1.00
H59    H     0.32330   0.00853   0.30974   0.00000  Uiso   1.00
H60    H     0.30904   0.03853   0.36246   0.00000  Uiso   1.00
O61    O     0.20752   0.00669   0.19742   0.00000  Uiso   1.00
C62    C     0.19112   0.33128   0.15946   0.00000  Uiso   1.00
H63    H     0.15757   0.00584   0.16667   0.00000  Uiso   1.00
H64    H     0.19170   0.29764   0.14794   0.00000  Uiso   1.00
C65    C     0.21911   0.02427   0.12212   0.00000  Uiso   1.00
H66    H     0.21957   0.05790   0.13371   0.00000  Uiso   1.00
H67    H     0.25251   0.01612   0.11365   0.00000  Uiso   1.00
C68    C     0.20229   0.01700   0.08044   0.00000  Uiso   1.00
H69    H     0.20145   0.31688   0.06823   0.00000  Uiso   1.00
H70    H     0.22374   0.03596   0.05377   0.00000  Uiso   1.00
H71    H     0.16950   0.02648   0.08780   0.00000  Uiso   1.00
C72    C     0.13265   0.18855   0.09015   0.00000  Uiso   1.00
O73    O     0.10670   0.17488   0.12316   0.00000  Uiso   1.00
O74    O     0.13157   0.22882   0.07853   0.00000  Uiso   1.00
H75    H     0.10809   0.24355   0.10012   0.00000  Uiso   1.00
O76    O     0.06164   0.18720   0.41486   0.00000  Uiso   1.00
C77    C     0.03424   0.21831   0.43286   0.00000  Uiso   1.00
H78    H     0.05172   0.24707   0.44562   0.00000  Uiso   1.00
H79    H     0.00723   0.20591   0.46029   0.00000  Uiso   1.00
C80    C     0.01587   0.23005   0.39616   0.00000  Uiso   1.00
H81    H     0.04252   0.24313   0.36882   0.00000  Uiso   1.00
H82    H     0.33254   0.20165   0.38221   0.00000  Uiso   1.00
C83    C     0.31757   0.26217   0.41377   0.00000  Uiso   1.00
H84    H     0.29039   0.24959   0.44086   0.00000  Uiso   1.00
H85    H     0.30465   0.26966   0.38636   0.00000  Uiso   1.00
H86    H     0.00055   0.29134   0.42672   0.00000  Uiso   1.00
C87    C     0.38637   0.16030   0.25970   0.00000  Uiso   1.00
C88    C     0.40793   0.17542   0.48500   0.00000  Uiso   1.00
C89    C     0.43574   0.16716   0.00892   0.00000  Uiso   1.00
C90    C     0.48057   0.17129   0.49039   0.00000  Uiso   1.00
C91    C     0.49663   0.17991   0.44488   0.00000  Uiso   1.00
C92    C     0.50955   0.16296   0.01458   0.00000  Uiso   1.00
C93    C     0.55172   0.15529   0.49045   0.00000  Uiso   1.00
C94    C     0.56744   0.16554   0.44637   0.00000  Uiso   1.00
C95    C     0.54103   0.18043   0.42489   0.00000  Uiso   1.00
C96    C     0.49867   0.16248   0.06172   0.00000  Uiso   1.00
C97    C     0.56455   0.13212   0.05605   0.00000  Uiso   1.00
C98    C     0.61411   0.17362   0.24012   0.00000  Uiso   1.00
C99    C     0.46774   0.18575   0.41980   0.00000  Uiso   1.00
C100   C     0.65986   0.17376   0.23550   0.00000  Uiso   1.00
C101   C     0.34050   0.15780   0.26646   0.00000  Uiso   1.00
C102   C     0.51139   0.32199   0.23342   0.00000  Uiso   1.00
C103   C     0.48616   0.01197   0.26448   0.00000  Uiso   1.00
C104   C     0.48927   0.05605   0.26071   0.00000  Uiso   1.00
C105   C     0.50950   0.27782   0.23958   0.00000  Uiso   1.00
C106   C     0.51882   0.14847   0.12957   0.00000  Uiso   1.00
C107   C     0.48166   0.18445   0.37082   0.00000  Uiso   1.00
C108   C     0.57836   0.13891   0.01108   0.00000  Uiso   1.00
C109   C     0.52557   0.14477   0.08162   0.00000  Uiso   1.00
C110   C     0.42341   0.18555   0.44062   0.00000  Uiso   1.00
H111   H     0.58593   0.12016   0.07177   0.00000  Uiso   1.00
H112   H     0.46450   0.33241   0.29422   0.00000  Uiso   1.00
H113   H     0.60056   0.16283   0.42873   0.00000  Uiso   1.00
H114   H     0.61014   0.13191   0.49254   0.00000  Uiso   1.00
H115   H     0.42114   0.15511   0.04115   0.00000  Uiso   1.00
H116   H     0.37376   0.17105   0.00030   0.00000  Uiso   1.00
H117   H     0.55566   0.19062   0.39176   0.00000  Uiso   1.00
H118   H     0.34912   0.18597   0.20585   0.00000  Uiso   1.00
O119   O     0.50000   0.16667   0.25000   0.00000  Uiso   1.00
O120   O     0.51264   0.08019   0.28213   0.00000  Uiso   1.00
O121   O     0.47965   0.26085   0.27013   0.00000  Uiso   1.00
O122   O     0.40745   0.13291   0.23413   0.00000  Uiso   1.00
O123   O     0.60026   0.19272   0.21360   0.00000  Uiso   1.00
O124   O     0.40405   0.18878   0.28213   0.00000  Uiso   1.00
O125   O     0.58824   0.15226   0.27013   0.00000  Uiso   1.00
O126   O     0.47093   0.06944   0.23413   0.00000  Uiso   1.00
O127   O     0.53678   0.25620   0.21360   0.00000  Uiso   1.00
O128   O     0.48784   0.12637   0.15458   0.00000  Uiso   1.00
O129   O     0.46274   0.20391   0.34968   0.00000  Uiso   1.00
O130   O     0.54157   0.17759   0.14606   0.00000  Uiso   1.00
O131   O     0.50785   0.15880   0.34968   0.00000  Uiso   1.00
Zn132  Zn    0.52672   0.13994   0.28734   0.00000  Uiso   1.00
Zn133  Zn    0.46713   0.12458   0.21875   0.00000  Uiso   1.00
Zn134  Zn    0.54389   0.19775   0.20657   0.00000  Uiso   1.00
Zn135  Zn    0.46226   0.20439   0.28733   0.00000  Uiso   1.00
O136   O     0.64567   0.14806   0.30757   0.00000  Uiso   1.00
C137   C     0.65847   0.11664   0.32786   0.00000  Uiso   1.00
H138   H     0.63810   0.11593   0.36263   0.00000  Uiso   1.00
H139   H     0.35871   0.12381   0.33085   0.00000  Uiso   1.00
C140   C     0.65100   0.07343   0.30407   0.00000  Uiso   1.00
H141   H     0.61671   0.06671   0.30353   0.00000  Uiso   1.00
H142   H     0.33763   0.07291   0.26910   0.00000  Uiso   1.00
C143   C     0.66247   0.03936   0.32757   0.00000  Uiso   1.00
H144   H     0.36356   0.04510   0.32768   0.00000  Uiso   1.00
H145   H     0.65663   0.00853   0.30974   0.00000  Uiso   1.00
H146   H     0.64238   0.03853   0.36246   0.00000  Uiso   1.00
O147   O     0.54086   0.00669   0.19742   0.00000  Uiso   1.00
C148   C     0.52446   0.33128   0.15946   0.00000  Uiso   1.00
H149   H     0.49090   0.00584   0.16667   0.00000  Uiso   1.00
H150   H     0.52504   0.29764   0.14794   0.00000  Uiso   1.00
C151   C     0.55245   0.02427   0.12212   0.00000  Uiso   1.00
H152   H     0.55290   0.05790   0.13371   0.00000  Uiso   1.00
H153   H     0.58585   0.01612   0.11365   0.00000  Uiso   1.00
C154   C     0.53562   0.01700   0.08044   0.00000  Uiso   1.00
H155   H     0.53479   0.31688   0.06823   0.00000  Uiso   1.00
H156   H     0.55707   0.03596   0.05377   0.00000  Uiso   1.00
H157   H     0.50284   0.02648   0.08780   0.00000  Uiso   1.00
C158   C     0.46598   0.18855   0.09015   0.00000  Uiso   1.00
O159   O     0.44004   0.17488   0.12316   0.00000  Uiso   1.00
O160   O     0.46491   0.22882   0.07853   0.00000  Uiso   1.00
H161   H     0.44142   0.24355   0.10012   0.00000  Uiso   1.00
O162   O     0.39497   0.18720   0.41486   0.00000  Uiso   1.00
C163   C     0.36757   0.21831   0.43286   0.00000  Uiso   1.00
H164   H     0.38505   0.24707   0.44562   0.00000  Uiso   1.00
H165   H     0.34056   0.20591   0.46029   0.00000  Uiso   1.00
C166   C     0.34920   0.23005   0.39616   0.00000  Uiso   1.00
H167   H     0.37585   0.24313   0.36882   0.00000  Uiso   1.00
H168   H     0.66587   0.20165   0.38221   0.00000  Uiso   1.00
C169   C     0.65090   0.26217   0.41377   0.00000  Uiso   1.00
H170   H     0.62372   0.24959   0.44086   0.00000  Uiso   1.00
H171   H     0.63798   0.26966   0.38636   0.00000  Uiso   1.00
H172   H     0.33388   0.29134   0.42672   0.00000  Uiso   1.00
C173   C     0.71970   0.16030   0.25970   0.00000  Uiso   1.00
C174   C     0.74126   0.17542   0.48500   0.00000  Uiso   1.00
C175   C     0.76908   0.16716   0.00892   0.00000  Uiso   1.00
C176   C     0.81390   0.17129   0.49039   0.00000  Uiso   1.00
C177   C     0.82997   0.17991   0.44488   0.00000  Uiso   1.00
C178   C     0.84288   0.16296   0.01458   0.00000  Uiso   1.00
C179   C     0.88505   0.15529   0.49045   0.00000  Uiso   1.00
C180   C     0.90077   0.16554   0.44637   0.00000  Uiso   1.00
C181   C     0.87436   0.18043   0.42489   0.00000  Uiso   1.00
C182   C     0.83200   0.16248   0.06172   0.00000  Uiso   1.00
C183   C     0.89788   0.13212   0.05605   0.00000  Uiso   1.00
C184   C     0.94744   0.17362   0.24012   0.00000  Uiso   1.00
C185   C     0.80107   0.18575   0.41980   0.00000  Uiso   1.00
C186   C     0.99319   0.17376   0.23550   0.00000  Uiso   1.00
C187   C     0.67383   0.15780   0.26646   0.00000  Uiso   1.00
C188   C     0.84472   0.32199   0.23342   0.00000  Uiso   1.00
C189   C     0.81949   0.01197   0.26448   0.00000  Uiso   1.00
C190   C     0.82260   0.05605   0.26071   0.00000  Uiso   1.00
C191   C     0.84283   0.27782   0.23958   0.00000  Uiso   1.00
C192   C     0.85215   0.14847   0.12957   0.00000  Uiso   1.00
C193   C     0.81499   0.18445   0.37082   0.00000  Uiso   1.00
C194   C     0.91169   0.13891   0.01108   0.00000  Uiso   1.00
C195   C     0.85890   0.14477   0.08162   0.00000  Uiso   1.00
C196   C     0.75674   0.18555   0.44062   0.00000  Uiso   1.00
H197   H     0.91926   0.12016   0.07177   0.00000  Uiso   1.00
H198   H     0.79783   0.33241   0.29422   0.00000  Uiso   1.00
H199   H     0.93390   0.16283   0.42873   0.00000  Uiso   1.00
H200   H     0.94347   0.13191   0.49254   0.00000  Uiso   1.00
H201   H     0.75448   0.15511   0.04115   0.00000  Uiso   1.00
H202   H     0.70709   0.17105   0.00030   0.00000  Uiso   1.00
H203   H     0.88900   0.19062   0.39176   0.00000  Uiso   1.00
H204   H     0.68245   0.18597   0.20585   0.00000  Uiso   1.00
O205   O     0.83333   0.16667   0.25000   0.00000  Uiso   1.00
O206   O     0.84597   0.08019   0.28213   0.00000  Uiso   1.00
O207   O     0.81298   0.26085   0.27013   0.00000  Uiso   1.00
O208   O     0.74078   0.13291   0.23413   0.00000  Uiso   1.00
O209   O     0.93360   0.19272   0.21360   0.00000  Uiso   1.00
O210   O     0.73738   0.18878   0.28213   0.00000  Uiso   1.00
O211   O     0.92158   0.15226   0.27013   0.00000  Uiso   1.00
O212   O     0.80426   0.06944   0.23413   0.00000  Uiso   1.00
O213   O     0.87012   0.25620   0.21360   0.00000  Uiso   1.00
O214   O     0.82118   0.12637   0.15458   0.00000  Uiso   1.00
O215   O     0.79607   0.20391   0.34968   0.00000  Uiso   1.00
O216   O     0.87491   0.17759   0.14606   0.00000  Uiso   1.00
O217   O     0.84118   0.15880   0.34968   0.00000  Uiso   1.00
Zn218  Zn    0.86005   0.13994   0.28734   0.00000  Uiso   1.00
Zn219  Zn    0.80046   0.12458   0.21875   0.00000  Uiso   1.00
Zn220  Zn    0.87723   0.19775   0.20657   0.00000  Uiso   1.00
Zn221  Zn    0.79560   0.20439   0.28733   0.00000  Uiso   1.00
O222   O     0.97901   0.14806   0.30757   0.00000  Uiso   1.00
C223   C     0.99181   0.11664   0.32786   0.00000  Uiso   1.00
H224   H     0.97143   0.11593   0.36263   0.00000  Uiso   1.00
H225   H     0.69205   0.12381   0.33085   0.00000  Uiso   1.00
C226   C     0.98434   0.07343   0.30407   0.00000  Uiso   1.00
H227   H     0.95005   0.06671   0.30353   0.00000  Uiso   1.00
H228   H     0.67096   0.07291   0.26910   0.00000  Uiso   1.00
C229   C     0.99580   0.03936   0.32757   0.00000  Uiso   1.00
H230   H     0.69689   0.04510   0.32768   0.00000  Uiso   1.00
H231   H     0.98997   0.00853   0.30974   0.00000  Uiso   1.00
H232   H     0.97571   0.03853   0.36246   0.00000  Uiso   1.00
O233   O     0.87419   0.00669   0.19742   0.00000  Uiso   1.00
C234   C     0.85779   0.33128   0.15946   0.00000  Uiso   1.00
H235   H     0.82423   0.00584   0.16667   0.00000  Uiso   1.00
H236   H     0.85837   0.29764   0.14794   0.00000  Uiso   1.00
C237   C     0.88578   0.02427   0.12212   0.00000  Uiso   1.00
H238   H     0.88624   0.05790   0.13371   0.00000  Uiso   1.00
H239   H     0.91918   0.01612   0.11365   0.00000  Uiso   1.00
C240   C     0.86896   0.01700   0.08044   0.00000  Uiso   1.00
H241   H     0.86812   0.31688   0.06823   0.00000  Uiso   1.00
H242   H     0.89041   0.03596   0.05377   0.00000  Uiso   1.00
H243   H     0.83617   0.02648   0.08780   0.00000  Uiso   1.00
C244   C     0.79932   0.18855   0.09015   0.00000  Uiso   1.00
O245   O     0.77337   0.17488   0.12316   0.00000  Uiso   1.00
O246   O     0.79824   0.22882   0.07853   0.00000  Uiso   1.00
H247   H     0.77475   0.24355   0.10012   0.00000  Uiso   1.00
O248   O     0.72831   0.18720   0.41486   0.00000  Uiso   1.00
C249   C     0.70091   0.21831   0.43286   0.00000  Uiso   1.00
H250   H     0.71838   0.24707   0.44562   0.00000  Uiso   1.00
H251   H     0.67389   0.20591   0.46029   0.00000  Uiso   1.00
C252   C     0.68253   0.23005   0.39616   0.00000  Uiso   1.00
H253   H     0.70918   0.24313   0.36882   0.00000  Uiso   1.00
H254   H     0.99921   0.20165   0.38221   0.00000  Uiso   1.00
C255   C     0.98423   0.26217   0.41377   0.00000  Uiso   1.00
H256   H     0.95705   0.24959   0.44086   0.00000  Uiso   1.00
H257   H     0.97131   0.26966   0.38636   0.00000  Uiso   1.00
H258   H     0.66721   0.29134   0.42672   0.00000  Uiso   1.00
C259   C     0.05303   0.49363   0.25970   0.00000  Uiso   1.00
C260   C     0.07459   0.50876   0.48500   0.00000  Uiso   1.00
C261   C     0.10241   0.50049   0.00892   0.00000  Uiso   1.00
C262   C     0.14724   0.50462   0.49039   0.00000  Uiso   1.00
C263   C     0.16330   0.51324   0.44488   0.00000  Uiso   1.00
C264   C     0.17622   0.49629   0.01458   0.00000  Uiso   1.00
C265   C     0.21839   0.48862   0.49045   0.00000  Uiso   1.00
C266   C     0.23410   0.49887   0.44637   0.00000  Uiso   1.00
C267   C     0.20770   0.51376   0.42489   0.00000  Uiso   1.00
C268   C     0.16533   0.49581   0.06172   0.00000  Uiso   1.00
C269   C     0.23122   0.46545   0.05605   0.00000  Uiso   1.00
C270   C     0.28078   0.50696   0.24012   0.00000  Uiso   1.00
C271   C     0.13441   0.51909   0.41980   0.00000  Uiso   1.00
C272   C     0.32653   0.50709   0.23550   0.00000  Uiso   1.00
C273   C     0.00717   0.49114   0.26646   0.00000  Uiso   1.00
C274   C     0.17805   0.65532   0.23342   0.00000  Uiso   1.00
C275   C     0.15282   0.34530   0.26448   0.00000  Uiso   1.00
C276   C     0.15594   0.38938   0.26071   0.00000  Uiso   1.00
C277   C     0.17617   0.61116   0.23958   0.00000  Uiso   1.00
C278   C     0.18549   0.48180   0.12957   0.00000  Uiso   1.00
C279   C     0.14833   0.51779   0.37082   0.00000  Uiso   1.00
C280   C     0.24503   0.47224   0.01108   0.00000  Uiso   1.00
C281   C     0.19224   0.47810   0.08162   0.00000  Uiso   1.00
C282   C     0.09008   0.51888   0.44062   0.00000  Uiso   1.00
H283   H     0.25260   0.45349   0.07177   0.00000  Uiso   1.00
H284   H     0.13117   0.66574   0.29422   0.00000  Uiso   1.00
H285   H     0.26723   0.49616   0.42873   0.00000  Uiso   1.00
H286   H     0.27680   0.46525   0.49254   0.00000  Uiso   1.00
H287   H     0.08781   0.48845   0.04115   0.00000  Uiso   1.00
H288   H     0.04043   0.50439   0.00030   0.00000  Uiso   1.00
H289   H     0.22233   0.52395   0.39176   0.00000  Uiso   1.00
H290   H     0.01579   0.51930   0.20585   0.00000  Uiso   1.00
O291   O     0.16667   0.50000   0.25000   0.00000  Uiso   1.00
O292   O     0.17930   0.41352   0.28213   0.00000  Uiso   1.00
O293   O     0.14632   0.59418   0.27013   0.00000  Uiso   1.00
O294   O     0.07412   0.46625   0.23413   0.00000  Uiso   1.00
O295   O     0.26693   0.52605   0.21360   0.00000  Uiso   1.00
O296   O     0.07071   0.52211   0.28213   0.00000  Uiso   1.00
O297   O     0.25491   0.48559   0.27013   0.00000  Uiso   1.00
O298   O     0.13760   0.40277   0.23413   0.00000  Uiso   1.00
O299   O     0.20345   0.58953   0.21360   0.00000  Uiso   1.00
O300   O     0.15451   0.45970   0.15458   0.00000  Uiso   1.00
O301   O     0.12940   0.53724   0.34968   0.00000  Uiso   1.00
O302   O     0.20824   0.51092   0.14606   0.00000  Uiso   1.00
O303   O     0.17451   0.49213   0.34968   0.00000  Uiso   1.00
Zn304  Zn    0.19338   0.47327   0.28734   0.00000  Uiso   1.00
Zn305  Zn    0.13379   0.45791   0.21875   0.00000  Uiso   1.00
Zn306  Zn    0.21056   0.53109   0.20657   0.00000  Uiso   1.00
Zn307  Zn    0.12893   0.53773   0.28733   0.00000  Uiso   1.00
O308   O     0.31234   0.48139   0.30757   0.00000  Uiso   1.00
C309   C     0.32514   0.44997   0.32786   0.00000  Uiso   1.00
H310   H     0.30477   0.44926   0.36263   0.00000  Uiso   1.00
H311   H     0.02538   0.45714   0.33085   0.00000  Uiso   1.00
C312   C     0.31767   0.40676   0.30407   0.00000  Uiso   1.00
H313   H     0.28338   0.40004   0.30353   0.00000  Uiso   1.00
H314   H     0.00429   0.40624   0.26910   0.00000  Uiso   1.00
C315   C     0.32914   0.37270   0.32757   0.00000  Uiso   1.00
H316   H     0.03022   0.37844   0.32768   0.00000  Uiso   1.00
H317   H     0.32330   0.34186   0.30974   0.00000  Uiso   1.00
H318   H     0.30904   0.37187   0.36246   0.00000  Uiso   1.00
O319   O     0.20752   0.34002   0.19742   0.00000  Uiso   1.00
C320   C     0.19112   0.66461   0.15946   0.00000  Uiso   1.00
H321   H     0.15757   0.33918   0.16667   0.00000  Uiso   1.00
H322   H     0.19170   0.63097   0.14794   0.00000  Uiso   1.00
C323   C     0.21911   0.35760   0.12212   0.00000  Uiso   1.00
H324   H     0.21957   0.39123   0.13371   0.00000  Uiso   1.00
H325   H     0.25251   0.34945   0.11365   0.00000  Uiso   1.00
C326   C     0.20229   0.35034   0.08044   0.00000  Uiso   1.00
H327   H     0.20145   0.65021   0.06823   0.00000  Uiso   1.00
H328   H     0.22374   0.36929   0.05377   0.00000  Uiso   1.00
H329   H     0.16950   0.35981   0.08780   0.00000  Uiso   1.00
C330   C     0.13265   0.52189   0.09015   0.00000  Uiso   1.00
O331   O     0.10670   0.50822   0.12316   0.00000  Uiso   1.00
O332   O     0.13157   0.56215   0.07853   0.00000  Uiso   1.00
H333   H     0.10809   0.57688   0.10012   0.00000  Uiso   1.00
O334   O     0.06164   0.52054   0.41486   0.00000  Uiso   1.00
C335   C     0.03424   0.55164   0.43286   0.00000  Uiso   1.00
H336   H     0.05172   0.58040   0.44562   0.00000  Uiso   1.00
H337   H     0.00723   0.53924   0.46029   0.00000  Uiso   1.00
C338   C     0.01587   0.56338   0.39616   0.00000  Uiso   1.00
H339   H     0.04252   0.57646   0.36882   0.00000  Uiso   1.00
H340   H     0.33254   0.53498   0.38221   0.00000  Uiso   1.00
C341   C     0.31757   0.59550   0.41377   0.00000  Uiso   1.00
H342   H     0.29039   0.58292   0.44086   0.00000  Uiso   1.00
H343   H     0.30465   0.60299   0.38636   0.00000  Uiso   1.00
H344   H     0.00055   0.62467   0.42672   0.00000  Uiso   1.00
C345   C     0.38637   0.49363   0.25970   0.00000  Uiso   1.00
C346   C     0.40793   0.50876   0.48500   0.00000  Uiso   1.00
C347   C     0.43574   0.50049   0.00892   0.00000  Uiso   1.00
C348   C     0.48057   0.50462   0.49039   0.00000  Uiso   1.00
C349   C     0.49663   0.51324   0.44488   0.00000  Uiso   1.00
C350   C     0.50955   0.49629   0.01458   0.00000  Uiso   1.00
C351   C     0.55172   0.48862   0.49045   0.00000  Uiso   1.00
C352   C     0.56744   0.49887   0.44637   0.00000  Uiso   1.00
C353   C     0.54103   0.51376   0.42489   0.00000  Uiso   1.00
C354   C     0.49867   0.49581   0.06172   0.00000  Uiso   1.00
C355   C     0.56455   0.46545   0.05605   0.00000  Uiso   1.00
C356   C     0.61411   0.50696   0.24012   0.00000  Uiso   1.00
C357   C     0.46774   0.51909   0.41980   0.00000  Uiso   1.00
C358   C     0.65986   0.50709   0.23550   0.00000  Uiso   1.00
C359   C     0.34050   0.49114   0.26646   0.00000  Uiso   1.00
C360   C     0.51139   0.65532   0.23342   0.00000  Uiso   1.00
C361   C     0.48616   0.34530   0.26448   0.00000  Uiso   1.00
C362   C     0.48927   0.38938   0.26071   0.00000  Uiso   1.00
C363   C     0.50950   0.61116   0.23958   0.00000  Uiso   1.00
C364   C     0.51882   0.48180   0.12957   0.00000  Uiso   1.00
C365   C     0.48166   0.51779   0.37082   0.00000  Uiso   1.00
C366   C     0.57836   0.47224   0.01108   0.00000  Uiso   1.00
C367   C     0.52557   0.47810   0.08162   0.00000  Uiso   1.00
C368   C     0.42341   0.51888   0.44062   0.00000  Uiso   1.00
H369   H     0.58593   0.45349   0.07177   0.00000  Uiso   1.00
H370   H     0.46450   0.66574   0.29422   0.00000  Uiso   1.00
H371   H     0.60056   0.49616   0.42873   0.00000  Uiso   1.00
H372   H     0.61014   0.46525   0.49254   0.00000  Uiso   1.00
H373   H     0.42114   0.48845   0.04115   0.00000  Uiso   1.00
H374   H     0.37376   0.50439   0.00030   0.00000  Uiso   1.00
H375   H     0.55566   0.52395   0.39176   0.00000  Uiso   1.00
H376   H     0.34912   0.51930   0.20585   0.00000  Uiso   1.00
O377   O     0.50000   0.50000   0.25000   0.00000  Uiso   1.00
O378   O     0.51264   0.41352   0.28213   0.00000  Uiso   1.00
O379   O     0.47965   0.59418   0.27013   0.00000  Uiso   1.00
O380   O     0.40745   0.46625   0.23413   0.00000  Uiso   1.00
O381   O     0.60026   0.52605   0.21360   0.00000  Uiso   1.00
O382   O     0.40405   0.52211   0.28213   0.00000  Uiso   1.00
O383   O     0.58824   0.48559   0.27013   0.00000  Uiso   1.00
O384   O     0.47093   0.40277   0.23413   0.00000  Uiso   1.00
O385   O     0.53678   0.58953   0.21360   0.00000  Uiso   1.00
O386   O     0.48784   0.45970   0.15458   0.00000  Uiso   1.00
O387   O     0.46274   0.53724   0.34968   0.00000  Uiso   1.00
O388   O     0.54157   0.51092   0.14606   0.00000  Uiso   1.00
O389   O     0.50785   0.49213   0.34968   0.00000  Uiso   1.00
Zn390  Zn    0.52672   0.47327   0.28734   0.00000  Uiso   1.00
Zn391  Zn    0.46713   0.45791   0.21875   0.00000  Uiso   1.00
Zn392  Zn    0.54389   0.53109   0.20657   0.00000  Uiso   1.00
Zn393  Zn    0.46226   0.53773   0.28733   0.00000  Uiso   1.00
O394   O     0.64567   0.48139   0.30757   0.00000  Uiso   1.00
C395   C     0.65847   0.44997   0.32786   0.00000  Uiso   1.00
H396   H     0.63810   0.44926   0.36263   0.00000  Uiso   1.00
H397   H     0.35871   0.45714   0.33085   0.00000  Uiso   1.00
C398   C     0.65100   0.40676   0.30407   0.00000  Uiso   1.00
H399   H     0.61671   0.40004   0.30353   0.00000  Uiso   1.00
H400   H     0.33763   0.40624   0.26910   0.00000  Uiso   1.00
C401   C     0.66247   0.37270   0.32757   0.00000  Uiso   1.00
H402   H     0.36356   0.37844   0.32768   0.00000  Uiso   1.00
H403   H     0.65663   0.34186   0.30974   0.00000  Uiso   1.00
H404   H     0.64238   0.37187   0.36246   0.00000  Uiso   1.00
O405   O     0.54086   0.34002   0.19742   0.00000  Uiso   1.00
C406   C     0.52446   0.66461   0.15946   0.00000  Uiso   1.00
H407   H     0.49090   0.33918   0.16667   0.00000  Uiso   1.00
H408   H     0.52504   0.63097   0.14794   0.00000  Uiso   1.00
C409   C     0.55245   0.35760   0.12212   0.00000  Uiso   1.00
H410   H     0.55290   0.39123   0.13371   0.00000  Uiso   1.00
H411   H     0.58585   0.34945   0.11365   0.00000  Uiso   1.00
C412   C     0.53562   0.35034   0.08044   0.00000  Uiso   1.00
H413   H     0.53479   0.65021   0.06823   0.00000  Uiso   1.00
H414   H     0.55707   0.36929   0.05377   0.00000  Uiso   1.00
H415   H     0.50284   0.35981   0.08780   0.00000  Uiso   1.00
C416   C     0.46598   0.52189   0.09015   0.00000  Uiso   1.00
O417   O     0.44004   0.50822   0.12316   0.00000  Uiso   1.00
O418   O     0.46491   0.56215   0.07853   0.00000  Uiso   1.00
H419   H     0.44142   0.57688   0.10012   0.00000  Uiso   1.00
O420   O     0.39497   0.52054   0.41486   0.00000  Uiso   1.00
C421   C     0.36757   0.55164   0.43286   0.00000  Uiso   1.00
H422   H     0.38505   0.58040   0.44562   0.00000  Uiso   1.00
H423   H     0.34056   0.53924   0.46029   0.00000  Uiso   1.00
C424   C     0.34920   0.56338   0.39616   0.00000  Uiso   1.00
H425   H     0.37585   0.57646   0.36882   0.00000  Uiso   1.00
H426   H     0.66587   0.53498   0.38221   0.00000  Uiso   1.00
C427   C     0.65090   0.59550   0.41377   0.00000  Uiso   1.00
H428   H     0.62372   0.58292   0.44086   0.00000  Uiso   1.00
H429   H     0.63798   0.60299   0.38636   0.00000  Uiso   1.00
H430   H     0.33388   0.62467   0.42672   0.00000  Uiso   1.00
C431   C     0.71970   0.49363   0.25970   0.00000  Uiso   1.00
C432   C     0.74126   0.50876   0.48500   0.00000  Uiso   1.00
C433   C     0.76908   0.50049   0.00892   0.00000  Uiso   1.00
C434   C     0.81390   0.50462   0.49039   0.00000  Uiso   1.00
C435   C     0.82997   0.51324   0.44488   0.00000  Uiso   1.00
C436   C     0.84288   0.49629   0.01458   0.00000  Uiso   1.00
C437   C     0.88505   0.48862   0.49045   0.00000  Uiso   1.00
C438   C     0.90077   0.49887   0.44637   0.00000  Uiso   1.00
C439   C     0.87436   0.51376   0.42489   0.00000  Uiso   1.00
C440   C     0.83200   0.49581   0.06172   0.00000  Uiso   1.00
C441   C     0.89788   0.46545   0.05605   0.00000  Uiso   1.00
C442   C     0.94744   0.50696   0.24012   0.00000  Uiso   1.00
C443   C     0.80107   0.51909   0.41980   0.00000  Uiso   1.00
C444   C     0.99319   0.50709   0.23550   0.00000  Uiso   1.00
C445   C     0.67383   0.49114   0.26646   0.00000  Uiso   1.00
C446   C     0.84472   0.65532   0.23342   0.00000  Uiso   1.00
C447   C     0.81949   0.34530   0.26448   0.00000  Uiso   1.00
C448   C     0.82260   0.38938   0.26071   0.00000  Uiso   1.00
C449   C     0.84283   0.61116   0.23958   0.00000  Uiso   1.00
C450   C     0.85215   0.48180   0.12957   0.00000  Uiso   1.00
C451   C     0.81499   0.51779   0.37082   0.00000  Uiso   1.00
C452   C     0.91169   0.47224   0.01108   0.00000  Uiso   1.00
C453   C     0.85890   0.47810   0.08162   0.00000  Uiso   1.00
C454   C     0.75674   0.51888   0.44062   0.00000  Uiso   1.00
H455   H     0.91926   0.45349   0.07177   0.00000  Uiso   1.00
H456   H     0.79783   0.66574   0.29422   0.00000  Uiso   1.00
H457   H     0.93390   0.49616   0.42873   0.00000  Uiso   1.00
H458   H     0.94347   0.46525   0.49254   0.00000  Uiso   1.00
H459   H     0.75448   0.48845   0.04115   0.00000  Uiso   1.00
H460   H     0.70709   0.50439   0.00030   0.00000  Uiso   1.00
H461   H     0.88900   0.52395   0.39176   0.00000  Uiso   1.00
H462   H     0.68245   0.51930   0.20585   0.00000  Uiso   1.00
O463   O     0.83333   0.50000   0.25000   0.00000  Uiso   1.00
O464   O     0.84597   0.41352   0.28213   0.00000  Uiso   1.00
O465   O     0.81298   0.59418   0.27013   0.00000  Uiso   1.00
O466   O     0.74078   0.46625   0.23413   0.00000  Uiso   1.00
O467   O     0.93360   0.52605   0.21360   0.00000  Uiso   1.00
O468   O     0.73738   0.52211   0.28213   0.00000  Uiso   1.00
O469   O     0.92158   0.48559   0.27013   0.00000  Uiso   1.00
O470   O     0.80426   0.40277   0.23413   0.00000  Uiso   1.00
O471   O     0.87012   0.58953   0.21360   0.00000  Uiso   1.00
O472   O     0.82118   0.45970   0.15458   0.00000  Uiso   1.00
O473   O     0.79607   0.53724   0.34968   0.00000  Uiso   1.00
O474   O     0.87491   0.51092   0.14606   0.00000  Uiso   1.00
O475   O     0.84118   0.49213   0.34968   0.00000  Uiso   1.00
Zn476  Zn    0.86005   0.47327   0.28734   0.00000  Uiso   1.00
Zn477  Zn    0.80046   0.45791   0.21875   0.00000  Uiso   1.00
Zn478  Zn    0.87723   0.53109   0.20657   0.00000  Uiso   1.00
Zn479  Zn    0.79560   0.53773   0.28733   0.00000  Uiso   1.00
O480   O     0.97901   0.48139   0.30757   0.00000  Uiso   1.00
C481   C     0.99181   0.44997   0.32786   0.00000  Uiso   1.00
H482   H     0.97143   0.44926   0.36263   0.00000  Uiso   1.00
H483   H     0.69205   0.45714   0.33085   0.00000  Uiso   1.00
C484   C     0.98434   0.40676   0.30407   0.00000  Uiso   1.00
H485   H     0.95005   0.40004   0.30353   0.00000  Uiso   1.00
H486   H     0.67096   0.40624   0.26910   0.00000  Uiso   1.00
C487   C     0.99580   0.37270   0.32757   0.00000  Uiso   1.00
H488   H     0.69689   0.37844   0.32768   0.00000  Uiso   1.00
H489   H     0.98997   0.34186   0.30974   0.00000  Uiso   1.00
H490   H     0.97571   0.37187   0.36246   0.00000  Uiso   1.00
O491   O     0.87419   0.34002   0.19742   0.00000  Uiso   1.00
C492   C     0.85779   0.66461   0.15946   0.00000  Uiso   1.00
H493   H     0.82423   0.33918   0.16667   0.00000  Uiso   1.00
H494   H     0.85837   0.63097   0.14794   0.00000  Uiso   1.00
C495   C     0.88578   0.35760   0.12212   0.00000  Uiso   1.00
H496   H     0.88624   0.39123   0.13371   0.00000  Uiso   1.00
H497   H     0.91918   0.34945   0.11365   0.00000  Uiso   1.00
C498   C     0.86896   0.35034   0.08044   0.00000  Uiso   1.00
H499   H     0.86812   0.65021   0.06823   0.00000  Uiso   1.00
H500   H     0.89041   0.36929   0.05377   0.00000  Uiso   1.00
H501   H     0.83617   0.35981   0.08780   0.00000  Uiso   1.00
C502   C     0.79932   0.52189   0.09015   0.00000  Uiso   1.00
O503   O     0.77337   0.50822   0.12316   0.00000  Uiso   1.00
O504   O     0.79824   0.56215   0.07853   0.00000  Uiso   1.00
H505   H     0.77475   0.57688   0.10012   0.00000  Uiso   1.00
O506   O     0.72831   0.52054   0.41486   0.00000  Uiso   1.00
C507   C     0.70091   0.55164   0.43286   0.00000  Uiso   1.00
H508   H     0.71838   0.58040   0.44562   0.00000  Uiso   1.00
H509   H     0.67389   0.53924   0.46029   0.00000  Uiso   1.00
C510   C     0.68253   0.56338   0.39616   0.00000  Uiso   1.00
H511   H     0.70918   0.57646   0.36882   0.00000  Uiso   1.00
H512   H     0.99921   0.53498   0.38221   0.00000  Uiso   1.00
C513   C     0.98423   0.59550   0.41377   0.00000  Uiso   1.00
H514   H     0.95705   0.58292   0.44086   0.00000  Uiso   1.00
H515   H     0.97131   0.60299   0.38636   0.00000  Uiso   1.00
H516   H     0.66721   0.62467   0.42672   0.00000  Uiso   1.00
C517   C     0.05303   0.82696   0.25970   0.00000  Uiso   1.00
C518   C     0.07459   0.84209   0.48500   0.00000  Uiso   1.00
C519   C     0.10241   0.83383   0.00892   0.00000  Uiso   1.00
C520   C     0.14724   0.83795   0.49039   0.00000  Uiso   1.00
C521   C     0.16330   0.84658   0.44488   0.00000  Uiso   1.00
C522   C     0.17622   0.82963   0.01458   0.00000  Uiso   1.00
C523   C     0.21839   0.82196   0.49045   0.00000  Uiso   1.00
C524   C     0.23410   0.83221   0.44637   0.00000  Uiso   1.00
C525   C     0.20770   0.84710   0.42489   0.00000  Uiso   1.00
C526   C     0.16533   0.82914   0.06172   0.00000  Uiso   1.00
C527   C     0.23122   0.79879   0.05605   0.00000  Uiso   1.00
C528   C     0.28078   0.84029   0.24012   0.00000  Uiso   1.00
C529   C     0.13441   0.85242   0.41980   0.00000  Uiso   1.00
C530   C     0.32653   0.84042   0.23550   0.00000  Uiso   1.00
C531   C     0.00717   0.82447   0.26646   0.00000  Uiso   1.00
C532   C     0.17805   0.98866   0.23342   0.00000  Uiso   1.00
C533   C     0.15282   0.67863   0.26448   0.00000  Uiso   1.00
C534   C     0.15594   0.72271   0.26071   0.00000  Uiso   1.00
C535   C     0.17617   0.94449   0.23958   0.00000  Uiso   1.00
C536   C     0.18549   0.81514   0.12957   0.00000  Uiso   1.00
C537   C     0.14833   0.85112   0.37082   0.00000  Uiso   1.00
C538   C     0.24503   0.80557   0.01108   0.00000  Uiso   1.00
C539   C     0.19224   0.81144   0.08162   0.00000  Uiso   1.00
C540   C     0.09008   0.85222   0.44062   0.00000  Uiso   1.00
H541   H     0.25260   0.78682   0.07177   0.00000  Uiso   1.00
H542   H     0.13117   0.99907   0.29422   0.00000  Uiso   1.00
H543   H     0.26723   0.82950   0.42873   0.00000  Uiso   1.00
H544   H     0.27680   0.79858   0.49254   0.00000  Uiso   1.00
H545   H     0.08781   0.82178   0.04115   0.00000  Uiso   1.00
H546   H     0.04043   0.83772   0.00030   0.00000  Uiso   1.00
H547   H     0.22233   0.85729   0.39176   0.00000  Uiso   1.00
H548   H     0.01579   0.85264   0.20585   0.00000  Uiso   1.00
O549   O     0.16667   0.83333   0.25000   0.00000  Uiso   1.00
O550   O     0.17930   0.74686   0.28213   0.00000  Uiso   1.00
O551   O     0.14632   0.92751   0.27013   0.00000  Uiso   1.00
O552   O     0.07412   0.79958   0.23413   0.00000  Uiso   1.00
O553   O     0.26693   0.85939   0.21360   0.00000  Uiso   1.00
O554   O     0.07071   0.85544   0.28213   0.00000  Uiso   1.00
O555   O     0.25491   0.81892   0.27013   0.00000  Uiso   1.00
O556   O     0.13760   0.73610   0.23413   0.00000  Uiso   1.00
O557   O     0.20345   0.92286   0.21360   0.00000  Uiso   1.00
O558   O     0.15451   0.79304   0.15458   0.00000  Uiso   1.00
O559   O     0.12940   0.87058   0.34968   0.00000  Uiso   1.00
O560   O     0.20824   0.84425   0.14606   0.00000  Uiso   1.00
O561   O     0.17451   0.82546   0.34968   0.00000  Uiso   1.00
Zn562  Zn    0.19338   0.80661   0.28734   0.00000  Uiso   1.00
Zn563  Zn    0.13379   0.79124   0.21875   0.00000  Uiso   1.00
Zn564  Zn    0.21056   0.86442   0.20657   0.00000  Uiso   1.00
Zn565  Zn    0.12893   0.87106   0.28733   0.00000  Uiso   1.00
O566   O     0.31234   0.81473   0.30757   0.00000  Uiso   1.00
C567   C     0.32514   0.78330   0.32786   0.00000  Uiso   1.00
H568   H     0.30477   0.78260   0.36263   0.00000  Uiso   1.00
H569   H     0.02538   0.79048   0.33085   0.00000  Uiso   1.00
C570   C     0.31767   0.74010   0.30407   0.00000  Uiso   1.00
H571   H     0.28338   0.73337   0.30353   0.00000  Uiso   1.00
H572   H     0.00429   0.73958   0.26910   0.00000  Uiso   1.00
C573   C     0.32914   0.70603   0.32757   0.00000  Uiso   1.00
H574   H     0.03022   0.71177   0.32768   0.00000  Uiso   1.00
H575   H     0.32330   0.67519   0.30974   0.00000  Uiso   1.00
H576   H     0.30904   0.70520   0.36246   0.00000  Uiso   1.00
O577   O     0.20752   0.67335   0.19742   0.00000  Uiso   1.00
C578   C     0.19112   0.99794   0.15946   0.00000  Uiso   1.00
H579   H     0.15757   0.67251   0.16667   0.00000  Uiso   1.00
H580   H     0.19170   0.96430   0.14794   0.00000  Uiso   1.00
C581   C     0.21911   0.69093   0.12212   0.00000  Uiso   1.00
H582   H     0.21957   0.72456   0.13371   0.00000  Uiso   1.00
H583   H     0.25251   0.68279   0.11365   0.00000  Uiso   1.00
C584   C     0.20229   0.68367   0.08044   0.00000  Uiso   1.00
H585   H     0.20145   0.98354   0.06823   0.00000  Uiso   1.00
H586   H     0.22374   0.70262   0.05377   0.00000  Uiso   1.00
H587   H     0.16950   0.69315   0.08780   0.00000  Uiso   1.00
C588   C     0.13265   0.85522   0.09015   0.00000  Uiso   1.00
O589   O     0.10670   0.84155   0.12316   0.00000  Uiso   1.00
O590   O     0.13157   0.89548   0.07853   0.00000  Uiso   1.00
H591   H     0.10809   0.91022   0.10012   0.00000  Uiso   1.00
O592   O     0.06164   0.85387   0.41486   0.00000  Uiso   1.00
C593   C     0.03424   0.88498   0.43286   0.00000  Uiso   1.00
H594   H     0.05172   0.91374   0.44562   0.00000  Uiso   1.00
H595   H     0.00723   0.87258   0.46029   0.00000  Uiso   1.00
C596   C     0.01587   0.89672   0.39616   0.00000  Uiso   1.00
H597   H     0.04252   0.90980   0.36882   0.00000  Uiso   1.00
H598   H     0.33254   0.86832   0.38221   0.00000  Uiso   1.00
C599   C     0.31757   0.92883   0.41377   0.00000  Uiso   1.00
H600   H     0.29039   0.91626   0.44086   0.00000  Uiso   1.00
H601   H     0.30465   0.93632   0.38636   0.00000  Uiso   1.00
H602   H     0.00055   0.95800   0.42672   0.00000  Uiso   1.00
C603   C     0.38637   0.82696   0.25970   0.00000  Uiso   1.00
C604   C     0.40793   0.84209   0.48500   0.00000  Uiso   1.00
C605   C     0.43574   0.83383   0.00892   0.00000  Uiso   1.00
C606   C     0.48057   0.83795   0.49039   0.00000  Uiso   1.00
C607   C     0.49663   0.84658   0.44488   0.00000  Uiso   1.00
C608   C     0.50955   0.82963   0.01458   0.00000  Uiso   1.00
C609   C     0.55172   0.82196   0.49045   0.00000  Uiso   1.00
C610   C     0.56744   0.83221   0.44637   0.00000  Uiso   1.00
C611   C     0.54103   0.84710   0.42489   0.00000  Uiso   1.00
C612   C     0.49867   0.82914   0.06172   0.00000  Uiso   1.00
C613   C     0.56455   0.79879   0.05605   0.00000  Uiso   1.00
C614   C     0.61411   0.84029   0.24012   0.00000  Uiso   1.00
C615   C     0.46774   0.85242   0.41980   0.00000  Uiso   1.00
C616   C     0.65986   0.84042   0.23550   0.00000  Uiso   1.00
C617   C     0.34050   0.82447   0.26646   0.00000  Uiso   1.00
C618   C     0.51139   0.98866   0.23342   0.00000  Uiso   1.00
C619   C     0.48616   0.67863   0.26448   0.00000  Uiso   1.00
C620   C     0.48927   0.72271   0.26071   0.00000  Uiso   1.00
C621   C     0.50950   0.94449   0.23958   0.00000  Uiso   1.00
C622   C     0.51882   0.81514   0.12957   0.00000  Uiso   1.00
C623   C     0.48166   0.85112   0.37082   0.00000  Uiso   1.00
C624   C     0.57836   0.80557   0.01108   0.00000  Uiso   1.00
C625   C     0.52557   0.81144   0.08162   0.00000  Uiso   1.00
C626   C     0.42341   0.85222   0.44062   0.00000  Uiso   1.00
H627   H     0.58593   0.78682   0.07177   0.00000  Uiso   1.00
H628   H     0.46450   0.99907   0.29422   0.00000  Uiso   1.00
H629   H     0.60056   0.82950   0.42873   0.00000  Uiso   1.00
H630   H     0.61014   0.79858   0.49254   0.00000  Uiso   1.00
H631   H     0.42114   0.82178   0.04115   0.00000  Uiso   1.00
H632   H     0.37376   0.83772   0.00030   0.00000  Uiso   1.00
H633   H     0.55566   0.85729   0.39176   0.00000  Uiso   1.00
H634   H     0.34912   0.85264   0.20585   0.00000  Uiso   1.00
O635   O     0.50000   0.83333   0.25000   0.00000  Uiso   1.00
O636   O     0.51264   0.74686   0.28213   0.00000  Uiso   1.00
O637   O     0.47965   0.92751   0.27013   0.00000  Uiso   1.00
O638   O     0.40745   0.79958   0.23413   0.00000  Uiso   1.00
O639   O     0.60026   0.85939   0.21360   0.00000  Uiso   1.00
O640   O     0.40405   0.85544   0.28213   0.00000  Uiso   1.00
O641   O     0.58824   0.81892   0.27013   0.00000  Uiso   1.00
O642   O     0.47093   0.73610   0.23413   0.00000  Uiso   1.00
O643   O     0.53678   0.92286   0.21360   0.00000  Uiso   1.00
O644   O     0.48784   0.79304   0.15458   0.00000  Uiso   1.00
O645   O     0.46274   0.87058   0.34968   0.00000  Uiso   1.00
O646   O     0.54157   0.84425   0.14606   0.00000  Uiso   1.00
O647   O     0.50785   0.82546   0.34968   0.00000  Uiso   1.00
Zn648  Zn    0.52672   0.80661   0.28734   0.00000  Uiso   1.00
Zn649  Zn    0.46713   0.79124   0.21875   0.00000  Uiso   1.00
Zn650  Zn    0.54389   0.86442   0.20657   0.00000  Uiso   1.00
Zn651  Zn    0.46226   0.87106   0.28733   0.00000  Uiso   1.00
O652   O     0.64567   0.81473   0.30757   0.00000  Uiso   1.00
C653   C     0.65847   0.78330   0.32786   0.00000  Uiso   1.00
H654   H     0.63810   0.78260   0.36263   0.00000  Uiso   1.00
H655   H     0.35871   0.79048   0.33085   0.00000  Uiso   1.00
C656   C     0.65100   0.74010   0.30407   0.00000  Uiso   1.00
H657   H     0.61671   0.73337   0.30353   0.00000  Uiso   1.00
H658   H     0.33763   0.73958   0.26910   0.00000  Uiso   1.00
C659   C     0.66247   0.70603   0.32757   0.00000  Uiso   1.00
H660   H     0.36356   0.71177   0.32768   0.00000  Uiso   1.00
H661   H     0.65663   0.67519   0.30974   0.00000  Uiso   1.00
H662   H     0.64238   0.70520   0.36246   0.00000  Uiso   1.00
O663   O     0.54086   0.67335   0.19742   0.00000  Uiso   1.00
C664   C     0.52446   0.99794   0.15946   0.00000  Uiso   1.00
H665   H     0.49090   0.67251   0.16667   0.00000  Uiso   1.00
H666   H     0.52504   0.96430   0.14794   0.00000  Uiso   1.00
C667   C     0.55245   0.69093   0.12212   0.00000  Uiso   1.00
H668   H     0.55290   0.72456   0.13371   0.00000  Uiso   1.00
H669   H     0.58585   0.68279   0.11365   0.00000  Uiso   1.00
C670   C     0.53562   0.68367   0.08044   0.00000  Uiso   1.00
H671   H     0.53479   0.98354   0.06823   0.00000  Uiso   1.00
H672   H     0.55707   0.70262   0.05377   0.00000  Uiso   1.00
H673   H     0.50284   0.69315   0.08780   0.00000  Uiso   1.00
C674   C     0.46598   0.85522   0.09015   0.00000  Uiso   1.00
O675   O     0.44004   0.84155   0.12316   0.00000  Uiso   1.00
O676   O     0.46491   0.89548   0.07853   0.00000  Uiso   1.00
H677   H     0.44142   0.91022   0.10012   0.00000  Uiso   1.00
O678   O     0.39497   0.85387   0.41486   0.00000  Uiso   1.00
C679   C     0.36757   0.88498   0.43286   0.00000  Uiso   1.00
H680   H     0.38505   0.91374   0.44562   0.00000  Uiso   1.00
H681   H     0.34056   0.87258   0.46029   0.00000  Uiso   1.00
C682   C     0.34920   0.89672   0.39616   0.00000  Uiso   1.00
H683   H     0.37585   0.90980   0.36882   0.00000  Uiso   1.00
H684   H     0.66587   0.86832   0.38221   0.00000  Uiso   1.00
C685   C     0.65090   0.92883   0.41377   0.00000  Uiso   1.00
H686   H     0.62372   0.91626   0.44086   0.00000  Uiso   1.00
H687   H     0.63798   0.93632   0.38636   0.00000  Uiso   1.00
H688   H     0.33388   0.95800   0.42672   0.00000  Uiso   1.00
C689   C     0.71970   0.82696   0.25970   0.00000  Uiso   1.00
C690   C     0.74126   0.84209   0.48500   0.00000  Uiso   1.00
C691   C     0.76908   0.83383   0.00892   0.00000  Uiso   1.00
C692   C     0.81390   0.83795   0.49039   0.00000  Uiso   1.00
C693   C     0.82997   0.84658   0.44488   0.00000  Uiso   1.00
C694   C     0.84288   0.82963   0.01458   0.00000  Uiso   1.00
C695   C     0.88505   0.82196   0.49045   0.00000  Uiso   1.00
C696   C     0.90077   0.83221   0.44637   0.00000  Uiso   1.00
C697   C     0.87436   0.84710   0.42489   0.00000  Uiso   1.00
C698   C     0.83200   0.82914   0.06172   0.00000  Uiso   1.00
C699   C     0.89788   0.79879   0.05605   0.00000  Uiso   1.00
C700   C     0.94744   0.84029   0.24012   0.00000  Uiso   1.00
C701   C     0.80107   0.85242   0.41980   0.00000  Uiso   1.00
C702   C     0.99319   0.84042   0.23550   0.00000  Uiso   1.00
C703   C     0.67383   0.82447   0.26646   0.00000  Uiso   1.00
C704   C     0.84472   0.98866   0.23342   0.00000  Uiso   1.00
C705   C     0.81949   0.67863   0.26448   0.00000  Uiso   1.00
C706   C     0.82260   0.72271   0.26071   0.00000  Uiso   1.00
C707   C     0.84283   0.94449   0.23958   0.00000  Uiso   1.00
C708   C     0.85215   0.81514   0.12957   0.00000  Uiso   1.00
C709   C     0.81499   0.85112   0.37082   0.00000  Uiso   1.00
C710   C     0.91169   0.80557   0.01108   0.00000  Uiso   1.00
C711   C     0.85890   0.81144   0.08162   0.00000  Uiso   1.00
C712   C     0.75674   0.85222   0.44062   0.00000  Uiso   1.00
H713   H     0.91926   0.78682   0.07177   0.00000  Uiso   1.00
H714   H     0.79783   0.99907   0.29422   0.00000  Uiso   1.00
H715   H     0.93390   0.82950   0.42873   0.00000  Uiso   1.00
H716   H     0.94347   0.79858   0.49254   0.00000  Uiso   1.00
H717   H     0.75448   0.82178   0.04115   0.00000  Uiso   1.00
H718   H     0.70709   0.83772   0.00030   0.00000  Uiso   1.00
H719   H     0.88900   0.85729   0.39176   0.00000  Uiso   1.00
H720   H     0.68245   0.85264   0.20585   0.00000  Uiso   1.00
O721   O     0.83333   0.83333   0.25000   0.00000  Uiso   1.00
O722   O     0.84597   0.74686   0.28213   0.00000  Uiso   1.00
O723   O     0.81298   0.92751   0.27013   0.00000  Uiso   1.00
O724   O     0.74078   0.79958   0.23413   0.00000  Uiso   1.00
O725   O     0.93360   0.85939   0.21360   0.00000  Uiso   1.00
O726   O     0.73738   0.85544   0.28213   0.00000  Uiso   1.00
O727   O     0.92158   0.81892   0.27013   0.00000  Uiso   1.00
O728   O     0.80426   0.73610   0.23413   0.00000  Uiso   1.00
O729   O     0.87012   0.92286   0.21360   0.00000  Uiso   1.00
O730   O     0.82118   0.79304   0.15458   0.00000  Uiso   1.00
O731   O     0.79607   0.87058   0.34968   0.00000  Uiso   1.00
O732   O     0.87491   0.84425   0.14606   0.00000  Uiso   1.00
O733   O     0.84118   0.82546   0.34968   0.00000  Uiso   1.00
Zn734  Zn    0.86005   0.80661   0.28734   0.00000  Uiso   1.00
Zn735  Zn    0.80046   0.79124   0.21875   0.00000  Uiso   1.00
Zn736  Zn    0.87723   0.86442   0.20657   0.00000  Uiso   1.00
Zn737  Zn    0.79560   0.87106   0.28733   0.00000  Uiso   1.00
O738   O     0.97901   0.81473   0.30757   0.00000  Uiso   1.00
C739   C     0.99181   0.78330   0.32786   0.00000  Uiso   1.00
H740   H     0.97143   0.78260   0.36263   0.00000  Uiso   1.00
H741   H     0.69205   0.79048   0.33085   0.00000  Uiso   1.00
C742   C     0.98434   0.74010   0.30407   0.00000  Uiso   1.00
H743   H     0.95005   0.73337   0.30353   0.00000  Uiso   1.00
H744   H     0.67096   0.73958   0.26910   0.00000  Uiso   1.00
C745   C     0.99580   0.70603   0.32757   0.00000  Uiso   1.00
H746   H     0.69689   0.71177   0.32768   0.00000  Uiso   1.00
H747   H     0.98997   0.67519   0.30974   0.00000  Uiso   1.00
H748   H     0.97571   0.70520   0.36246   0.00000  Uiso   1.00
O749   O     0.87419   0.67335   0.19742   0.00000  Uiso   1.00
C750   C     0.85779   0.99794   0.15946   0.00000  Uiso   1.00
H751   H     0.82423   0.67251   0.16667   0.00000  Uiso   1.00
H752   H     0.85837   0.96430   0.14794   0.00000  Uiso   1.00
C753   C     0.88578   0.69093   0.12212   0.00000  Uiso   1.00
H754   H     0.88624   0.72456   0.13371   0.00000  Uiso   1.00
H755   H     0.91918   0.68279   0.11365   0.00000  Uiso   1.00
C756   C     0.86896   0.68367   0.08044   0.00000  Uiso   1.00
H757   H     0.86812   0.98354   0.06823   0.00000  Uiso   1.00
H758   H     0.89041   0.70262   0.05377   0.00000  Uiso   1.00
H759   H     0.83617   0.69315   0.08780   0.00000  Uiso   1.00
C760   C     0.79932   0.85522   0.09015   0.00000  Uiso   1.00
O761   O     0.77337   0.84155   0.12316   0.00000  Uiso   1.00
O762   O     0.79824   0.89548   0.07853   0.00000  Uiso   1.00
H763   H     0.77475   0.91022   0.10012   0.00000  Uiso   1.00
O764   O     0.72831   0.85387   0.41486   0.00000  Uiso   1.00
C765   C     0.70091   0.88498   0.43286   0.00000  Uiso   1.00
H766   H     0.71838   0.91374   0.44562   0.00000  Uiso   1.00
H767   H     0.67389   0.87258   0.46029   0.00000  Uiso   1.00
C768   C     0.68253   0.89672   0.39616   0.00000  Uiso   1.00
H769   H     0.70918   0.90980   0.36882   0.00000  Uiso   1.00
H770   H     0.99921   0.86832   0.38221   0.00000  Uiso   1.00
C771   C     0.98423   0.92883   0.41377   0.00000  Uiso   1.00
H772   H     0.95705   0.91626   0.44086   0.00000  Uiso   1.00
H773   H     0.97131   0.93632   0.38636   0.00000  Uiso   1.00
H774   H     0.66721   0.95800   0.42672   0.00000  Uiso   1.00
C775   C     0.05303   0.16030   0.75970   0.00000  Uiso   1.00
C776   C     0.07459   0.17542   0.98500   0.00000  Uiso   1.00
C777   C     0.10241   0.16716   0.50892   0.00000  Uiso   1.00
C778   C     0.14724   0.17129   0.99039   0.00000  Uiso   1.00
C779   C     0.16330   0.17991   0.94488   0.00000  Uiso   1.00
C780   C     0.17622   0.16296   0.51458   0.00000  Uiso   1.00
C781   C     0.21839   0.15529   0.99045   0.00000  Uiso   1.00
C782   C     0.23410   0.16554   0.94637   0.00000  Uiso   1.00
C783   C     0.20770   0.18043   0.92489   0.00000  Uiso   1.00
C784   C     0.16533   0.16248   0.56172   0.00000  Uiso   1.00
C785   C     0.23122   0.13212   0.55605   0.00000  Uiso   1.00
C786   C     0.28078   0.17362   0.74012   0.00000  Uiso   1.00
C787   C     0.13441   0.18575   0.91980   0.00000  Uiso   1.00
C788   C     0.32653   0.17376   0.73550   0.00000  Uiso   1.00
C789   C     0.00717   0.15780   0.76646   0.00000  Uiso   1.00
C790   C     0.17805   0.32199   0.73342   0.00000  Uiso   1.00
C791   C     0.15282   0.01197   0.76448   0.00000  Uiso   1.00
C792   C     0.15594   0.05605   0.76071   0.00000  Uiso   1.00
C793   C     0.17617   0.27782   0.73958   0.00000  Uiso   1.00
C794   C     0.18549   0.14847   0.62957   0.00000  Uiso   1.00
C795   C     0.14833   0.18445   0.87082   0.00000  Uiso   1.00
C796   C     0.24503   0.13891   0.51108   0.00000  Uiso   1.00
C797   C     0.19224   0.14477   0.58162   0.00000  Uiso   1.00
C798   C     0.09008   0.18555   0.94062   0.00000  Uiso   1.00
H799   H     0.25260   0.12016   0.57177   0.00000  Uiso   1.00
H800   H     0.13117   0.33241   0.79422   0.00000  Uiso   1.00
H801   H     0.26723   0.16283   0.92873   0.00000  Uiso   1.00
H802   H     0.27680   0.13191   0.99254   0.00000  Uiso   1.00
H803   H     0.08781   0.15511   0.54115   0.00000  Uiso   1.00
H804   H     0.04043   0.17105   0.50030   0.00000  Uiso   1.00
H805   H     0.22233   0.19062   0.89176   0.00000  Uiso   1.00
H806   H     0.01579   0.18597   0.70585   0.00000  Uiso   1.00
O807   O     0.16667   0.16667   0.75000   0.00000  Uiso   1.00
O808   O     0.17930   0.08019   0.78213   0.00000  Uiso   1.00
O809   O     0.14632   0.26085   0.77013   0.00000  Uiso   1.00
O810   O     0.07412   0.13291   0.73413   0.00000  Uiso   1.00
O811   O     0.26693   0.19272   0.71360   0.00000  Uiso   1.00
O812   O     0.07071   0.18878   0.78213   0.00000  Uiso   1.00
O813   O     0.25491   0.15226   0.77013   0.00000  Uiso   1.00
O814   O     0.13760   0.06944   0.73413   0.00000  Uiso   1.00
O815   O     0.20345   0.25620   0.71360   0.00000  Uiso   1.00
O816   O     0.15451   0.12637   0.65458   0.00000  Uiso   1.00
O817   O     0.12940   0.20391   0.84968   0.00000  Uiso   1.00
O818   O     0.20824   0.17759   0.64606   0.00000  Uiso   1.00
O819   O     0.17451   0.15880   0.84968   0.00000  Uiso   1.00
Zn820  Zn    0.19338   0.13994   0.78734   0.00000  Uiso   1.00
Zn821  Zn    0.13379   0.12458   0.71875   0.00000  Uiso   1.00
Zn822  Zn    0.21056   0.19775   0.70657   0.00000  Uiso   1.00
Zn823  Zn    0.12893   0.20439   0.78733   0.00000  Uiso   1.00
O824   O     0.31234   0.14806   0.80757   0.00000  Uiso   1.00
C825   C     0.32514   0.11664   0.82786   0.00000  Uiso   1.00
H826   H     0.30477   0.11593   0.86263   0.00000  Uiso   1.00
H827   H     0.02538   0.12381   0.83085   0.00000  Uiso   1.00
C828   C     0.31767   0.07343   0.80407   0.00000  Uiso   1.00
H829   H     0.28338   0.06671   0.80353   0.00000  Uiso   1.00
H830   H     0.00429   0.07291   0.76910   0.00000  Uiso   1.00
C831   C     0.32914   0.03936   0.82757   0.00000  Uiso   1.00
H832   H     0.03022   0.04510   0.82768   0.00000  Uiso   1.00
H833   H     0.32330   0.00853   0.80974   0.00000  Uiso   1.00
H834   H     0.30904   0.03853   0.86246   0.00000  Uiso   1.00
O835   O     0.20752   0.00669   0.69742   0.00000  Uiso   1.00
C836   C     0.19112   0.33128   0.65946   0.00000  Uiso   1.00
H837   H     0.15757   0.00584   0.66667   0.00000  Uiso   1.00
H838   H     0.19170   0.29764   0.64794   0.00000  Uiso   1.00
C839   C     0.21911   0.02427   0.62212   0.00000  Uiso   1.00
H840   H     0.21957   0.05790   0.63371   0.00000  Uiso   1.00
H841   H     0.25251   0.01612   0.61365   0.00000  Uiso   1.00
C842   C     0.20229   0.01700   0.58044   0.00000  Uiso   1.00
H843   H     0.20145   0.31688   0.56823   0.00000  Uiso   1.00
H844   H     0.22374   0.03596   0.55377   0.00000  Uiso   1.00
H845   H     0.16950   0.02648   0.58780   0.00000  Uiso   1.00
C846   C     0.13265   0.18855   0.59015   0.00000  Uiso   1.00
O847   O     0.10670   0.17488   0.62316   0.00000  Uiso   1.00
O848   O     0.13157   0.22882   0.57853   0.00000  Uiso   1.00
H849   H     0.10809   0.24355   0.60012   0.00000  Uiso   1.00
O850   O     0.06164   0.18720   0.91486   0.00000  Uiso   1.00
C851   C     0.03424   0.21831   0.93286   0.00000  Uiso   1.00
H852   H     0.05172   0.24707   0.94562   0.00000  Uiso   1.00
H853   H     0.00723   0.20591   0.96029   0.00000  Uiso   1.00
C854   C     0.01587   0.23005   0.89616   0.00000  Uiso   1.00
H855   H     0.04252   0.24313   0.86882   0.00000  Uiso   1.00
H856   H     0.33254   0.20165   0.88221   0.00000  Uiso   1.00
C857   C     0.31757   0.26217   0.91377   0.00000  Uiso   1.00
H858   H     0.29039   0.24959   0.94086   0.00000  Uiso   1.00
H859   H     0.30465   0.26966   0.88636   0.00000  Uiso   1.00
H860   H     0.00055   0.29134   0.92672   0.00000  Uiso   1.00
C861   C     0.38637   0.16030   0.75970   0.00000  Uiso   1.00
C862   C     0.40793   0.17542   0.98500   0.00000  Uiso   1.00
C863   C     0.43574   0.16716   0.50892   0.00000  Uiso   1.00
C864   C     0.48057   0.17129   0.99039   0.00000  Uiso   1.00
C865   C     0.49663   0.17991   0.94488   0.00000  Uiso   1.00
C866   C     0.50955   0.16296   0.51458   0.00000  Uiso   1.00
C867   C     0.55172   0.15529   0.99045   0.00000  Uiso   1.00
C868   C     0.56744   0.16554   0.94637   0.00000  Uiso   1.00
C869   C     0.54103   0.18043   0.92489   0.00000  Uiso   1.00
C870   C     0.49867   0.16248   0.56172   0.00000  Uiso   1.00
C871   C     0.56455   0.13212   0.55605   0.00000  Uiso   1.00
C872   C     0.61411   0.17362   0.74012   0.00000  Uiso   1.00
C873   C     0.46774   0.18575   0.91980   0.00000  Uiso   1.00
C874   C     0.65986   0.17376   0.73550   0.00000  Uiso   1.00
C875   C     0.34050   0.15780   0.76646   0.00000  Uiso   1.00
C876   C     0.51139   0.32199   0.73342   0.00000  Uiso   1.00
C877   C     0.48616   0.01197   0.76448   0.00000  Uiso   1.00
C878   C     0.48927   0.05605   0.76071   0.00000  Uiso   1.00
C879   C     0.50950   0.27782   0.73958   0.00000  Uiso   1.00
C880   C     0.51882   0.14847   0.62957   0.00000  Uiso   1.00
C881   C     0.48166   0.18445   0.87082   0.00000  Uiso   1.00
C882   C     0.57836   0.13891   0.51108   0.00000  Uiso   1.00
C883   C     0.52557   0.14477   0.58162   0.00000  Uiso   1.00
C884   C     0.42341   0.18555   0.94062   0.00000  Uiso   1.00
H885   H     0.58593   0.12016   0.57177   0.00000  Uiso   1.00
H886   H     0.46450   0.33241   0.79422   0.00000  Uiso   1.00
H887   H     0.60056   0.16283   0.92873   0.00000  Uiso   1.00
H888   H     0.61014   0.13191   0.99254   0.00000  Uiso   1.00
H889   H     0.42114   0.15511   0.54115   0.00000  Uiso   1.00
H890   H     0.37376   0.17105   0.50030   0.00000  Uiso   1.00
H891   H     0.55566   0.19062   0.89176   0.00000  Uiso   1.00
H892   H     0.34912   0.18597   0.70585   0.00000  Uiso   1.00
O893   O     0.50000   0.16667   0.75000   0.00000  Uiso   1.00
O894   O     0.51264   0.08019   0.78213   0.00000  Uiso   1.00
O895   O     0.47965   0.26085   0.77013   0.00000  Uiso   1.00
O896   O     0.40745   0.13291   0.73413   0.00000  Uiso   1.00
O897   O     0.60026   0.19272   0.71360   0.00000  Uiso   1.00
O898   O     0.40405   0.18878   0.78213   0.00000  Uiso   1.00
O899   O     0.58824   0.15226   0.77013   0.00000  Uiso   1.00
O900   O     0.47093   0.06944   0.73413   0.00000  Uiso   1.00
O901   O     0.53678   0.25620   0.71360   0.00000  Uiso   1.00
O902   O     0.48784   0.12637   0.65458   0.00000  Uiso   1.00
O903   O     0.46274   0.20391   0.84968   0.00000  Uiso   1.00
O904   O     0.54157   0.17759   0.64606   0.00000  Uiso   1.00
O905   O     0.50785   0.15880   0.84968   0.00000  Uiso   1.00
Zn906  Zn    0.52672   0.13994   0.78734   0.00000  Uiso   1.00
Zn907  Zn    0.46713   0.12458   0.71875   0.00000  Uiso   1.00
Zn908  Zn    0.54389   0.19775   0.70657   0.00000  Uiso   1.00
Zn909  Zn    0.46226   0.20439   0.78733   0.00000  Uiso   1.00
O910   O     0.64567   0.14806   0.80757   0.00000  Uiso   1.00
C911   C     0.65847   0.11664   0.82786   0.00000  Uiso   1.00
H912   H     0.63810   0.11593   0.86263   0.00000  Uiso   1.00
H913   H     0.35871   0.12381   0.83085   0.00000  Uiso   1.00
C914   C     0.65100   0.07343   0.80407   0.00000  Uiso   1.00
H915   H     0.61671   0.06671   0.80353   0.00000  Uiso   1.00
H916   H     0.33763   0.07291   0.76910   0.00000  Uiso   1.00
C917   C     0.66247   0.03936   0.82757   0.00000  Uiso   1.00
H918   H     0.36356   0.04510   0.82768   0.00000  Uiso   1.00
H919   H     0.65663   0.00853   0.80974   0.00000  Uiso   1.00
H920   H     0.64238   0.03853   0.86246   0.00000  Uiso   1.00
O921   O     0.54086   0.00669   0.69742   0.00000  Uiso   1.00
C922   C     0.52446   0.33128   0.65946   0.00000  Uiso   1.00
H923   H     0.49090   0.00584   0.66667   0.00000  Uiso   1.00
H924   H     0.52504   0.29764   0.64794   0.00000  Uiso   1.00
C925   C     0.55245   0.02427   0.62212   0.00000  Uiso   1.00
H926   H     0.55290   0.05790   0.63371   0.00000  Uiso   1.00
H927   H     0.58585   0.01612   0.61365   0.00000  Uiso   1.00
C928   C     0.53562   0.01700   0.58044   0.00000  Uiso   1.00
H929   H     0.53479   0.31688   0.56823   0.00000  Uiso   1.00
H930   H     0.55707   0.03596   0.55377   0.00000  Uiso   1.00
H931   H     0.50284   0.02648   0.58780   0.00000  Uiso   1.00
C932   C     0.46598   0.18855   0.59015   0.00000  Uiso   1.00
O933   O     0.44004   0.17488   0.62316   0.00000  Uiso   1.00
O934   O     0.46491   0.22882   0.57853   0.00000  Uiso   1.00
H935   H     0.44142   0.24355   0.60012   0.00000  Uiso   1.00
O936   O     0.39497   0.18720   0.91486   0.00000  Uiso   1.00
C937   C     0.36757   0.21831   0.93286   0.00000  Uiso   1.00
H938   H     0.38505   0.24707   0.94562   0.00000  Uiso   1.00
H939   H     0.34056   0.20591   0.96029   0.00000  Uiso   1.00
C940   C     0.34920   0.23005   0.89616   0.00000  Uiso   1.00
H941   H     0.37585   0.24313   0.86882   0.00000  Uiso   1.00
H942   H     0.66587   0.20165   0.88221   0.00000  Uiso   1.00
C943   C     0.65090   0.26217   0.91377   0.00000  Uiso   1.00
H944   H     0.62372   0.24959   0.94086   0.00000  Uiso   1.00
H945   H     0.63798   0.26966   0.88636   0.00000  Uiso   1.00
H946   H     0.33388   0.29134   0.92672   0.00000  Uiso   1.00
C947   C     0.71970   0.16030   0.75970   0.00000  Uiso   1.00
C948   C     0.74126   0.17542   0.98500   0.00000  Uiso   1.00
C949   C     0.76908   0.16716   0.50892   0.00000  Uiso   1.00
C950   C     0.81390   0.17129   0.99039   0.00000  Uiso   1.00
C951   C     0.82997   0.17991   0.94488   0.00000  Uiso   1.00
C952   C     0.84288   0.16296   0.51458   0.00000  Uiso   1.00
C953   C     0.88505   0.15529   0.99045   0.00000  Uiso   1.00
C954   C     0.90077   0.16554   0.94637   0.00000  Uiso   1.00
C955   C     0.87436   0.18043   0.92489   0.00000  Uiso   1.00
C956   C     0.83200   0.16248   0.56172   0.00000  Uiso   1.00
C957   C     0.89788   0.13212   0.55605   0.00000  Uiso   1.00
C958   C     0.94744   0.17362   0.74012   0.00000  Uiso   1.00
C959   C     0.80107   0.18575   0.91980   0.00000  Uiso   1.00
C960   C     0.99319   0.17376   0.73550   0.00000  Uiso   1.00
C961   C     0.67383   0.15780   0.76646   0.00000  Uiso   1.00
C962   C     0.84472   0.32199   0.73342   0.00000  Uiso   1.00
C963   C     0.81949   0.01197   0.76448   0.00000  Uiso   1.00
C964   C     0.82260   0.05605   0.76071   0.00000  Uiso   1.00
C965   C     0.84283   0.27782   0.73958   0.00000  Uiso   1.00
C966   C     0.85215   0.14847   0.62957   0.00000  Uiso   1.00
C967   C     0.81499   0.18445   0.87082   0.00000  Uiso   1.00
C968   C     0.91169   0.13891   0.51108   0.00000  Uiso   1.00
C969   C     0.85890   0.14477   0.58162   0.00000  Uiso   1.00
C970   C     0.75674   0.18555   0.94062   0.00000  Uiso   1.00
H971   H     0.91926   0.12016   0.57177   0.00000  Uiso   1.00
H972   H     0.79783   0.33241   0.79422   0.00000  Uiso   1.00
H973   H     0.93390   0.16283   0.92873   0.00000  Uiso   1.00
H974   H     0.94347   0.13191   0.99254   0.00000  Uiso   1.00
H975   H     0.75448   0.15511   0.54115   0.00000  Uiso   1.00
H976   H     0.70709   0.17105   0.50030   0.00000  Uiso   1.00
H977   H     0.88900   0.19062   0.89176   0.00000  Uiso   1.00
H978   H     0.68245   0.18597   0.70585   0.00000  Uiso   1.00
O979   O     0.83333   0.16667   0.75000   0.00000  Uiso   1.00
O980   O     0.84597   0.08019   0.78213   0.00000  Uiso   1.00
O981   O     0.81298   0.26085   0.77013   0.00000  Uiso   1.00
O982   O     0.74078   0.13291   0.73413   0.00000  Uiso   1.00
O983   O     0.93360   0.19272   0.71360   0.00000  Uiso   1.00
O984   O     0.73738   0.18878   0.78213   0.00000  Uiso   1.00
O985   O     0.92158   0.15226   0.77013   0.00000  Uiso   1.00
O986   O     0.80426   0.06944   0.73413   0.00000  Uiso   1.00
O987   O     0.87012   0.25620   0.71360   0.00000  Uiso   1.00
O988   O     0.82118   0.12637   0.65458   0.00000  Uiso   1.00
O989   O     0.79607   0.20391   0.84968   0.00000  Uiso   1.00
O990   O     0.87491   0.17759   0.64606   0.00000  Uiso   1.00
O991   O     0.84118   0.15880   0.84968   0.00000  Uiso   1.00
Zn992  Zn    0.86005   0.13994   0.78734   0.00000  Uiso   1.00
Zn993  Zn    0.80046   0.12458   0.71875   0.00000  Uiso   1.00
Zn994  Zn    0.87723   0.19775   0.70657   0.00000  Uiso   1.00
Zn995  Zn    0.79560   0.20439   0.78733   0.00000  Uiso   1.00
O996   O     0.97901   0.14806   0.80757   0.00000  Uiso   1.00
C997   C     0.99181   0.11664   0.82786   0.00000  Uiso   1.00
H998   H     0.97143   0.11593   0.86263   0.00000  Uiso   1.00
H999   H     0.69205   0.12381   0.83085   0.00000  Uiso   1.00
C1000  C     0.98434   0.07343   0.80407   0.00000  Uiso   1.00
H1001  H     0.95005   0.06671   0.80353   0.00000  Uiso   1.00
H1002  H     0.67096   0.07291   0.76910   0.00000  Uiso   1.00
C1003  C     0.99580   0.03936   0.82757   0.00000  Uiso   1.00
H1004  H     0.69689   0.04510   0.82768   0.00000  Uiso   1.00
H1005  H     0.98997   0.00853   0.80974   0.00000  Uiso   1.00
H1006  H     0.97571   0.03853   0.86246   0.00000  Uiso   1.00
O1007  O     0.87419   0.00669   0.69742   0.00000  Uiso   1.00
C1008  C     0.85779   0.33128   0.65946   0.00000  Uiso   1.00
H1009  H     0.82423   0.00584   0.66667   0.00000  Uiso   1.00
H1010  H     0.85837   0.29764   0.64794   0.00000  Uiso   1.00
C1011  C     0.88578   0.02427   0.62212   0.00000  Uiso   1.00
H1012  H     0.88624   0.05790   0.63371   0.00000  Uiso   1.00
H1013  H     0.91918   0.01612   0.61365   0.00000  Uiso   1.00
C1014  C     0.86896   0.01700   0.58044   0.00000  Uiso   1.00
H1015  H     0.86812   0.31688   0.56823   0.00000  Uiso   1.00
H1016  H     0.89041   0.03596   0.55377   0.00000  Uiso   1.00
H1017  H     0.83617   0.02648   0.58780   0.00000  Uiso   1.00
C1018  C     0.79932   0.18855   0.59015   0.00000  Uiso   1.00
O1019  O     0.77337   0.17488   0.62316   0.00000  Uiso   1.00
O1020  O     0.79824   0.22882   0.57853   0.00000  Uiso   1.00
H1021  H     0.77475   0.24355   0.60012   0.00000  Uiso   1.00
O1022  O     0.72831   0.18720   0.91486   0.00000  Uiso   1.00
C1023  C     0.70091   0.21831   0.93286   0.00000  Uiso   1.00
H1024  H     0.71838   0.24707   0.94562   0.00000  Uiso   1.00
H1025  H     0.67389   0.20591   0.96029   0.00000  Uiso   1.00
C1026  C     0.68253   0.23005   0.89616   0.00000  Uiso   1.00
H1027  H     0.70918   0.24313   0.86882   0.00000  Uiso   1.00
H1028  H     0.99921   0.20165   0.88221   0.00000  Uiso   1.00
C1029  C     0.98423   0.26217   0.91377   0.00000  Uiso   1.00
H1030  H     0.95705   0.24959   0.94086   0.00000  Uiso   1.00
H1031  H     0.97131   0.26966   0.88636   0.00000  Uiso   1.00
H1032  H     0.66721   0.29134   0.92672   0.00000  Uiso   1.00
C1033  C     0.05303   0.49363   0.75970   0.00000  Uiso   1.00
C1034  C     0.07459   0.50876   0.98500   0.00000  Uiso   1.00
C1035  C     0.10241   0.50049   0.50892   0.00000  Uiso   1.00
C1036  C     0.14724   0.50462   0.99039   0.00000  Uiso   1.00
C1037  C     0.16330   0.51324   0.94488   0.00000  Uiso   1.00
C1038  C     0.17622   0.49629   0.51458   0.00000  Uiso   1.00
C1039  C     0.21839   0.48862   0.99045   0.00000  Uiso   1.00
C1040  C     0.23410   0.49887   0.94637   0.00000  Uiso   1.00
C1041  C     0.20770   0.51376   0.92489   0.00000  Uiso   1.00
C1042  C     0.16533   0.49581   0.56172   0.00000  Uiso   1.00
C1043  C     0.23122   0.46545   0.55605   0.00000  Uiso   1.00
C1044  C     0.28078   0.50696   0.74012   0.00000  Uiso   1.00
C1045  C     0.13441   0.51909   0.91980   0.00000  Uiso   1.00
C1046  C     0.32653   0.50709   0.73550   0.00000  Uiso   1.00
C1047  C     0.00717   0.49114   0.76646   0.00000  Uiso   1.00
C1048  C     0.17805   0.65532   0.73342   0.00000  Uiso   1.00
C1049  C     0.15282   0.34530   0.76448   0.00000  Uiso   1.00
C1050  C     0.15594   0.38938   0.76071   0.00000  Uiso   1.00
C1051  C     0.17617   0.61116   0.73958   0.00000  Uiso   1.00
C1052  C     0.18549   0.48180   0.62957   0.00000  Uiso   1.00
C1053  C     0.14833   0.51779   0.87082   0.00000  Uiso   1.00
C1054  C     0.24503   0.47224   0.51108   0.00000  Uiso   1.00
C1055  C     0.19224   0.47810   0.58162   0.00000  Uiso   1.00
C1056  C     0.09008   0.51888   0.94062   0.00000  Uiso   1.00
H1057  H     0.25260   0.45349   0.57177   0.00000  Uiso   1.00
H1058  H     0.13117   0.66574   0.79422   0.00000  Uiso   1.00
H1059  H     0.26723   0.49616   0.92873   0.00000  Uiso   1.00
H1060  H     0.27680   0.46525   0.99254   0.00000  Uiso   1.00
H1061  H     0.08781   0.48845   0.54115   0.00000  Uiso   1.00
H1062  H     0.04043   0.50439   0.50030   0.00000  Uiso   1.00
H1063  H     0.22233   0.52395   0.89176   0.00000  Uiso   1.00
H1064  H     0.01579   0.51930   0.70585   0.00000  Uiso   1.00
O1065  O     0.16667   0.50000   0.75000   0.00000  Uiso   1.00
O1066  O     0.17930   0.41352   0.78213   0.00000  Uiso   1.00
O1067  O     0.14632   0.59418   0.77013   0.00000  Uiso   1.00
O1068  O     0.07412   0.46625   0.73413   0.00000  Uiso   1.00
O1069  O     0.26693   0.52605   0.71360   0.00000  Uiso   1.00
O1070  O     0.07071   0.52211   0.78213   0.00000  Uiso   1.00
O1071  O     0.25491   0.48559   0.77013   0.00000  Uiso   1.00
O1072  O     0.13760   0.40277   0.73413   0.00000  Uiso   1.00
O1073  O     0.20345   0.58953   0.71360   0.00000  Uiso   1.00
O1074  O     0.15451   0.45970   0.65458   0.00000  Uiso   1.00
O1075  O     0.12940   0.53724   0.84968   0.00000  Uiso   1.00
O1076  O     0.20824   0.51092   0.64606   0.00000  Uiso   1.00
O1077  O     0.17451   0.49213   0.84968   0.00000  Uiso   1.00
Zn1078 Zn    0.19338   0.47327   0.78734   0.00000  Uiso   1.00
Zn1079 Zn    0.13379   0.45791   0.71875   0.00000  Uiso   1.00
Zn1080 Zn    0.21056   0.53109   0.70657   0.00000  Uiso   1.00
Zn1081 Zn    0.12893   0.53773   0.78733   0.00000  Uiso   1.00
O1082  O     0.31234   0.48139   0.80757   0.00000  Uiso   1.00
C1083  C     0.32514   0.44997   0.82786   0.00000  Uiso   1.00
H1084  H     0.30477   0.44926   0.86263   0.00000  Uiso   1.00
H1085  H     0.02538   0.45714   0.83085   0.00000  Uiso   1.00
C1086  C     0.31767   0.40676   0.80407   0.00000  Uiso   1.00
H1087  H     0.28338   0.40004   0.80353   0.00000  Uiso   1.00
H1088  H     0.00429   0.40624   0.76910   0.00000  Uiso   1.00
C1089  C     0.32914   0.37270   0.82757   0.00000  Uiso   1.00
H1090  H     0.03022   0.37844   0.82768   0.00000  Uiso   1.00
H1091  H     0.32330   0.34186   0.80974   0.00000  Uiso   1.00
H1092  H     0.30904   0.37187   0.86246   0.00000  Uiso   1.00
O1093  O     0.20752   0.34002   0.69742   0.00000  Uiso   1.00
C1094  C     0.19112   0.66461   0.65946   0.00000  Uiso   1.00
H1095  H     0.15757   0.33918   0.66667   0.00000  Uiso   1.00
H1096  H     0.19170   0.63097   0.64794   0.00000  Uiso   1.00
C1097  C     0.21911   0.35760   0.62212   0.00000  Uiso   1.00
H1098  H     0.21957   0.39123   0.63371   0.00000  Uiso   1.00
H1099  H     0.25251   0.34945   0.61365   0.00000  Uiso   1.00
C1100  C     0.20229   0.35034   0.58044   0.00000  Uiso   1.00
H1101  H     0.20145   0.65021   0.56823   0.00000  Uiso   1.00
H1102  H     0.22374   0.36929   0.55377   0.00000  Uiso   1.00
H1103  H     0.16950   0.35981   0.58780   0.00000  Uiso   1.00
C1104  C     0.13265   0.52189   0.59015   0.00000  Uiso   1.00
O1105  O     0.10670   0.50822   0.62316   0.00000  Uiso   1.00
O1106  O     0.13157   0.56215   0.57853   0.00000  Uiso   1.00
H1107  H     0.10809   0.57688   0.60012   0.00000  Uiso   1.00
O1108  O     0.06164   0.52054   0.91486   0.00000  Uiso   1.00
C1109  C     0.03424   0.55164   0.93286   0.00000  Uiso   1.00
H1110  H     0.05172   0.58040   0.94562   0.00000  Uiso   1.00
H1111  H     0.00723   0.53924   0.96029   0.00000  Uiso   1.00
C1112  C     0.01587   0.56338   0.89616   0.00000  Uiso   1.00
H1113  H     0.04252   0.57646   0.86882   0.00000  Uiso   1.00
H1114  H     0.33254   0.53498   0.88221   0.00000  Uiso   1.00
C1115  C     0.31757   0.59550   0.91377   0.00000  Uiso   1.00
H1116  H     0.29039   0.58292   0.94086   0.00000  Uiso   1.00
H1117  H     0.30465   0.60299   0.88636   0.00000  Uiso   1.00
H1118  H     0.00055   0.62467   0.92672   0.00000  Uiso   1.00
C1119  C     0.38637   0.49363   0.75970   0.00000  Uiso   1.00
C1120  C     0.40793   0.50876   0.98500   0.00000  Uiso   1.00
C1121  C     0.43574   0.50049   0.50892   0.00000  Uiso   1.00
C1122  C     0.48057   0.50462   0.99039   0.00000  Uiso   1.00
C1123  C     0.49663   0.51324   0.94488   0.00000  Uiso   1.00
C1124  C     0.50955   0.49629   0.51458   0.00000  Uiso   1.00
C1125  C     0.55172   0.48862   0.99045   0.00000  Uiso   1.00
C1126  C     0.56744   0.49887   0.94637   0.00000  Uiso   1.00
C1127  C     0.54103   0.51376   0.92489   0.00000  Uiso   1.00
C1128  C     0.49867   0.49581   0.56172   0.00000  Uiso   1.00
C1129  C     0.56455   0.46545   0.55605   0.00000  Uiso   1.00
C1130  C     0.61411   0.50696   0.74012   0.00000  Uiso   1.00
C1131  C     0.46774   0.51909   0.91980   0.00000  Uiso   1.00
C1132  C     0.65986   0.50709   0.73550   0.00000  Uiso   1.00
C1133  C     0.34050   0.49114   0.76646   0.00000  Uiso   1.00
C1134  C     0.51139   0.65532   0.73342   0.00000  Uiso   1.00
C1135  C     0.48616   0.34530   0.76448   0.00000  Uiso   1.00
C1136  C     0.48927   0.38938   0.76071   0.00000  Uiso   1.00
C1137  C     0.50950   0.61116   0.73958   0.00000  Uiso   1.00
C1138  C     0.51882   0.48180   0.62957   0.00000  Uiso   1.00
C1139  C     0.48166   0.51779   0.87082   0.00000  Uiso   1.00
C1140  C     0.57836   0.47224   0.51108   0.00000  Uiso   1.00
C1141  C     0.52557   0.47810   0.58162   0.00000  Uiso   1.00
C1142  C     0.42341   0.51888   0.94062   0.00000  Uiso   1.00
H1143  H     0.58593   0.45349   0.57177   0.00000  Uiso   1.00
H1144  H     0.46450   0.66574   0.79422   0.00000  Uiso   1.00
H1145  H     0.60056   0.49616   0.92873   0.00000  Uiso   1.00
H1146  H     0.61014   0.46525   0.99254   0.00000  Uiso   1.00
H1147  H     0.42114   0.48845   0.54115   0.00000  Uiso   1.00
H1148  H     0.37376   0.50439   0.50030   0.00000  Uiso   1.00
H1149  H     0.55566   0.52395   0.89176   0.00000  Uiso   1.00
H1150  H     0.34912   0.51930   0.70585   0.00000  Uiso   1.00
O1151  O     0.50000   0.50000   0.75000   0.00000  Uiso   1.00
O1152  O     0.51264   0.41352   0.78213   0.00000  Uiso   1.00
O1153  O     0.47965   0.59418   0.77013   0.00000  Uiso   1.00
O1154  O     0.40745   0.46625   0.73413   0.00000  Uiso   1.00
O1155  O     0.60026   0.52605   0.71360   0.00000  Uiso   1.00
O1156  O     0.40405   0.52211   0.78213   0.00000  Uiso   1.00
O1157  O     0.58824   0.48559   0.77013   0.00000  Uiso   1.00
O1158  O     0.47093   0.40277   0.73413   0.00000  Uiso   1.00
O1159  O     0.53678   0.58953   0.71360   0.00000  Uiso   1.00
O1160  O     0.48784   0.45970   0.65458   0.00000  Uiso   1.00
O1161  O     0.46274   0.53724   0.84968   0.00000  Uiso   1.00
O1162  O     0.54157   0.51092   0.64606   0.00000  Uiso   1.00
O1163  O     0.50785   0.49213   0.84968   0.00000  Uiso   1.00
Zn1164 Zn    0.52672   0.47327   0.78734   0.00000  Uiso   1.00
Zn1165 Zn    0.46713   0.45791   0.71875   0.00000  Uiso   1.00
Zn1166 Zn    0.54389   0.53109   0.70657   0.00000  Uiso   1.00
Zn1167 Zn    0.46226   0.53773   0.78733   0.00000  Uiso   1.00
O1168  O     0.64567   0.48139   0.80757   0.00000  Uiso   1.00
C1169  C     0.65847   0.44997   0.82786   0.00000  Uiso   1.00
H1170  H     0.63810   0.44926   0.86263   0.00000  Uiso   1.00
H1171  H     0.35871   0.45714   0.83085   0.00000  Uiso   1.00
C1172  C     0.65100   0.40676   0.80407   0.00000  Uiso   1.00
H1173  H     0.61671   0.40004   0.80353   0.00000  Uiso   1.00
H1174  H     0.33763   0.40624   0.76910   0.00000  Uiso   1.00
C1175  C     0.66247   0.37270   0.82757   0.00000  Uiso   1.00
H1176  H     0.36356   0.37844   0.82768   0.00000  Uiso   1.00
H1177  H     0.65663   0.34186   0.80974   0.00000  Uiso   1.00
H1178  H     0.64238   0.37187   0.86246   0.00000  Uiso   1.00
O1179  O     0.54086   0.34002   0.69742   0.00000  Uiso   1.00
C1180  C     0.52446   0.66461   0.65946   0.00000  Uiso   1.00
H1181  H     0.49090   0.33918   0.66667   0.00000  Uiso   1.00
H1182  H     0.52504   0.63097   0.64794   0.00000  Uiso   1.00
C1183  C     0.55245   0.35760   0.62212   0.00000  Uiso   1.00
H1184  H     0.55290   0.39123   0.63371   0.00000  Uiso   1.00
H1185  H     0.58585   0.34945   0.61365   0.00000  Uiso   1.00
C1186  C     0.53562   0.35034   0.58044   0.00000  Uiso   1.00
H1187  H     0.53479   0.65021   0.56823   0.00000  Uiso   1.00
H1188  H     0.55707   0.36929   0.55377   0.00000  Uiso   1.00
H1189  H     0.50284   0.35981   0.58780   0.00000  Uiso   1.00
C1190  C     0.46598   0.52189   0.59015   0.00000  Uiso   1.00
O1191  O     0.44004   0.50822   0.62316   0.00000  Uiso   1.00
O1192  O     0.46491   0.56215   0.57853   0.00000  Uiso   1.00
H1193  H     0.44142   0.57688   0.60012   0.00000  Uiso   1.00
O1194  O     0.39497   0.52054   0.91486   0.00000  Uiso   1.00
C1195  C     0.36757   0.55164   0.93286   0.00000  Uiso   1.00
H1196  H     0.38505   0.58040   0.94562   0.00000  Uiso   1.00
H1197  H     0.34056   0.53924   0.96029   0.00000  Uiso   1.00
C1198  C     0.34920   0.56338   0.89616   0.00000  Uiso   1.00
H1199  H     0.37585   0.57646   0.86882   0.00000  Uiso   1.00
H1200  H     0.66587   0.53498   0.88221   0.00000  Uiso   1.00
C1201  C     0.65090   0.59550   0.91377   0.00000  Uiso   1.00
H1202  H     0.62372   0.58292   0.94086   0.00000  Uiso   1.00
H1203  H     0.63798   0.60299   0.88636   0.00000  Uiso   1.00
H1204  H     0.33388   0.62467   0.92672   0.00000  Uiso   1.00
C1205  C     0.71970   0.49363   0.75970   0.00000  Uiso   1.00
C1206  C     0.74126   0.50876   0.98500   0.00000  Uiso   1.00
C1207  C     0.76908   0.50049   0.50892   0.00000  Uiso   1.00
C1208  C     0.81390   0.50462   0.99039   0.00000  Uiso   1.00
C1209  C     0.82997   0.51324   0.94488   0.00000  Uiso   1.00
C1210  C     0.84288   0.49629   0.51458   0.00000  Uiso   1.00
C1211  C     0.88505   0.48862   0.99045   0.00000  Uiso   1.00
C1212  C     0.90077   0.49887   0.94637   0.00000  Uiso   1.00
C1213  C     0.87436   0.51376   0.92489   0.00000  Uiso   1.00
C1214  C     0.83200   0.49581   0.56172   0.00000  Uiso   1.00
C1215  C     0.89788   0.46545   0.55605   0.00000  Uiso   1.00
C1216  C     0.94744   0.50696   0.74012   0.00000  Uiso   1.00
C1217  C     0.80107   0.51909   0.91980   0.00000  Uiso   1.00
C1218  C     0.99319   0.50709   0.73550   0.00000  Uiso   1.00
C1219  C     0.67383   0.49114   0.76646   0.00000  Uiso   1.00
C1220  C     0.84472   0.65532   0.73342   0.00000  Uiso   1.00
C1221  C     0.81949   0.34530   0.76448   0.00000  Uiso   1.00
C1222  C     0.82260   0.38938   0.76071   0.00000  Uiso   1.00
C1223  C     0.84283   0.61116   0.73958   0.00000  Uiso   1.00
C1224  C     0.85215   0.48180   0.62957   0.00000  Uiso   1.00
C1225  C     0.81499   0.51779   0.87082   0.00000  Uiso   1.00
C1226  C     0.91169   0.47224   0.51108   0.00000  Uiso   1.00
C1227  C     0.85890   0.47810   0.58162   0.00000  Uiso   1.00
C1228  C     0.75674   0.51888   0.94062   0.00000  Uiso   1.00
H1229  H     0.91926   0.45349   0.57177   0.00000  Uiso   1.00
H1230  H     0.79783   0.66574   0.79422   0.00000  Uiso   1.00
H1231  H     0.93390   0.49616   0.92873   0.00000  Uiso   1.00
H1232  H     0.94347   0.46525   0.99254   0.00000  Uiso   1.00
H1233  H     0.75448   0.48845   0.54115   0.00000  Uiso   1.00
H1234  H     0.70709   0.50439   0.50030   0.00000  Uiso   1.00
H1235  H     0.88900   0.52395   0.89176   0.00000  Uiso   1.00
H1236  H     0.68245   0.51930   0.70585   0.00000  Uiso   1.00
O1237  O     0.83333   0.50000   0.75000   0.00000  Uiso   1.00
O1238  O     0.84597   0.41352   0.78213   0.00000  Uiso   1.00
O1239  O     0.81298   0.59418   0.77013   0.00000  Uiso   1.00
O1240  O     0.74078   0.46625   0.73413   0.00000  Uiso   1.00
O1241  O     0.93360   0.52605   0.71360   0.00000  Uiso   1.00
O1242  O     0.73738   0.52211   0.78213   0.00000  Uiso   1.00
O1243  O     0.92158   0.48559   0.77013   0.00000  Uiso   1.00
O1244  O     0.80426   0.40277   0.73413   0.00000  Uiso   1.00
O1245  O     0.87012   0.58953   0.71360   0.00000  Uiso   1.00
O1246  O     0.82118   0.45970   0.65458   0.00000  Uiso   1.00
O1247  O     0.79607   0.53724   0.84968   0.00000  Uiso   1.00
O1248  O     0.87491   0.51092   0.64606   0.00000  Uiso   1.00
O1249  O     0.84118   0.49213   0.84968   0.00000  Uiso   1.00
Zn1250 Zn    0.86005   0.47327   0.78734   0.00000  Uiso   1.00
Zn1251 Zn    0.80046   0.45791   0.71875   0.00000  Uiso   1.00
Zn1252 Zn    0.87723   0.53109   0.70657   0.00000  Uiso   1.00
Zn1253 Zn    0.79560   0.53773   0.78733   0.00000  Uiso   1.00
O1254  O     0.97901   0.48139   0.80757   0.00000  Uiso   1.00
C1255  C     0.99181   0.44997   0.82786   0.00000  Uiso   1.00
H1256  H     0.97143   0.44926   0.86263   0.00000  Uiso   1.00
H1257  H     0.69205   0.45714   0.83085   0.00000  Uiso   1.00
C1258  C     0.98434   0.40676   0.80407   0.00000  Uiso   1.00
H1259  H     0.95005   0.40004   0.80353   0.00000  Uiso   1.00
H1260  H     0.67096   0.40624   0.76910   0.00000  Uiso   1.00
C1261  C     0.99580   0.37270   0.82757   0.00000  Uiso   1.00
H1262  H     0.69689   0.37844   0.82768   0.00000  Uiso   1.00
H1263  H     0.98997   0.34186   0.80974   0.00000  Uiso   1.00
H1264  H     0.97571   0.37187   0.86246   0.00000  Uiso   1.00
O1265  O     0.87419   0.34002   0.69742   0.00000  Uiso   1.00
C1266  C     0.85779   0.66461   0.65946   0.00000  Uiso   1.00
H1267  H     0.82423   0.33918   0.66667   0.00000  Uiso   1.00
H1268  H     0.85837   0.63097   0.64794   0.00000  Uiso   1.00
C1269  C     0.88578   0.35760   0.62212   0.00000  Uiso   1.00
H1270  H     0.88624   0.39123   0.63371   0.00000  Uiso   1.00
H1271  H     0.91918   0.34945   0.61365   0.00000  Uiso   1.00
C1272  C     0.86896   0.35034   0.58044   0.00000  Uiso   1.00
H1273  H     0.86812   0.65021   0.56823   0.00000  Uiso   1.00
H1274  H     0.89041   0.36929   0.55377   0.00000  Uiso   1.00
H1275  H     0.83617   0.35981   0.58780   0.00000  Uiso   1.00
C1276  C     0.79932   0.52189   0.59015   0.00000  Uiso   1.00
O1277  O     0.77337   0.50822   0.62316   0.00000  Uiso   1.00
O1278  O     0.79824   0.56215   0.57853   0.00000  Uiso   1.00
H1279  H     0.77475   0.57688   0.60012   0.00000  Uiso   1.00
O1280  O     0.72831   0.52054   0.91486   0.00000  Uiso   1.00
C1281  C     0.70091   0.55164   0.93286   0.00000  Uiso   1.00
H1282  H     0.71838   0.58040   0.94562   0.00000  Uiso   1.00
H1283  H     0.67389   0.53924   0.96029   0.00000  Uiso   1.00
C1284  C     0.68253   0.56338   0.89616   0.00000  Uiso   1.00
H1285  H     0.70918   0.57646   0.86882   0.00000  Uiso   1.00
H1286  H     0.99921   0.53498   0.88221   0.00000  Uiso   1.00
C1287  C     0.98423   0.59550   0.91377   0.00000  Uiso   1.00
H1288  H     0.95705   0.58292   0.94086   0.00000  Uiso   1.00
H1289  H     0.97131   0.60299   0.88636   0.00000  Uiso   1.00
H1290  H     0.66721   0.62467   0.92672   0.00000  Uiso   1.00
C1291  C     0.05303   0.82696   0.75970   0.00000  Uiso   1.00
C1292  C     0.07459   0.84209   0.98500   0.00000  Uiso   1.00
C1293  C     0.10241   0.83383   0.50892   0.00000  Uiso   1.00
C1294  C     0.14724   0.83795   0.99039   0.00000  Uiso   1.00
C1295  C     0.16330   0.84658   0.94488   0.00000  Uiso   1.00
C1296  C     0.17622   0.82963   0.51458   0.00000  Uiso   1.00
C1297  C     0.21839   0.82196   0.99045   0.00000  Uiso   1.00
C1298  C     0.23410   0.83221   0.94637   0.00000  Uiso   1.00
C1299  C     0.20770   0.84710   0.92489   0.00000  Uiso   1.00
C1300  C     0.16533   0.82914   0.56172   0.00000  Uiso   1.00
C1301  C     0.23122   0.79879   0.55605   0.00000  Uiso   1.00
C1302  C     0.28078   0.84029   0.74012   0.00000  Uiso   1.00
C1303  C     0.13441   0.85242   0.91980   0.00000  Uiso   1.00
C1304  C     0.32653   0.84042   0.73550   0.00000  Uiso   1.00
C1305  C     0.00717   0.82447   0.76646   0.00000  Uiso   1.00
C1306  C     0.17805   0.98866   0.73342   0.00000  Uiso   1.00
C1307  C     0.15282   0.67863   0.76448   0.00000  Uiso   1.00
C1308  C     0.15594   0.72271   0.76071   0.00000  Uiso   1.00
C1309  C     0.17617   0.94449   0.73958   0.00000  Uiso   1.00
C1310  C     0.18549   0.81514   0.62957   0.00000  Uiso   1.00
C1311  C     0.14833   0.85112   0.87082   0.00000  Uiso   1.00
C1312  C     0.24503   0.80557   0.51108   0.00000  Uiso   1.00
C1313  C     0.19224   0.81144   0.58162   0.00000  Uiso   1.00
C1314  C     0.09008   0.85222   0.94062   0.00000  Uiso   1.00
H1315  H     0.25260   0.78682   0.57177   0.00000  Uiso   1.00
H1316  H     0.13117   0.99907   0.79422   0.00000  Uiso   1.00
H1317  H     0.26723   0.82950   0.92873   0.00000  Uiso   1.00
H1318  H     0.27680   0.79858   0.99254   0.00000  Uiso   1.00
H1319  H     0.08781   0.82178   0.54115   0.00000  Uiso   1.00
H1320  H     0.04043   0.83772   0.50030   0.00000  Uiso   1.00
H1321  H     0.22233   0.85729   0.89176   0.00000  Uiso   1.00
H1322  H     0.01579   0.85264   0.70585   0.00000  Uiso   1.00
O1323  O     0.16667   0.83333   0.75000   0.00000  Uiso   1.00
O1324  O     0.17930   0.74686   0.78213   0.00000  Uiso   1.00
O1325  O     0.14632   0.92751   0.77013   0.00000  Uiso   1.00
O1326  O     0.07412   0.79958   0.73413   0.00000  Uiso   1.00
O1327  O     0.26693   0.85939   0.71360   0.00000  Uiso   1.00
O1328  O     0.07071   0.85544   0.78213   0.00000  Uiso   1.00
O1329  O     0.25491   0.81892   0.77013   0.00000  Uiso   1.00
O1330  O     0.13760   0.73610   0.73413   0.00000  Uiso   1.00
O1331  O     0.20345   0.92286   0.71360   0.00000  Uiso   1.00
O1332  O     0.15451   0.79304   0.65458   0.00000  Uiso   1.00
O1333  O     0.12940   0.87058   0.84968   0.00000  Uiso   1.00
O1334  O     0.20824   0.84425   0.64606   0.00000  Uiso   1.00
O1335  O     0.17451   0.82546   0.84968   0.00000  Uiso   1.00
Zn1336 Zn    0.19338   0.80661   0.78734   0.00000  Uiso   1.00
Zn1337 Zn    0.13379   0.79124   0.71875   0.00000  Uiso   1.00
Zn1338 Zn    0.21056   0.86442   0.70657   0.00000  Uiso   1.00
Zn1339 Zn    0.12893   0.87106   0.78733   0.00000  Uiso   1.00
O1340  O     0.31234   0.81473   0.80757   0.00000  Uiso   1.00
C1341  C     0.32514   0.78330   0.82786   0.00000  Uiso   1.00
H1342  H     0.30477   0.78260   0.86263   0.00000  Uiso   1.00
H1343  H     0.02538   0.79048   0.83085   0.00000  Uiso   1.00
C1344  C     0.31767   0.74010   0.80407   0.00000  Uiso   1.00
H1345  H     0.28338   0.73337   0.80353   0.00000  Uiso   1.00
H1346  H     0.00429   0.73958   0.76910   0.00000  Uiso   1.00
C1347  C     0.32914   0.70603   0.82757   0.00000  Uiso   1.00
H1348  H     0.03022   0.71177   0.82768   0.00000  Uiso   1.00
H1349  H     0.32330   0.67519   0.80974   0.00000  Uiso   1.00
H1350  H     0.30904   0.70520   0.86246   0.00000  Uiso   1.00
O1351  O     0.20752   0.67335   0.69742   0.00000  Uiso   1.00
C1352  C     0.19112   0.99794   0.65946   0.00000  Uiso   1.00
H1353  H     0.15757   0.67251   0.66667   0.00000  Uiso   1.00
H1354  H     0.19170   0.96430   0.64794   0.00000  Uiso   1.00
C1355  C     0.21911   0.69093   0.62212   0.00000  Uiso   1.00
H1356  H     0.21957   0.72456   0.63371   0.00000  Uiso   1.00
H1357  H     0.25251   0.68279   0.61365   0.00000  Uiso   1.00
C1358  C     0.20229   0.68367   0.58044   0.00000  Uiso   1.00
H1359  H     0.20145   0.98354   0.56823   0.00000  Uiso   1.00
H1360  H     0.22374   0.70262   0.55377   0.00000  Uiso   1.00
H1361  H     0.16950   0.69315   0.58780   0.00000  Uiso   1.00
C1362  C     0.13265   0.85522   0.59015   0.00000  Uiso   1.00
O1363  O     0.10670   0.84155   0.62316   0.00000  Uiso   1.00
O1364  O     0.13157   0.89548   0.57853   0.00000  Uiso   1.00
H1365  H     0.10809   0.91022   0.60012   0.00000  Uiso   1.00
O1366  O     0.06164   0.85387   0.91486   0.00000  Uiso   1.00
C1367  C     0.03424   0.88498   0.93286   0.00000  Uiso   1.00
H1368  H     0.05172   0.91374   0.94562   0.00000  Uiso   1.00
H1369  H     0.00723   0.87258   0.96029   0.00000  Uiso   1.00
C1370  C     0.01587   0.89672   0.89616   0.00000  Uiso   1.00
H1371  H     0.04252   0.90980   0.86882   0.00000  Uiso   1.00
H1372  H     0.33254   0.86832   0.88221   0.00000  Uiso   1.00
C1373  C     0.31757   0.92883   0.91377   0.00000  Uiso   1.00
H1374  H     0.29039   0.91626   0.94086   0.00000  Uiso   1.00
H1375  H     0.30465   0.93632   0.88636   0.00000  Uiso   1.00
H1376  H     0.00055   0.95800   0.92672   0.00000  Uiso   1.00
C1377  C     0.38637   0.82696   0.75970   0.00000  Uiso   1.00
C1378  C     0.40793   0.84209   0.98500   0.00000  Uiso   1.00
C1379  C     0.43574   0.83383   0.50892   0.00000  Uiso   1.00
C1380  C     0.48057   0.83795   0.99039   0.00000  Uiso   1.00
C1381  C     0.49663   0.84658   0.94488   0.00000  Uiso   1.00
C1382  C     0.50955   0.82963   0.51458   0.00000  Uiso   1.00
C1383  C     0.55172   0.82196   0.99045   0.00000  Uiso   1.00
C1384  C     0.56744   0.83221   0.94637   0.00000  Uiso   1.00
C1385  C     0.54103   0.84710   0.92489   0.00000  Uiso   1.00
C1386  C     0.49867   0.82914   0.56172   0.00000  Uiso   1.00
C1387  C     0.56455   0.79879   0.55605   0.00000  Uiso   1.00
C1388  C     0.61411   0.84029   0.74012   0.00000  Uiso   1.00
C1389  C     0.46774   0.85242   0.91980   0.00000  Uiso   1.00
C1390  C     0.65986   0.84042   0.73550   0.00000  Uiso   1.00
C1391  C     0.34050   0.82447   0.76646   0.00000  Uiso   1.00
C1392  C     0.51139   0.98866   0.73342   0.00000  Uiso   1.00
C1393  C     0.48616   0.67863   0.76448   0.00000  Uiso   1.00
C1394  C     0.48927   0.72271   0.76071   0.00000  Uiso   1.00
C1395  C     0.50950   0.94449   0.73958   0.00000  Uiso   1.00
C1396  C     0.51882   0.81514   0.62957   0.00000  Uiso   1.00
C1397  C     0.48166   0.85112   0.87082   0.00000  Uiso   1.00
C1398  C     0.57836   0.80557   0.51108   0.00000  Uiso   1.00
C1399  C     0.52557   0.81144   0.58162   0.00000  Uiso   1.00
C1400  C     0.42341   0.85222   0.94062   0.00000  Uiso   1.00
H1401  H     0.58593   0.78682   0.57177   0.00000  Uiso   1.00
H1402  H     0.46450   0.99907   0.79422   0.00000  Uiso   1.00
H1403  H     0.60056   0.82950   0.92873   0.00000  Uiso   1.00
H1404  H     0.61014   0.79858   0.99254   0.00000  Uiso   1.00
H1405  H     0.42114   0.82178   0.54115   0.00000  Uiso   1.00
H1406  H     0.37376   0.83772   0.50030   0.00000  Uiso   1.00
H1407  H     0.55566   0.85729   0.89176   0.00000  Uiso   1.00
H1408  H     0.34912   0.85264   0.70585   0.00000  Uiso   1.00
O1409  O     0.50000   0.83333   0.75000   0.00000  Uiso   1.00
O1410  O     0.51264   0.74686   0.78213   0.00000  Uiso   1.00
O1411  O     0.47965   0.92751   0.77013   0.00000  Uiso   1.00
O1412  O     0.40745   0.79958   0.73413   0.00000  Uiso   1.00
O1413  O     0.60026   0.85939   0.71360   0.00000  Uiso   1.00
O1414  O     0.40405   0.85544   0.78213   0.00000  Uiso   1.00
O1415  O     0.58824   0.81892   0.77013   0.00000  Uiso   1.00
O1416  O     0.47093   0.73610   0.73413   0.00000  Uiso   1.00
O1417  O     0.53678   0.92286   0.71360   0.00000  Uiso   1.00
O1418  O     0.48784   0.79304   0.65458   0.00000  Uiso   1.00
O1419  O     0.46274   0.87058   0.84968   0.00000  Uiso   1.00
O1420  O     0.54157   0.84425   0.64606   0.00000  Uiso   1.00
O1421  O     0.50785   0.82546   0.84968   0.00000  Uiso   1.00
Zn1422 Zn    0.52672   0.80661   0.78734   0.00000  Uiso   1.00
Zn1423 Zn    0.46713   0.79124   0.71875   0.00000  Uiso   1.00
Zn1424 Zn    0.54389   0.86442   0.70657   0.00000  Uiso   1.00
Zn1425 Zn    0.46226   0.87106   0.78733   0.00000  Uiso   1.00
O1426  O     0.64567   0.81473   0.80757   0.00000  Uiso   1.00
C1427  C     0.65847   0.78330   0.82786   0.00000  Uiso   1.00
H1428  H     0.63810   0.78260   0.86263   0.00000  Uiso   1.00
H1429  H     0.35871   0.79048   0.83085   0.00000  Uiso   1.00
C1430  C     0.65100   0.74010   0.80407   0.00000  Uiso   1.00
H1431  H     0.61671   0.73337   0.80353   0.00000  Uiso   1.00
H1432  H     0.33763   0.73958   0.76910   0.00000  Uiso   1.00
C1433  C     0.66247   0.70603   0.82757   0.00000  Uiso   1.00
H1434  H     0.36356   0.71177   0.82768   0.00000  Uiso   1.00
H1435  H     0.65663   0.67519   0.80974   0.00000  Uiso   1.00
H1436  H     0.64238   0.70520   0.86246   0.00000  Uiso   1.00
O1437  O     0.54086   0.67335   0.69742   0.00000  Uiso   1.00
C1438  C     0.52446   0.99794   0.65946   0.00000  Uiso   1.00
H1439  H     0.49090   0.67251   0.66667   0.00000  Uiso   1.00
H1440  H     0.52504   0.96430   0.64794   0.00000  Uiso   1.00
C1441  C     0.55245   0.69093   0.62212   0.00000  Uiso   1.00
H1442  H     0.55290   0.72456   0.63371   0.00000  Uiso   1.00
H1443  H     0.58585   0.68279   0.61365   0.00000  Uiso   1.00
C1444  C     0.53562   0.68367   0.58044   0.00000  Uiso   1.00
H1445  H     0.53479   0.98354   0.56823   0.00000  Uiso   1.00
H1446  H     0.55707   0.70262   0.55377   0.00000  Uiso   1.00
H1447  H     0.50284   0.69315   0.58780   0.00000  Uiso   1.00
C1448  C     0.46598   0.85522   0.59015   0.00000  Uiso   1.00
O1449  O     0.44004   0.84155   0.62316   0.00000  Uiso   1.00
O1450  O     0.46491   0.89548   0.57853   0.00000  Uiso   1.00
H1451  H     0.44142   0.91022   0.60012   0.00000  Uiso   1.00
O1452  O     0.39497   0.85387   0.91486   0.00000  Uiso   1.00
C1453  C     0.36757   0.88498   0.93286   0.00000  Uiso   1.00
H1454  H     0.38505   0.91374   0.94562   0.00000  Uiso   1.00
H1455  H     0.34056   0.87258   0.96029   0.00000  Uiso   1.00
C1456  C     0.34920   0.89672   0.89616   0.00000  Uiso   1.00
H1457  H     0.37585   0.90980   0.86882   0.00000  Uiso   1.00
H1458  H     0.66587   0.86832   0.88221   0.00000  Uiso   1.00
C1459  C     0.65090   0.92883   0.91377   0.00000  Uiso   1.00
H1460  H     0.62372   0.91626   0.94086   0.00000  Uiso   1.00
H1461  H     0.63798   0.93632   0.88636   0.00000  Uiso   1.00
H1462  H     0.33388   0.95800   0.92672   0.00000  Uiso   1.00
C1463  C     0.71970   0.82696   0.75970   0.00000  Uiso   1.00
C1464  C     0.74126   0.84209   0.98500   0.00000  Uiso   1.00
C1465  C     0.76908   0.83383   0.50892   0.00000  Uiso   1.00
C1466  C     0.81390   0.83795   0.99039   0.00000  Uiso   1.00
C1467  C     0.82997   0.84658   0.94488   0.00000  Uiso   1.00
C1468  C     0.84288   0.82963   0.51458   0.00000  Uiso   1.00
C1469  C     0.88505   0.82196   0.99045   0.00000  Uiso   1.00
C1470  C     0.90077   0.83221   0.94637   0.00000  Uiso   1.00
C1471  C     0.87436   0.84710   0.92489   0.00000  Uiso   1.00
C1472  C     0.83200   0.82914   0.56172   0.00000  Uiso   1.00
C1473  C     0.89788   0.79879   0.55605   0.00000  Uiso   1.00
C1474  C     0.94744   0.84029   0.74012   0.00000  Uiso   1.00
C1475  C     0.80107   0.85242   0.91980   0.00000  Uiso   1.00
C1476  C     0.99319   0.84042   0.73550   0.00000  Uiso   1.00
C1477  C     0.67383   0.82447   0.76646   0.00000  Uiso   1.00
C1478  C     0.84472   0.98866   0.73342   0.00000  Uiso   1.00
C1479  C     0.81949   0.67863   0.76448   0.00000  Uiso   1.00
C1480  C     0.82260   0.72271   0.76071   0.00000  Uiso   1.00
C1481  C     0.84283   0.94449   0.73958   0.00000  Uiso   1.00
C1482  C     0.85215   0.81514   0.62957   0.00000  Uiso   1.00
C1483  C     0.81499   0.85112   0.87082   0.00000  Uiso   1.00
C1484  C     0.91169   0.80557   0.51108   0.00000  Uiso   1.00
C1485  C     0.85890   0.81144   0.58162   0.00000  Uiso   1.00
C1486  C     0.75674   0.85222   0.94062   0.00000  Uiso   1.00
H1487  H     0.91926   0.78682   0.57177   0.00000  Uiso   1.00
H1488  H     0.79783   0.99907   0.79422   0.00000  Uiso   1.00
H1489  H     0.93390   0.82950   0.92873   0.00000  Uiso   1.00
H1490  H     0.94347   0.79858   0.99254   0.00000  Uiso   1.00
H1491  H     0.75448   0.82178   0.54115   0.00000  Uiso   1.00
H1492  H     0.70709   0.83772   0.50030   0.00000  Uiso   1.00
H1493  H     0.88900   0.85729   0.89176   0.00000  Uiso   1.00
H1494  H     0.68245   0.85264   0.70585   0.00000  Uiso   1.00
O1495  O     0.83333   0.83333   0.75000   0.00000  Uiso   1.00
O1496  O     0.84597   0.74686   0.78213   0.00000  Uiso   1.00
O1497  O     0.81298   0.92751   0.77013   0.00000  Uiso   1.00
O1498  O     0.74078   0.79958   0.73413   0.00000  Uiso   1.00
O1499  O     0.93360   0.85939   0.71360   0.00000  Uiso   1.00
O1500  O     0.73738   0.85544   0.78213   0.00000  Uiso   1.00
O1501  O     0.92158   0.81892   0.77013   0.00000  Uiso   1.00
O1502  O     0.80426   0.73610   0.73413   0.00000  Uiso   1.00
O1503  O     0.87012   0.92286   0.71360   0.00000  Uiso   1.00
O1504  O     0.82118   0.79304   0.65458   0.00000  Uiso   1.00
O1505  O     0.79607   0.87058   0.84968   0.00000  Uiso   1.00
O1506  O     0.87491   0.84425   0.64606   0.00000  Uiso   1.00
O1507  O     0.84118   0.82546   0.84968   0.00000  Uiso   1.00
Zn1508 Zn    0.86005   0.80661   0.78734   0.00000  Uiso   1.00
Zn1509 Zn    0.80046   0.79124   0.71875   0.00000  Uiso   1.00
Zn1510 Zn    0.87723   0.86442   0.70657   0.00000  Uiso   1.00
Zn1511 Zn    0.79560   0.87106   0.78733   0.00000  Uiso   1.00
O1512  O     0.97901   0.81473   0.80757   0.00000  Uiso   1.00
C1513  C     0.99181   0.78330   0.82786   0.00000  Uiso   1.00
H1514  H     0.97143   0.78260   0.86263   0.00000  Uiso   1.00
H1515  H     0.69205   0.79048   0.83085   0.00000  Uiso   1.00
C1516  C     0.98434   0.74010   0.80407   0.00000  Uiso   1.00
H1517  H     0.95005   0.73337   0.80353   0.00000  Uiso   1.00
H1518  H     0.67096   0.73958   0.76910   0.00000  Uiso   1.00
C1519  C     0.99580   0.70603   0.82757   0.00000  Uiso   1.00
H1520  H     0.69689   0.71177   0.82768   0.00000  Uiso   1.00
H1521  H     0.98997   0.67519   0.80974   0.00000  Uiso   1.00
H1522  H     0.97571   0.70520   0.86246   0.00000  Uiso   1.00
O1523  O     0.87419   0.67335   0.69742   0.00000  Uiso   1.00
C1524  C     0.85779   0.99794   0.65946   0.00000  Uiso   1.00
H1525  H     0.82423   0.67251   0.66667   0.00000  Uiso   1.00
H1526  H     0.85837   0.96430   0.64794   0.00000  Uiso   1.00
C1527  C     0.88578   0.69093   0.62212   0.00000  Uiso   1.00
H1528  H     0.88624   0.72456   0.63371   0.00000  Uiso   1.00
H1529  H     0.91918   0.68279   0.61365   0.00000  Uiso   1.00
C1530  C     0.86896   0.68367   0.58044   0.00000  Uiso   1.00
H1531  H     0.86812   0.98354   0.56823   0.00000  Uiso   1.00
H1532  H     0.89041   0.70262   0.55377   0.00000  Uiso   1.00
H1533  H     0.83617   0.69315   0.58780   0.00000  Uiso   1.00
C1534  C     0.79932   0.85522   0.59015   0.00000  Uiso   1.00
O1535  O     0.77337   0.84155   0.62316   0.00000  Uiso   1.00
O1536  O     0.79824   0.89548   0.57853   0.00000  Uiso   1.00
H1537  H     0.77475   0.91022   0.60012   0.00000  Uiso   1.00
O1538  O     0.72831   0.85387   0.91486   0.00000  Uiso   1.00
C1539  C     0.70091   0.88498   0.93286   0.00000  Uiso   1.00
H1540  H     0.71838   0.91374   0.94562   0.00000  Uiso   1.00
H1541  H     0.67389   0.87258   0.96029   0.00000  Uiso   1.00
C1542  C     0.68253   0.89672   0.89616   0.00000  Uiso   1.00
H1543  H     0.70918   0.90980   0.86882   0.00000  Uiso   1.00
H1544  H     0.99921   0.86832   0.88221   0.00000  Uiso   1.00
C1545  C     0.98423   0.92883   0.91377   0.00000  Uiso   1.00
H1546  H     0.95705   0.91626   0.94086   0.00000  Uiso   1.00
H1547  H     0.97131   0.93632   0.88636   0.00000  Uiso   1.00
H1548  H     0.66721   0.95800   0.92672   0.00000  Uiso   1.00
loop_
_geom_bond_atom_site_label_1
_geom_bond_atom_site_label_2
_geom_bond_distance
_geom_bond_site_symmetry_2
_ccdc_geom_bond_type
C1     O38     1.267   .     A
C1     C15     1.443   .     S
C1     O36     1.276   .     A
C2     C24     1.398   .     A
C2     C777    1.387   .     S
C2     H804    1.082   .     S
C3     H29     1.079   .     S
C3     C776    1.387   1_554 S
C3     C778    1.412   1_554 S
C4     C5      1.419   .     A
C4     C777    1.412   .     S
C4     C780    1.425   .     S
C5     C13     1.418   .     A
C5     C9      1.412   .     A
C6     C10     1.420   .     A
C6     C778    1.425   1_554 S
C6     C781    1.421   1_554 S
C7     C8      1.391   .     A
C7     C780    1.421   .     S
C7     C796    1.397   .     S
C8     C9      1.384   .     A
C8     H27     1.083   .     S
C9     H31     1.081   .     S
C10    C23     1.411   .     A
C10    C72     1.492   .     S
C11    H25     1.084   .     S
C11    C22     1.385   .     A
C11    C23     1.398   .     A
C12    O37     1.287   .     A
C12    C14     1.458   .     S
C12    O39     1.271   .     A
C13    C24     1.415   .     A
C13    C21     1.471   .     S
C14    C101    1.347   .     S
C14    H118    1.088   .     S
C15    C186    1.347   1_455 S
C15    O222    1.400   1_455 S
C16    C19     1.456   .     S
C16    C275    1.335   .     S
C16    O319    1.388   .     S
C17    C18     1.434   .     S
C17    C532    1.335   1_545 S
C17    H542    1.087   1_545 S
C18    O40     1.283   .     A
C18    O34     1.279   .     A
C19    O35     1.272   .     A
C19    O41     1.269   .     A
C20    O44     1.269   .     A
C20    C23     1.448   .     S
C20    O42     1.277   .     A
C21    O43     1.276   .     A
C21    O45     1.280   .     A
C22    C781    1.397   1_554 S
C22    H802    1.084   1_554 S
C24    O76     1.389   .     S
H26    C275    1.087   .     S
H28    C796    1.084   .     S
H30    C776    1.082   1_554 S
H32    C186    1.088   1_455 S
O33    Zn49    1.930   .     S
O33    Zn46    1.958   .     S
O33    Zn47    1.957   .     S
O33    Zn48    1.933   .     S
O34    Zn46    1.927   .     S
O35    Zn49    1.926   .     S
O36    Zn47    1.924   .     S
O37    Zn48    1.938   .     S
O38    Zn49    1.938   .     S
O39    Zn46    1.925   .     S
O40    Zn47    1.928   .     S
O41    Zn48    1.925   .     S
O42    Zn47    1.939   .     S
O43    Zn49    1.952   .     S
O44    Zn48    1.951   .     S
O45    Zn46    1.938   .     S
O50    C51     1.418   .     S
O50    C101    1.400   .     S
C51    H52     1.111   .     S
C51    C54     1.535   .     S
C51    H139    1.112   .     S
H53    C223    1.112   1_455 S
C54    H55     1.112   .     S
C54    C57     1.526   .     S
C54    H142    1.111   .     S
H56    C226    1.111   1_455 S
C57    H59     1.110   .     S
C57    H60     1.111   .     S
C57    H144    1.111   .     S
H58    C229    1.111   1_455 S
O61    C532    1.388   1_545 S
O61    C578    1.413   1_545 S
C62    H64     1.114   .     S
C62    O319    1.413   .     S
C62    H321    1.116   .     S
C62    C323    1.528   .     S
H63    C578    1.116   1_545 S
C65    H67     1.112   .     S
C65    C68     1.526   .     S
C65    H66     1.112   .     S
C65    C578    1.528   1_545 S
C68    H71     1.111   .     S
C68    H70     1.110   .     S
C68    H585    1.111   1_545 S
H69    C326    1.111   .     S
C72    O74     1.399   .     S
C72    O73     1.223   .     D
O74    H75     1.014   .     S
O76    C77     1.413   .     S
C77    H78     1.117   .     S
C77    H79     1.112   .     S
C77    C80     1.529   .     S
C80    H81     1.112   .     S
C80    H254    1.111   1_455 S
C80    C255    1.526   1_455 S
H82    C166    1.111   .     S
C83    H84     1.111   .     S
C83    H85     1.110   .     S
C83    C166    1.526   .     S
C83    H172    1.111   .     S
H86    C255    1.111   1_455 S
C87    O124    1.267   .     A
C87    C101    1.443   .     S
C87    O122    1.276   .     A
C88    C110    1.398   .     A
C88    C863    1.387   .     S
C88    H890    1.082   .     S
C89    H115    1.079   .     S
C89    C862    1.387   1_554 S
C89    C864    1.412   1_554 S
C90    C91     1.419   .     A
C90    C863    1.412   .     S
C90    C866    1.425   .     S
C91    C99     1.418   .     A
C91    C95     1.412   .     A
C92    C96     1.420   .     A
C92    C864    1.425   1_554 S
C92    C867    1.421   1_554 S
C93    C94     1.391   .     A
C93    C866    1.421   .     S
C93    C882    1.397   .     S
C94    C95     1.384   .     A
C94    H113    1.083   .     S
C95    H117    1.081   .     S
C96    C109    1.411   .     A
C96    C158    1.492   .     S
C97    H111    1.084   .     S
C97    C108    1.385   .     A
C97    C109    1.398   .     A
C98    O123    1.287   .     A
C98    C100    1.458   .     S
C98    O125    1.271   .     A
C99    C110    1.415   .     A
C99    C107    1.471   .     S
C100   C187    1.347   .     S
C100   H204    1.088   .     S
C102   C105    1.456   .     S
C102   C361    1.335   .     S
C102   O405    1.388   .     S
C103   C104    1.434   .     S
C103   C618    1.335   1_545 S
C103   H628    1.087   1_545 S
C104   O126    1.283   .     A
C104   O120    1.279   .     A
C105   O121    1.272   .     A
C105   O127    1.269   .     A
C106   O130    1.269   .     A
C106   C109    1.448   .     S
C106   O128    1.277   .     A
C107   O129    1.276   .     A
C107   O131    1.280   .     A
C108   C867    1.397   1_554 S
C108   H888    1.084   1_554 S
C110   O162    1.389   .     S
H112   C361    1.087   .     S
H114   C882    1.084   .     S
H116   C862    1.082   1_554 S
O119   Zn135   1.930   .     S
O119   Zn132   1.958   .     S
O119   Zn133   1.957   .     S
O119   Zn134   1.933   .     S
O120   Zn132   1.927   .     S
O121   Zn135   1.926   .     S
O122   Zn133   1.924   .     S
O123   Zn134   1.938   .     S
O124   Zn135   1.938   .     S
O125   Zn132   1.925   .     S
O126   Zn133   1.928   .     S
O127   Zn134   1.925   .     S
O128   Zn133   1.939   .     S
O129   Zn135   1.952   .     S
O130   Zn134   1.951   .     S
O131   Zn132   1.938   .     S
O136   C137    1.418   .     S
O136   C187    1.400   .     S
C137   H138    1.111   .     S
C137   C140    1.535   .     S
C137   H225    1.112   .     S
C140   H141    1.112   .     S
C140   C143    1.526   .     S
C140   H228    1.111   .     S
C143   H145    1.110   .     S
C143   H146    1.111   .     S
C143   H230    1.111   .     S
O147   C618    1.388   1_545 S
O147   C664    1.413   1_545 S
C148   H150    1.114   .     S
C148   O405    1.413   .     S
C148   H407    1.116   .     S
C148   C409    1.528   .     S
H149   C664    1.116   1_545 S
C151   H153    1.112   .     S
C151   C154    1.526   .     S
C151   H152    1.112   .     S
C151   C664    1.528   1_545 S
C154   H157    1.111   .     S
C154   H156    1.110   .     S
C154   H671    1.111   1_545 S
H155   C412    1.111   .     S
C158   O160    1.399   .     S
C158   O159    1.223   .     D
O160   H161    1.014   .     S
O162   C163    1.413   .     S
C163   H164    1.117   .     S
C163   H165    1.112   .     S
C163   C166    1.529   .     S
C166   H167    1.112   .     S
H168   C252    1.111   .     S
C169   H170    1.111   .     S
C169   H171    1.110   .     S
C169   C252    1.526   .     S
C169   H258    1.111   .     S
C173   O210    1.267   .     A
C173   C187    1.443   .     S
C173   O208    1.276   .     A
C174   C196    1.398   .     A
C174   C949    1.387   .     S
C174   H976    1.082   .     S
C175   H201    1.079   .     S
C175   C948    1.387   1_554 S
C175   C950    1.412   1_554 S
C176   C177    1.419   .     A
C176   C949    1.412   .     S
C176   C952    1.425   .     S
C177   C185    1.418   .     A
C177   C181    1.412   .     A
C178   C182    1.420   .     A
C178   C950    1.425   1_554 S
C178   C953    1.421   1_554 S
C179   C180    1.391   .     A
C179   C952    1.421   .     S
C179   C968    1.397   .     S
C180   C181    1.384   .     A
C180   H199    1.083   .     S
C181   H203    1.081   .     S
C182   C195    1.411   .     A
C182   C244    1.492   .     S
C183   H197    1.084   .     S
C183   C194    1.385   .     A
C183   C195    1.398   .     A
C184   O209    1.287   .     A
C184   C186    1.458   .     S
C184   O211    1.271   .     A
C185   C196    1.415   .     A
C185   C193    1.471   .     S
C186   C15     1.347   1_655 S
C186   H32     1.088   1_655 S
C188   C191    1.456   .     S
C188   C447    1.335   .     S
C188   O491    1.388   .     S
C189   C190    1.434   .     S
C189   C704    1.335   1_545 S
C189   H714    1.087   1_545 S
C190   O212    1.283   .     A
C190   O206    1.279   .     A
C191   O207    1.272   .     A
C191   O213    1.269   .     A
C192   O216    1.269   .     A
C192   C195    1.448   .     S
C192   O214    1.277   .     A
C193   O215    1.276   .     A
C193   O217    1.280   .     A
C194   C953    1.397   1_554 S
C194   H974    1.084   1_554 S
C196   O248    1.389   .     S
H198   C447    1.087   .     S
H200   C968    1.084   .     S
H202   C948    1.082   1_554 S
O205   Zn221   1.930   .     S
O205   Zn218   1.958   .     S
O205   Zn219   1.957   .     S
O205   Zn220   1.933   .     S
O206   Zn218   1.927   .     S
O207   Zn221   1.926   .     S
O208   Zn219   1.924   .     S
O209   Zn220   1.938   .     S
O210   Zn221   1.938   .     S
O211   Zn218   1.925   .     S
O212   Zn219   1.928   .     S
O213   Zn220   1.925   .     S
O214   Zn219   1.939   .     S
O215   Zn221   1.952   .     S
O216   Zn220   1.951   .     S
O217   Zn218   1.938   .     S
O222   C223    1.418   .     S
O222   C15     1.400   1_655 S
C223   H224    1.111   .     S
C223   C226    1.535   .     S
C223   H53     1.112   1_655 S
C226   H227    1.112   .     S
C226   C229    1.526   .     S
C226   H56     1.111   1_655 S
C229   H231    1.110   .     S
C229   H232    1.111   .     S
C229   H58     1.111   1_655 S
O233   C704    1.388   1_545 S
O233   C750    1.413   1_545 S
C234   H236    1.114   .     S
C234   O491    1.413   .     S
C234   H493    1.116   .     S
C234   C495    1.528   .     S
H235   C750    1.116   1_545 S
C237   H239    1.112   .     S
C237   C240    1.526   .     S
C237   H238    1.112   .     S
C237   C750    1.528   1_545 S
C240   H243    1.111   .     S
C240   H242    1.110   .     S
C240   H757    1.111   1_545 S
H241   C498    1.111   .     S
C244   O246    1.399   .     S
C244   O245    1.223   .     D
O246   H247    1.014   .     S
O248   C249    1.413   .     S
C249   H250    1.117   .     S
C249   H251    1.112   .     S
C249   C252    1.529   .     S
C252   H253    1.112   .     S
H254   C80     1.111   1_655 S
C255   H256    1.111   .     S
C255   H257    1.110   .     S
C255   C80     1.526   1_655 S
C255   H86     1.111   1_655 S
C259   O296    1.267   .     A
C259   C273    1.443   .     S
C259   O294    1.276   .     A
C260   C282    1.398   .     A
C260   C1035   1.387   .     S
C260   H1062   1.082   .     S
C261   H287    1.079   .     S
C261   C1034   1.387   1_554 S
C261   C1036   1.412   1_554 S
C262   C263    1.419   .     A
C262   C1035   1.412   .     S
C262   C1038   1.425   .     S
C263   C271    1.418   .     A
C263   C267    1.412   .     A
C264   C268    1.420   .     A
C264   C1036   1.425   1_554 S
C264   C1039   1.421   1_554 S
C265   C266    1.391   .     A
C265   C1038   1.421   .     S
C265   C1054   1.397   .     S
C266   C267    1.384   .     A
C266   H285    1.083   .     S
C267   H289    1.081   .     S
C268   C281    1.411   .     A
C268   C330    1.492   .     S
C269   H283    1.084   .     S
C269   C280    1.385   .     A
C269   C281    1.398   .     A
C270   O295    1.287   .     A
C270   C272    1.458   .     S
C270   O297    1.271   .     A
C271   C282    1.415   .     A
C271   C279    1.471   .     S
C272   C359    1.347   .     S
C272   H376    1.088   .     S
C273   C444    1.347   1_455 S
C273   O480    1.400   1_455 S
C274   C277    1.456   .     S
C274   C533    1.335   .     S
C274   O577    1.388   .     S
C275   C276    1.434   .     S
C276   O298    1.283   .     A
C276   O292    1.279   .     A
C277   O293    1.272   .     A
C277   O299    1.269   .     A
C278   O302    1.269   .     A
C278   C281    1.448   .     S
C278   O300    1.277   .     A
C279   O301    1.276   .     A
C279   O303    1.280   .     A
C280   C1039   1.397   1_554 S
C280   H1060   1.084   1_554 S
C282   O334    1.389   .     S
H284   C533    1.087   .     S
H286   C1054   1.084   .     S
H288   C1034   1.082   1_554 S
H290   C444    1.088   1_455 S
O291   Zn307   1.930   .     S
O291   Zn304   1.958   .     S
O291   Zn305   1.957   .     S
O291   Zn306   1.933   .     S
O292   Zn304   1.927   .     S
O293   Zn307   1.926   .     S
O294   Zn305   1.924   .     S
O295   Zn306   1.938   .     S
O296   Zn307   1.938   .     S
O297   Zn304   1.925   .     S
O298   Zn305   1.928   .     S
O299   Zn306   1.925   .     S
O300   Zn305   1.939   .     S
O301   Zn307   1.952   .     S
O302   Zn306   1.951   .     S
O303   Zn304   1.938   .     S
O308   C309    1.418   .     S
O308   C359    1.400   .     S
C309   H310    1.111   .     S
C309   C312    1.535   .     S
C309   H397    1.112   .     S
H311   C481    1.112   1_455 S
C312   H313    1.112   .     S
C312   C315    1.526   .     S
C312   H400    1.111   .     S
H314   C484    1.111   1_455 S
C315   H317    1.110   .     S
C315   H318    1.111   .     S
C315   H402    1.111   .     S
H316   C487    1.111   1_455 S
C320   H322    1.114   .     S
C320   O577    1.413   .     S
C320   H579    1.116   .     S
C320   C581    1.528   .     S
C323   H325    1.112   .     S
C323   C326    1.526   .     S
C323   H324    1.112   .     S
C326   H329    1.111   .     S
C326   H328    1.110   .     S
H327   C584    1.111   .     S
C330   O332    1.399   .     S
C330   O331    1.223   .     D
O332   H333    1.014   .     S
O334   C335    1.413   .     S
C335   H336    1.117   .     S
C335   H337    1.112   .     S
C335   C338    1.529   .     S
C338   H339    1.112   .     S
C338   H512    1.111   1_455 S
C338   C513    1.526   1_455 S
H340   C424    1.111   .     S
C341   H342    1.111   .     S
C341   H343    1.110   .     S
C341   C424    1.526   .     S
C341   H430    1.111   .     S
H344   C513    1.111   1_455 S
C345   O382    1.267   .     A
C345   C359    1.443   .     S
C345   O380    1.276   .     A
C346   C368    1.398   .     A
C346   C1121   1.387   .     S
C346   H1148   1.082   .     S
C347   H373    1.079   .     S
C347   C1120   1.387   1_554 S
C347   C1122   1.412   1_554 S
C348   C349    1.419   .     A
C348   C1121   1.412   .     S
C348   C1124   1.425   .     S
C349   C357    1.418   .     A
C349   C353    1.412   .     A
C350   C354    1.420   .     A
C350   C1122   1.425   1_554 S
C350   C1125   1.421   1_554 S
C351   C352    1.391   .     A
C351   C1124   1.421   .     S
C351   C1140   1.397   .     S
C352   C353    1.384   .     A
C352   H371    1.083   .     S
C353   H375    1.081   .     S
C354   C367    1.411   .     A
C354   C416    1.492   .     S
C355   H369    1.084   .     S
C355   C366    1.385   .     A
C355   C367    1.398   .     A
C356   O381    1.287   .     A
C356   C358    1.458   .     S
C356   O383    1.271   .     A
C357   C368    1.415   .     A
C357   C365    1.471   .     S
C358   C445    1.347   .     S
C358   H462    1.088   .     S
C360   C363    1.456   .     S
C360   C619    1.335   .     S
C360   O663    1.388   .     S
C361   C362    1.434   .     S
C362   O384    1.283   .     A
C362   O378    1.279   .     A
C363   O379    1.272   .     A
C363   O385    1.269   .     A
C364   O388    1.269   .     A
C364   C367    1.448   .     S
C364   O386    1.277   .     A
C365   O387    1.276   .     A
C365   O389    1.280   .     A
C366   C1125   1.397   1_554 S
C366   H1146   1.084   1_554 S
C368   O420    1.389   .     S
H370   C619    1.087   .     S
H372   C1140   1.084   .     S
H374   C1120   1.082   1_554 S
O377   Zn393   1.930   .     S
O377   Zn390   1.958   .     S
O377   Zn391   1.957   .     S
O377   Zn392   1.933   .     S
O378   Zn390   1.927   .     S
O379   Zn393   1.926   .     S
O380   Zn391   1.924   .     S
O381   Zn392   1.938   .     S
O382   Zn393   1.938   .     S
O383   Zn390   1.925   .     S
O384   Zn391   1.928   .     S
O385   Zn392   1.925   .     S
O386   Zn391   1.939   .     S
O387   Zn393   1.952   .     S
O388   Zn392   1.951   .     S
O389   Zn390   1.938   .     S
O394   C395    1.418   .     S
O394   C445    1.400   .     S
C395   H396    1.111   .     S
C395   C398    1.535   .     S
C395   H483    1.112   .     S
C398   H399    1.112   .     S
C398   C401    1.526   .     S
C398   H486    1.111   .     S
C401   H403    1.110   .     S
C401   H404    1.111   .     S
C401   H488    1.111   .     S
C406   H408    1.114   .     S
C406   O663    1.413   .     S
C406   H665    1.116   .     S
C406   C667    1.528   .     S
C409   H411    1.112   .     S
C409   C412    1.526   .     S
C409   H410    1.112   .     S
C412   H415    1.111   .     S
C412   H414    1.110   .     S
H413   C670    1.111   .     S
C416   O418    1.399   .     S
C416   O417    1.223   .     D
O418   H419    1.014   .     S
O420   C421    1.413   .     S
C421   H422    1.117   .     S
C421   H423    1.112   .     S
C421   C424    1.529   .     S
C424   H425    1.112   .     S
H426   C510    1.111   .     S
C427   H428    1.111   .     S
C427   H429    1.110   .     S
C427   C510    1.526   .     S
C427   H516    1.111   .     S
C431   O468    1.267   .     A
C431   C445    1.443   .     S
C431   O466    1.276   .     A
C432   C454    1.398   .     A
C432   C1207   1.387   .     S
C432   H1234   1.082   .     S
C433   H459    1.079   .     S
C433   C1206   1.387   1_554 S
C433   C1208   1.412   1_554 S
C434   C435    1.419   .     A
C434   C1207   1.412   .     S
C434   C1210   1.425   .     S
C435   C443    1.418   .     A
C435   C439    1.412   .     A
C436   C440    1.420   .     A
C436   C1208   1.425   1_554 S
C436   C1211   1.421   1_554 S
C437   C438    1.391   .     A
C437   C1210   1.421   .     S
C437   C1226   1.397   .     S
C438   C439    1.384   .     A
C438   H457    1.083   .     S
C439   H461    1.081   .     S
C440   C453    1.411   .     A
C440   C502    1.492   .     S
C441   H455    1.084   .     S
C441   C452    1.385   .     A
C441   C453    1.398   .     A
C442   O467    1.287   .     A
C442   C444    1.458   .     S
C442   O469    1.271   .     A
C443   C454    1.415   .     A
C443   C451    1.471   .     S
C444   C273    1.347   1_655 S
C444   H290    1.088   1_655 S
C446   C449    1.456   .     S
C446   C705    1.335   .     S
C446   O749    1.388   .     S
C447   C448    1.434   .     S
C448   O470    1.283   .     A
C448   O464    1.279   .     A
C449   O465    1.272   .     A
C449   O471    1.269   .     A
C450   O474    1.269   .     A
C450   C453    1.448   .     S
C450   O472    1.277   .     A
C451   O473    1.276   .     A
C451   O475    1.280   .     A
C452   C1211   1.397   1_554 S
C452   H1232   1.084   1_554 S
C454   O506    1.389   .     S
H456   C705    1.087   .     S
H458   C1226   1.084   .     S
H460   C1206   1.082   1_554 S
O463   Zn479   1.930   .     S
O463   Zn476   1.958   .     S
O463   Zn477   1.957   .     S
O463   Zn478   1.933   .     S
O464   Zn476   1.927   .     S
O465   Zn479   1.926   .     S
O466   Zn477   1.924   .     S
O467   Zn478   1.938   .     S
O468   Zn479   1.938   .     S
O469   Zn476   1.925   .     S
O470   Zn477   1.928   .     S
O471   Zn478   1.925   .     S
O472   Zn477   1.939   .     S
O473   Zn479   1.952   .     S
O474   Zn478   1.951   .     S
O475   Zn476   1.938   .     S
O480   C481    1.418   .     S
O480   C273    1.400   1_655 S
C481   H482    1.111   .     S
C481   C484    1.535   .     S
C481   H311    1.112   1_655 S
C484   H485    1.112   .     S
C484   C487    1.526   .     S
C484   H314    1.111   1_655 S
C487   H489    1.110   .     S
C487   H490    1.111   .     S
C487   H316    1.111   1_655 S
C492   H494    1.114   .     S
C492   O749    1.413   .     S
C492   H751    1.116   .     S
C492   C753    1.528   .     S
C495   H497    1.112   .     S
C495   C498    1.526   .     S
C495   H496    1.112   .     S
C498   H501    1.111   .     S
C498   H500    1.110   .     S
H499   C756    1.111   .     S
C502   O504    1.399   .     S
C502   O503    1.223   .     D
O504   H505    1.014   .     S
O506   C507    1.413   .     S
C507   H508    1.117   .     S
C507   H509    1.112   .     S
C507   C510    1.529   .     S
C510   H511    1.112   .     S
H512   C338    1.111   1_655 S
C513   H514    1.111   .     S
C513   H515    1.110   .     S
C513   C338    1.526   1_655 S
C513   H344    1.111   1_655 S
C517   O554    1.267   .     A
C517   C531    1.443   .     S
C517   O552    1.276   .     A
C518   C540    1.398   .     A
C518   C1293   1.387   .     S
C518   H1320   1.082   .     S
C519   H545    1.079   .     S
C519   C1292   1.387   1_554 S
C519   C1294   1.412   1_554 S
C520   C521    1.419   .     A
C520   C1293   1.412   .     S
C520   C1296   1.425   .     S
C521   C529    1.418   .     A
C521   C525    1.412   .     A
C522   C526    1.420   .     A
C522   C1294   1.425   1_554 S
C522   C1297   1.421   1_554 S
C523   C524    1.391   .     A
C523   C1296   1.421   .     S
C523   C1312   1.397   .     S
C524   C525    1.384   .     A
C524   H543    1.083   .     S
C525   H547    1.081   .     S
C526   C539    1.411   .     A
C526   C588    1.492   .     S
C527   H541    1.084   .     S
C527   C538    1.385   .     A
C527   C539    1.398   .     A
C528   O553    1.287   .     A
C528   C530    1.458   .     S
C528   O555    1.271   .     A
C529   C540    1.415   .     A
C529   C537    1.471   .     S
C530   C617    1.347   .     S
C530   H634    1.088   .     S
C531   C702    1.347   1_455 S
C531   O738    1.400   1_455 S
C532   C535    1.456   .     S
C532   C17     1.335   1_565 S
C532   O61     1.388   1_565 S
C533   C534    1.434   .     S
C534   O556    1.283   .     A
C534   O550    1.279   .     A
C535   O551    1.272   .     A
C535   O557    1.269   .     A
C536   O560    1.269   .     A
C536   C539    1.448   .     S
C536   O558    1.277   .     A
C537   O559    1.276   .     A
C537   O561    1.280   .     A
C538   C1297   1.397   1_554 S
C538   H1318   1.084   1_554 S
C540   O592    1.389   .     S
H542   C17     1.087   1_565 S
H544   C1312   1.084   .     S
H546   C1292   1.082   1_554 S
H548   C702    1.088   1_455 S
O549   Zn565   1.930   .     S
O549   Zn562   1.958   .     S
O549   Zn563   1.957   .     S
O549   Zn564   1.933   .     S
O550   Zn562   1.927   .     S
O551   Zn565   1.926   .     S
O552   Zn563   1.924   .     S
O553   Zn564   1.938   .     S
O554   Zn565   1.938   .     S
O555   Zn562   1.925   .     S
O556   Zn563   1.928   .     S
O557   Zn564   1.925   .     S
O558   Zn563   1.939   .     S
O559   Zn565   1.952   .     S
O560   Zn564   1.951   .     S
O561   Zn562   1.938   .     S
O566   C567    1.418   .     S
O566   C617    1.400   .     S
C567   H568    1.111   .     S
C567   C570    1.535   .     S
C567   H655    1.112   .     S
H569   C739    1.112   1_455 S
C570   H571    1.112   .     S
C570   C573    1.526   .     S
C570   H658    1.111   .     S
H572   C742    1.111   1_455 S
C573   H575    1.110   .     S
C573   H576    1.111   .     S
C573   H660    1.111   .     S
H574   C745    1.111   1_455 S
C578   H580    1.114   .     S
C578   O61     1.413   1_565 S
C578   H63     1.116   1_565 S
C578   C65     1.528   1_565 S
C581   H583    1.112   .     S
C581   C584    1.526   .     S
C581   H582    1.112   .     S
C584   H587    1.111   .     S
C584   H586    1.110   .     S
H585   C68     1.111   1_565 S
C588   O590    1.399   .     S
C588   O589    1.223   .     D
O590   H591    1.014   .     S
O592   C593    1.413   .     S
C593   H594    1.117   .     S
C593   H595    1.112   .     S
C593   C596    1.529   .     S
C596   H597    1.112   .     S
C596   H770    1.111   1_455 S
C596   C771    1.526   1_455 S
H598   C682    1.111   .     S
C599   H600    1.111   .     S
C599   H601    1.110   .     S
C599   C682    1.526   .     S
C599   H688    1.111   .     S
H602   C771    1.111   1_455 S
C603   O640    1.267   .     A
C603   C617    1.443   .     S
C603   O638    1.276   .     A
C604   C626    1.398   .     A
C604   C1379   1.387   .     S
C604   H1406   1.082   .     S
C605   H631    1.079   .     S
C605   C1378   1.387   1_554 S
C605   C1380   1.412   1_554 S
C606   C607    1.419   .     A
C606   C1379   1.412   .     S
C606   C1382   1.425   .     S
C607   C615    1.418   .     A
C607   C611    1.412   .     A
C608   C612    1.420   .     A
C608   C1380   1.425   1_554 S
C608   C1383   1.421   1_554 S
C609   C610    1.391   .     A
C609   C1382   1.421   .     S
C609   C1398   1.397   .     S
C610   C611    1.384   .     A
C610   H629    1.083   .     S
C611   H633    1.081   .     S
C612   C625    1.411   .     A
C612   C674    1.492   .     S
C613   H627    1.084   .     S
C613   C624    1.385   .     A
C613   C625    1.398   .     A
C614   O639    1.287   .     A
C614   C616    1.458   .     S
C614   O641    1.271   .     A
C615   C626    1.415   .     A
C615   C623    1.471   .     S
C616   C703    1.347   .     S
C616   H720    1.088   .     S
C618   C621    1.456   .     S
C618   C103    1.335   1_565 S
C618   O147    1.388   1_565 S
C619   C620    1.434   .     S
C620   O642    1.283   .     A
C620   O636    1.279   .     A
C621   O637    1.272   .     A
C621   O643    1.269   .     A
C622   O646    1.269   .     A
C622   C625    1.448   .     S
C622   O644    1.277   .     A
C623   O645    1.276   .     A
C623   O647    1.280   .     A
C624   C1383   1.397   1_554 S
C624   H1404   1.084   1_554 S
C626   O678    1.389   .     S
H628   C103    1.087   1_565 S
H630   C1398   1.084   .     S
H632   C1378   1.082   1_554 S
O635   Zn651   1.930   .     S
O635   Zn648   1.958   .     S
O635   Zn649   1.957   .     S
O635   Zn650   1.933   .     S
O636   Zn648   1.927   .     S
O637   Zn651   1.926   .     S
O638   Zn649   1.924   .     S
O639   Zn650   1.938   .     S
O640   Zn651   1.938   .     S
O641   Zn648   1.925   .     S
O642   Zn649   1.928   .     S
O643   Zn650   1.925   .     S
O644   Zn649   1.939   .     S
O645   Zn651   1.952   .     S
O646   Zn650   1.951   .     S
O647   Zn648   1.938   .     S
O652   C653    1.418   .     S
O652   C703    1.400   .     S
C653   H654    1.111   .     S
C653   C656    1.535   .     S
C653   H741    1.112   .     S
C656   H657    1.112   .     S
C656   C659    1.526   .     S
C656   H744    1.111   .     S
C659   H661    1.110   .     S
C659   H662    1.111   .     S
C659   H746    1.111   .     S
C664   H666    1.114   .     S
C664   O147    1.413   1_565 S
C664   H149    1.116   1_565 S
C664   C151    1.528   1_565 S
C667   H669    1.112   .     S
C667   C670    1.526   .     S
C667   H668    1.112   .     S
C670   H673    1.111   .     S
C670   H672    1.110   .     S
H671   C154    1.111   1_565 S
C674   O676    1.399   .     S
C674   O675    1.223   .     D
O676   H677    1.014   .     S
O678   C679    1.413   .     S
C679   H680    1.117   .     S
C679   H681    1.112   .     S
C679   C682    1.529   .     S
C682   H683    1.112   .     S
H684   C768    1.111   .     S
C685   H686    1.111   .     S
C685   H687    1.110   .     S
C685   C768    1.526   .     S
C685   H774    1.111   .     S
C689   O726    1.267   .     A
C689   C703    1.443   .     S
C689   O724    1.276   .     A
C690   C712    1.398   .     A
C690   C1465   1.387   .     S
C690   H1492   1.082   .     S
C691   H717    1.079   .     S
C691   C1464   1.387   1_554 S
C691   C1466   1.412   1_554 S
C692   C693    1.419   .     A
C692   C1465   1.412   .     S
C692   C1468   1.425   .     S
C693   C701    1.418   .     A
C693   C697    1.412   .     A
C694   C698    1.420   .     A
C694   C1466   1.425   1_554 S
C694   C1469   1.421   1_554 S
C695   C696    1.391   .     A
C695   C1468   1.421   .     S
C695   C1484   1.397   .     S
C696   C697    1.384   .     A
C696   H715    1.083   .     S
C697   H719    1.081   .     S
C698   C711    1.411   .     A
C698   C760    1.492   .     S
C699   H713    1.084   .     S
C699   C710    1.385   .     A
C699   C711    1.398   .     A
C700   O725    1.287   .     A
C700   C702    1.458   .     S
C700   O727    1.271   .     A
C701   C712    1.415   .     A
C701   C709    1.471   .     S
C702   C531    1.347   1_655 S
C702   H548    1.088   1_655 S
C704   C707    1.456   .     S
C704   C189    1.335   1_565 S
C704   O233    1.388   1_565 S
C705   C706    1.434   .     S
C706   O728    1.283   .     A
C706   O722    1.279   .     A
C707   O723    1.272   .     A
C707   O729    1.269   .     A
C708   O732    1.269   .     A
C708   C711    1.448   .     S
C708   O730    1.277   .     A
C709   O731    1.276   .     A
C709   O733    1.280   .     A
C710   C1469   1.397   1_554 S
C710   H1490   1.084   1_554 S
C712   O764    1.389   .     S
H714   C189    1.087   1_565 S
H716   C1484   1.084   .     S
H718   C1464   1.082   1_554 S
O721   Zn737   1.930   .     S
O721   Zn734   1.958   .     S
O721   Zn735   1.957   .     S
O721   Zn736   1.933   .     S
O722   Zn734   1.927   .     S
O723   Zn737   1.926   .     S
O724   Zn735   1.924   .     S
O725   Zn736   1.938   .     S
O726   Zn737   1.938   .     S
O727   Zn734   1.925   .     S
O728   Zn735   1.928   .     S
O729   Zn736   1.925   .     S
O730   Zn735   1.939   .     S
O731   Zn737   1.952   .     S
O732   Zn736   1.951   .     S
O733   Zn734   1.938   .     S
O738   C739    1.418   .     S
O738   C531    1.400   1_655 S
C739   H740    1.111   .     S
C739   C742    1.535   .     S
C739   H569    1.112   1_655 S
C742   H743    1.112   .     S
C742   C745    1.526   .     S
C742   H572    1.111   1_655 S
C745   H747    1.110   .     S
C745   H748    1.111   .     S
C745   H574    1.111   1_655 S
C750   H752    1.114   .     S
C750   O233    1.413   1_565 S
C750   H235    1.116   1_565 S
C750   C237    1.528   1_565 S
C753   H755    1.112   .     S
C753   C756    1.526   .     S
C753   H754    1.112   .     S
C756   H759    1.111   .     S
C756   H758    1.110   .     S
H757   C240    1.111   1_565 S
C760   O762    1.399   .     S
C760   O761    1.223   .     D
O762   H763    1.014   .     S
O764   C765    1.413   .     S
C765   H766    1.117   .     S
C765   H767    1.112   .     S
C765   C768    1.529   .     S
C768   H769    1.112   .     S
H770   C596    1.111   1_655 S
C771   H772    1.111   .     S
C771   H773    1.110   .     S
C771   C596    1.526   1_655 S
C771   H602    1.111   1_655 S
C775   O812    1.267   .     A
C775   C789    1.443   .     S
C775   O810    1.276   .     A
C776   C798    1.398   .     A
C776   C3      1.387   1_556 S
C776   H30     1.082   1_556 S
C777   H803    1.079   .     S
C778   C779    1.419   .     A
C778   C3      1.412   1_556 S
C778   C6      1.425   1_556 S
C779   C787    1.418   .     A
C779   C783    1.412   .     A
C780   C784    1.420   .     A
C781   C782    1.391   .     A
C781   C6      1.421   1_556 S
C781   C22     1.397   1_556 S
C782   C783    1.384   .     A
C782   H801    1.083   .     S
C783   H805    1.081   .     S
C784   C797    1.411   .     A
C784   C846    1.492   .     S
C785   H799    1.084   .     S
C785   C796    1.385   .     A
C785   C797    1.398   .     A
C786   O811    1.287   .     A
C786   C788    1.458   .     S
C786   O813    1.271   .     A
C787   C798    1.415   .     A
C787   C795    1.471   .     S
C788   C875    1.347   .     S
C788   H892    1.088   .     S
C789   C960    1.347   1_455 S
C789   O996    1.400   1_455 S
C790   C793    1.456   .     S
C790   C1049   1.335   .     S
C790   O1093   1.388   .     S
C791   C792    1.434   .     S
C791   C1306   1.335   1_545 S
C791   H1316   1.087   1_545 S
C792   O814    1.283   .     A
C792   O808    1.279   .     A
C793   O809    1.272   .     A
C793   O815    1.269   .     A
C794   O818    1.269   .     A
C794   C797    1.448   .     S
C794   O816    1.277   .     A
C795   O817    1.276   .     A
C795   O819    1.280   .     A
C798   O850    1.389   .     S
H800   C1049   1.087   .     S
H802   C22     1.084   1_556 S
H806   C960    1.088   1_455 S
O807   Zn823   1.930   .     S
O807   Zn820   1.958   .     S
O807   Zn821   1.957   .     S
O807   Zn822   1.933   .     S
O808   Zn820   1.927   .     S
O809   Zn823   1.926   .     S
O810   Zn821   1.924   .     S
O811   Zn822   1.938   .     S
O812   Zn823   1.938   .     S
O813   Zn820   1.925   .     S
O814   Zn821   1.928   .     S
O815   Zn822   1.925   .     S
O816   Zn821   1.939   .     S
O817   Zn823   1.952   .     S
O818   Zn822   1.951   .     S
O819   Zn820   1.938   .     S
O824   C825    1.418   .     S
O824   C875    1.400   .     S
C825   H826    1.111   .     S
C825   C828    1.535   .     S
C825   H913    1.112   .     S
H827   C997    1.112   1_455 S
C828   H829    1.112   .     S
C828   C831    1.526   .     S
C828   H916    1.111   .     S
H830   C1000   1.111   1_455 S
C831   H833    1.110   .     S
C831   H834    1.111   .     S
C831   H918    1.111   .     S
H832   C1003   1.111   1_455 S
O835   C1306   1.388   1_545 S
O835   C1352   1.413   1_545 S
C836   H838    1.114   .     S
C836   O1093   1.413   .     S
C836   H1095   1.116   .     S
C836   C1097   1.528   .     S
H837   C1352   1.116   1_545 S
C839   H841    1.112   .     S
C839   C842    1.526   .     S
C839   H840    1.112   .     S
C839   C1352   1.528   1_545 S
C842   H845    1.111   .     S
C842   H844    1.110   .     S
C842   H1359   1.111   1_545 S
H843   C1100   1.111   .     S
C846   O848    1.399   .     S
C846   O847    1.223   .     D
O848   H849    1.014   .     S
O850   C851    1.413   .     S
C851   H852    1.117   .     S
C851   H853    1.112   .     S
C851   C854    1.529   .     S
C854   H855    1.112   .     S
C854   H1028   1.111   1_455 S
C854   C1029   1.526   1_455 S
H856   C940    1.111   .     S
C857   H858    1.111   .     S
C857   H859    1.110   .     S
C857   C940    1.526   .     S
C857   H946    1.111   .     S
H860   C1029   1.111   1_455 S
C861   O898    1.267   .     A
C861   C875    1.443   .     S
C861   O896    1.276   .     A
C862   C884    1.398   .     A
C862   C89     1.387   1_556 S
C862   H116    1.082   1_556 S
C863   H889    1.079   .     S
C864   C865    1.419   .     A
C864   C89     1.412   1_556 S
C864   C92     1.425   1_556 S
C865   C873    1.418   .     A
C865   C869    1.412   .     A
C866   C870    1.420   .     A
C867   C868    1.391   .     A
C867   C92     1.421   1_556 S
C867   C108    1.397   1_556 S
C868   C869    1.384   .     A
C868   H887    1.083   .     S
C869   H891    1.081   .     S
C870   C883    1.411   .     A
C870   C932    1.492   .     S
C871   H885    1.084   .     S
C871   C882    1.385   .     A
C871   C883    1.398   .     A
C872   O897    1.287   .     A
C872   C874    1.458   .     S
C872   O899    1.271   .     A
C873   C884    1.415   .     A
C873   C881    1.471   .     S
C874   C961    1.347   .     S
C874   H978    1.088   .     S
C876   C879    1.456   .     S
C876   C1135   1.335   .     S
C876   O1179   1.388   .     S
C877   C878    1.434   .     S
C877   C1392   1.335   1_545 S
C877   H1402   1.087   1_545 S
C878   O900    1.283   .     A
C878   O894    1.279   .     A
C879   O895    1.272   .     A
C879   O901    1.269   .     A
C880   O904    1.269   .     A
C880   C883    1.448   .     S
C880   O902    1.277   .     A
C881   O903    1.276   .     A
C881   O905    1.280   .     A
C884   O936    1.389   .     S
H886   C1135   1.087   .     S
H888   C108    1.084   1_556 S
O893   Zn909   1.930   .     S
O893   Zn906   1.958   .     S
O893   Zn907   1.957   .     S
O893   Zn908   1.933   .     S
O894   Zn906   1.927   .     S
O895   Zn909   1.926   .     S
O896   Zn907   1.924   .     S
O897   Zn908   1.938   .     S
O898   Zn909   1.938   .     S
O899   Zn906   1.925   .     S
O900   Zn907   1.928   .     S
O901   Zn908   1.925   .     S
O902   Zn907   1.939   .     S
O903   Zn909   1.952   .     S
O904   Zn908   1.951   .     S
O905   Zn906   1.938   .     S
O910   C911    1.418   .     S
O910   C961    1.400   .     S
C911   H912    1.111   .     S
C911   C914    1.535   .     S
C911   H999    1.112   .     S
C914   H915    1.112   .     S
C914   C917    1.526   .     S
C914   H1002   1.111   .     S
C917   H919    1.110   .     S
C917   H920    1.111   .     S
C917   H1004   1.111   .     S
O921   C1392   1.388   1_545 S
O921   C1438   1.413   1_545 S
C922   H924    1.114   .     S
C922   O1179   1.413   .     S
C922   H1181   1.116   .     S
C922   C1183   1.528   .     S
H923   C1438   1.116   1_545 S
C925   H927    1.112   .     S
C925   C928    1.526   .     S
C925   H926    1.112   .     S
C925   C1438   1.528   1_545 S
C928   H931    1.111   .     S
C928   H930    1.110   .     S
C928   H1445   1.111   1_545 S
H929   C1186   1.111   .     S
C932   O934    1.399   .     S
C932   O933    1.223   .     D
O934   H935    1.014   .     S
O936   C937    1.413   .     S
C937   H938    1.117   .     S
C937   H939    1.112   .     S
C937   C940    1.529   .     S
C940   H941    1.112   .     S
H942   C1026   1.111   .     S
C943   H944    1.111   .     S
C943   H945    1.110   .     S
C943   C1026   1.526   .     S
C943   H1032   1.111   .     S
C947   O984    1.267   .     A
C947   C961    1.443   .     S
C947   O982    1.276   .     A
C948   C970    1.398   .     A
C948   C175    1.387   1_556 S
C948   H202    1.082   1_556 S
C949   H975    1.079   .     S
C950   C951    1.419   .     A
C950   C175    1.412   1_556 S
C950   C178    1.425   1_556 S
C951   C959    1.418   .     A
C951   C955    1.412   .     A
C952   C956    1.420   .     A
C953   C954    1.391   .     A
C953   C178    1.421   1_556 S
C953   C194    1.397   1_556 S
C954   C955    1.384   .     A
C954   H973    1.083   .     S
C955   H977    1.081   .     S
C956   C969    1.411   .     A
C956   C1018   1.492   .     S
C957   H971    1.084   .     S
C957   C968    1.385   .     A
C957   C969    1.398   .     A
C958   O983    1.287   .     A
C958   C960    1.458   .     S
C958   O985    1.271   .     A
C959   C970    1.415   .     A
C959   C967    1.471   .     S
C960   C789    1.347   1_655 S
C960   H806    1.088   1_655 S
C962   C965    1.456   .     S
C962   C1221   1.335   .     S
C962   O1265   1.388   .     S
C963   C964    1.434   .     S
C963   C1478   1.335   1_545 S
C963   H1488   1.087   1_545 S
C964   O986    1.283   .     A
C964   O980    1.279   .     A
C965   O981    1.272   .     A
C965   O987    1.269   .     A
C966   O990    1.269   .     A
C966   C969    1.448   .     S
C966   O988    1.277   .     A
C967   O989    1.276   .     A
C967   O991    1.280   .     A
C970   O1022   1.389   .     S
H972   C1221   1.087   .     S
H974   C194    1.084   1_556 S
O979   Zn995   1.930   .     S
O979   Zn992   1.958   .     S
O979   Zn993   1.957   .     S
O979   Zn994   1.933   .     S
O980   Zn992   1.927   .     S
O981   Zn995   1.926   .     S
O982   Zn993   1.924   .     S
O983   Zn994   1.938   .     S
O984   Zn995   1.938   .     S
O985   Zn992   1.925   .     S
O986   Zn993   1.928   .     S
O987   Zn994   1.925   .     S
O988   Zn993   1.939   .     S
O989   Zn995   1.952   .     S
O990   Zn994   1.951   .     S
O991   Zn992   1.938   .     S
O996   C997    1.418   .     S
O996   C789    1.400   1_655 S
C997   H998    1.111   .     S
C997   C1000   1.535   .     S
C997   H827    1.112   1_655 S
C1000  H1001   1.112   .     S
C1000  C1003   1.526   .     S
C1000  H830    1.111   1_655 S
C1003  H1005   1.110   .     S
C1003  H1006   1.111   .     S
C1003  H832    1.111   1_655 S
O1007  C1478   1.388   1_545 S
O1007  C1524   1.413   1_545 S
C1008  H1010   1.114   .     S
C1008  O1265   1.413   .     S
C1008  H1267   1.116   .     S
C1008  C1269   1.528   .     S
H1009  C1524   1.116   1_545 S
C1011  H1013   1.112   .     S
C1011  C1014   1.526   .     S
C1011  H1012   1.112   .     S
C1011  C1524   1.528   1_545 S
C1014  H1017   1.111   .     S
C1014  H1016   1.110   .     S
C1014  H1531   1.111   1_545 S
H1015  C1272   1.111   .     S
C1018  O1020   1.399   .     S
C1018  O1019   1.223   .     D
O1020  H1021   1.014   .     S
O1022  C1023   1.413   .     S
C1023  H1024   1.117   .     S
C1023  H1025   1.112   .     S
C1023  C1026   1.529   .     S
C1026  H1027   1.112   .     S
H1028  C854    1.111   1_655 S
C1029  H1030   1.111   .     S
C1029  H1031   1.110   .     S
C1029  C854    1.526   1_655 S
C1029  H860    1.111   1_655 S
C1033  O1070   1.267   .     A
C1033  C1047   1.443   .     S
C1033  O1068   1.276   .     A
C1034  C1056   1.398   .     A
C1034  C261    1.387   1_556 S
C1034  H288    1.082   1_556 S
C1035  H1061   1.079   .     S
C1036  C1037   1.419   .     A
C1036  C261    1.412   1_556 S
C1036  C264    1.425   1_556 S
C1037  C1045   1.418   .     A
C1037  C1041   1.412   .     A
C1038  C1042   1.420   .     A
C1039  C1040   1.391   .     A
C1039  C264    1.421   1_556 S
C1039  C280    1.397   1_556 S
C1040  C1041   1.384   .     A
C1040  H1059   1.083   .     S
C1041  H1063   1.081   .     S
C1042  C1055   1.411   .     A
C1042  C1104   1.492   .     S
C1043  H1057   1.084   .     S
C1043  C1054   1.385   .     A
C1043  C1055   1.398   .     A
C1044  O1069   1.287   .     A
C1044  C1046   1.458   .     S
C1044  O1071   1.271   .     A
C1045  C1056   1.415   .     A
C1045  C1053   1.471   .     S
C1046  C1133   1.347   .     S
C1046  H1150   1.088   .     S
C1047  C1218   1.347   1_455 S
C1047  O1254   1.400   1_455 S
C1048  C1051   1.456   .     S
C1048  C1307   1.335   .     S
C1048  O1351   1.388   .     S
C1049  C1050   1.434   .     S
C1050  O1072   1.283   .     A
C1050  O1066   1.279   .     A
C1051  O1067   1.272   .     A
C1051  O1073   1.269   .     A
C1052  O1076   1.269   .     A
C1052  C1055   1.448   .     S
C1052  O1074   1.277   .     A
C1053  O1075   1.276   .     A
C1053  O1077   1.280   .     A
C1056  O1108   1.389   .     S
H1058  C1307   1.087   .     S
H1060  C280    1.084   1_556 S
H1064  C1218   1.088   1_455 S
O1065  Zn1081  1.930   .     S
O1065  Zn1078  1.958   .     S
O1065  Zn1079  1.957   .     S
O1065  Zn1080  1.933   .     S
O1066  Zn1078  1.927   .     S
O1067  Zn1081  1.926   .     S
O1068  Zn1079  1.924   .     S
O1069  Zn1080  1.938   .     S
O1070  Zn1081  1.938   .     S
O1071  Zn1078  1.925   .     S
O1072  Zn1079  1.928   .     S
O1073  Zn1080  1.925   .     S
O1074  Zn1079  1.939   .     S
O1075  Zn1081  1.952   .     S
O1076  Zn1080  1.951   .     S
O1077  Zn1078  1.938   .     S
O1082  C1083   1.418   .     S
O1082  C1133   1.400   .     S
C1083  H1084   1.111   .     S
C1083  C1086   1.535   .     S
C1083  H1171   1.112   .     S
H1085  C1255   1.112   1_455 S
C1086  H1087   1.112   .     S
C1086  C1089   1.526   .     S
C1086  H1174   1.111   .     S
H1088  C1258   1.111   1_455 S
C1089  H1091   1.110   .     S
C1089  H1092   1.111   .     S
C1089  H1176   1.111   .     S
H1090  C1261   1.111   1_455 S
C1094  H1096   1.114   .     S
C1094  O1351   1.413   .     S
C1094  H1353   1.116   .     S
C1094  C1355   1.528   .     S
C1097  H1099   1.112   .     S
C1097  C1100   1.526   .     S
C1097  H1098   1.112   .     S
C1100  H1103   1.111   .     S
C1100  H1102   1.110   .     S
H1101  C1358   1.111   .     S
C1104  O1106   1.399   .     S
C1104  O1105   1.223   .     D
O1106  H1107   1.014   .     S
O1108  C1109   1.413   .     S
C1109  H1110   1.117   .     S
C1109  H1111   1.112   .     S
C1109  C1112   1.529   .     S
C1112  H1113   1.112   .     S
C1112  H1286   1.111   1_455 S
C1112  C1287   1.526   1_455 S
H1114  C1198   1.111   .     S
C1115  H1116   1.111   .     S
C1115  H1117   1.110   .     S
C1115  C1198   1.526   .     S
C1115  H1204   1.111   .     S
H1118  C1287   1.111   1_455 S
C1119  O1156   1.267   .     A
C1119  C1133   1.443   .     S
C1119  O1154   1.276   .     A
C1120  C1142   1.398   .     A
C1120  C347    1.387   1_556 S
C1120  H374    1.082   1_556 S
C1121  H1147   1.079   .     S
C1122  C1123   1.419   .     A
C1122  C347    1.412   1_556 S
C1122  C350    1.425   1_556 S
C1123  C1131   1.418   .     A
C1123  C1127   1.412   .     A
C1124  C1128   1.420   .     A
C1125  C1126   1.391   .     A
C1125  C350    1.421   1_556 S
C1125  C366    1.397   1_556 S
C1126  C1127   1.384   .     A
C1126  H1145   1.083   .     S
C1127  H1149   1.081   .     S
C1128  C1141   1.411   .     A
C1128  C1190   1.492   .     S
C1129  H1143   1.084   .     S
C1129  C1140   1.385   .     A
C1129  C1141   1.398   .     A
C1130  O1155   1.287   .     A
C1130  C1132   1.458   .     S
C1130  O1157   1.271   .     A
C1131  C1142   1.415   .     A
C1131  C1139   1.471   .     S
C1132  C1219   1.347   .     S
C1132  H1236   1.088   .     S
C1134  C1137   1.456   .     S
C1134  C1393   1.335   .     S
C1134  O1437   1.388   .     S
C1135  C1136   1.434   .     S
C1136  O1158   1.283   .     A
C1136  O1152   1.279   .     A
C1137  O1153   1.272   .     A
C1137  O1159   1.269   .     A
C1138  O1162   1.269   .     A
C1138  C1141   1.448   .     S
C1138  O1160   1.277   .     A
C1139  O1161   1.276   .     A
C1139  O1163   1.280   .     A
C1142  O1194   1.389   .     S
H1144  C1393   1.087   .     S
H1146  C366    1.084   1_556 S
O1151  Zn1167  1.930   .     S
O1151  Zn1164  1.958   .     S
O1151  Zn1165  1.957   .     S
O1151  Zn1166  1.933   .     S
O1152  Zn1164  1.927   .     S
O1153  Zn1167  1.926   .     S
O1154  Zn1165  1.924   .     S
O1155  Zn1166  1.938   .     S
O1156  Zn1167  1.938   .     S
O1157  Zn1164  1.925   .     S
O1158  Zn1165  1.928   .     S
O1159  Zn1166  1.925   .     S
O1160  Zn1165  1.939   .     S
O1161  Zn1167  1.952   .     S
O1162  Zn1166  1.951   .     S
O1163  Zn1164  1.938   .     S
O1168  C1169   1.418   .     S
O1168  C1219   1.400   .     S
C1169  H1170   1.111   .     S
C1169  C1172   1.535   .     S
C1169  H1257   1.112   .     S
C1172  H1173   1.112   .     S
C1172  C1175   1.526   .     S
C1172  H1260   1.111   .     S
C1175  H1177   1.110   .     S
C1175  H1178   1.111   .     S
C1175  H1262   1.111   .     S
C1180  H1182   1.114   .     S
C1180  O1437   1.413   .     S
C1180  H1439   1.116   .     S
C1180  C1441   1.528   .     S
C1183  H1185   1.112   .     S
C1183  C1186   1.526   .     S
C1183  H1184   1.112   .     S
C1186  H1189   1.111   .     S
C1186  H1188   1.110   .     S
H1187  C1444   1.111   .     S
C1190  O1192   1.399   .     S
C1190  O1191   1.223   .     D
O1192  H1193   1.014   .     S
O1194  C1195   1.413   .     S
C1195  H1196   1.117   .     S
C1195  H1197   1.112   .     S
C1195  C1198   1.529   .     S
C1198  H1199   1.112   .     S
H1200  C1284   1.111   .     S
C1201  H1202   1.111   .     S
C1201  H1203   1.110   .     S
C1201  C1284   1.526   .     S
C1201  H1290   1.111   .     S
C1205  O1242   1.267   .     A
C1205  C1219   1.443   .     S
C1205  O1240   1.276   .     A
C1206  C1228   1.398   .     A
C1206  C433    1.387   1_556 S
C1206  H460    1.082   1_556 S
C1207  H1233   1.079   .     S
C1208  C1209   1.419   .     A
C1208  C433    1.412   1_556 S
C1208  C436    1.425   1_556 S
C1209  C1217   1.418   .     A
C1209  C1213   1.412   .     A
C1210  C1214   1.420   .     A
C1211  C1212   1.391   .     A
C1211  C436    1.421   1_556 S
C1211  C452    1.397   1_556 S
C1212  C1213   1.384   .     A
C1212  H1231   1.083   .     S
C1213  H1235   1.081   .     S
C1214  C1227   1.411   .     A
C1214  C1276   1.492   .     S
C1215  H1229   1.084   .     S
C1215  C1226   1.385   .     A
C1215  C1227   1.398   .     A
C1216  O1241   1.287   .     A
C1216  C1218   1.458   .     S
C1216  O1243   1.271   .     A
C1217  C1228   1.415   .     A
C1217  C1225   1.471   .     S
C1218  C1047   1.347   1_655 S
C1218  H1064   1.088   1_655 S
C1220  C1223   1.456   .     S
C1220  C1479   1.335   .     S
C1220  O1523   1.388   .     S
C1221  C1222   1.434   .     S
C1222  O1244   1.283   .     A
C1222  O1238   1.279   .     A
C1223  O1239   1.272   .     A
C1223  O1245   1.269   .     A
C1224  O1248   1.269   .     A
C1224  C1227   1.448   .     S
C1224  O1246   1.277   .     A
C1225  O1247   1.276   .     A
C1225  O1249   1.280   .     A
C1228  O1280   1.389   .     S
H1230  C1479   1.087   .     S
H1232  C452    1.084   1_556 S
O1237  Zn1253  1.930   .     S
O1237  Zn1250  1.958   .     S
O1237  Zn1251  1.957   .     S
O1237  Zn1252  1.933   .     S
O1238  Zn1250  1.927   .     S
O1239  Zn1253  1.926   .     S
O1240  Zn1251  1.924   .     S
O1241  Zn1252  1.938   .     S
O1242  Zn1253  1.938   .     S
O1243  Zn1250  1.925   .     S
O1244  Zn1251  1.928   .     S
O1245  Zn1252  1.925   .     S
O1246  Zn1251  1.939   .     S
O1247  Zn1253  1.952   .     S
O1248  Zn1252  1.951   .     S
O1249  Zn1250  1.938   .     S
O1254  C1255   1.418   .     S
O1254  C1047   1.400   1_655 S
C1255  H1256   1.111   .     S
C1255  C1258   1.535   .     S
C1255  H1085   1.112   1_655 S
C1258  H1259   1.112   .     S
C1258  C1261   1.526   .     S
C1258  H1088   1.111   1_655 S
C1261  H1263   1.110   .     S
C1261  H1264   1.111   .     S
C1261  H1090   1.111   1_655 S
C1266  H1268   1.114   .     S
C1266  O1523   1.413   .     S
C1266  H1525   1.116   .     S
C1266  C1527   1.528   .     S
C1269  H1271   1.112   .     S
C1269  C1272   1.526   .     S
C1269  H1270   1.112   .     S
C1272  H1275   1.111   .     S
C1272  H1274   1.110   .     S
H1273  C1530   1.111   .     S
C1276  O1278   1.399   .     S
C1276  O1277   1.223   .     D
O1278  H1279   1.014   .     S
O1280  C1281   1.413   .     S
C1281  H1282   1.117   .     S
C1281  H1283   1.112   .     S
C1281  C1284   1.529   .     S
C1284  H1285   1.112   .     S
H1286  C1112   1.111   1_655 S
C1287  H1288   1.111   .     S
C1287  H1289   1.110   .     S
C1287  C1112   1.526   1_655 S
C1287  H1118   1.111   1_655 S
C1291  O1328   1.267   .     A
C1291  C1305   1.443   .     S
C1291  O1326   1.276   .     A
C1292  C1314   1.398   .     A
C1292  C519    1.387   1_556 S
C1292  H546    1.082   1_556 S
C1293  H1319   1.079   .     S
C1294  C1295   1.419   .     A
C1294  C519    1.412   1_556 S
C1294  C522    1.425   1_556 S
C1295  C1303   1.418   .     A
C1295  C1299   1.412   .     A
C1296  C1300   1.420   .     A
C1297  C1298   1.391   .     A
C1297  C522    1.421   1_556 S
C1297  C538    1.397   1_556 S
C1298  C1299   1.384   .     A
C1298  H1317   1.083   .     S
C1299  H1321   1.081   .     S
C1300  C1313   1.411   .     A
C1300  C1362   1.492   .     S
C1301  H1315   1.084   .     S
C1301  C1312   1.385   .     A
C1301  C1313   1.398   .     A
C1302  O1327   1.287   .     A
C1302  C1304   1.458   .     S
C1302  O1329   1.271   .     A
C1303  C1314   1.415   .     A
C1303  C1311   1.471   .     S
C1304  C1391   1.347   .     S
C1304  H1408   1.088   .     S
C1305  C1476   1.347   1_455 S
C1305  O1512   1.400   1_455 S
C1306  C1309   1.456   .     S
C1306  C791    1.335   1_565 S
C1306  O835    1.388   1_565 S
C1307  C1308   1.434   .     S
C1308  O1330   1.283   .     A
C1308  O1324   1.279   .     A
C1309  O1325   1.272   .     A
C1309  O1331   1.269   .     A
C1310  O1334   1.269   .     A
C1310  C1313   1.448   .     S
C1310  O1332   1.277   .     A
C1311  O1333   1.276   .     A
C1311  O1335   1.280   .     A
C1314  O1366   1.389   .     S
H1316  C791    1.087   1_565 S
H1318  C538    1.084   1_556 S
H1322  C1476   1.088   1_455 S
O1323  Zn1339  1.930   .     S
O1323  Zn1336  1.958   .     S
O1323  Zn1337  1.957   .     S
O1323  Zn1338  1.933   .     S
O1324  Zn1336  1.927   .     S
O1325  Zn1339  1.926   .     S
O1326  Zn1337  1.924   .     S
O1327  Zn1338  1.938   .     S
O1328  Zn1339  1.938   .     S
O1329  Zn1336  1.925   .     S
O1330  Zn1337  1.928   .     S
O1331  Zn1338  1.925   .     S
O1332  Zn1337  1.939   .     S
O1333  Zn1339  1.952   .     S
O1334  Zn1338  1.951   .     S
O1335  Zn1336  1.938   .     S
O1340  C1341   1.418   .     S
O1340  C1391   1.400   .     S
C1341  H1342   1.111   .     S
C1341  C1344   1.535   .     S
C1341  H1429   1.112   .     S
H1343  C1513   1.112   1_455 S
C1344  H1345   1.112   .     S
C1344  C1347   1.526   .     S
C1344  H1432   1.111   .     S
H1346  C1516   1.111   1_455 S
C1347  H1349   1.110   .     S
C1347  H1350   1.111   .     S
C1347  H1434   1.111   .     S
H1348  C1519   1.111   1_455 S
C1352  H1354   1.114   .     S
C1352  O835    1.413   1_565 S
C1352  H837    1.116   1_565 S
C1352  C839    1.528   1_565 S
C1355  H1357   1.112   .     S
C1355  C1358   1.526   .     S
C1355  H1356   1.112   .     S
C1358  H1361   1.111   .     S
C1358  H1360   1.110   .     S
H1359  C842    1.111   1_565 S
C1362  O1364   1.399   .     S
C1362  O1363   1.223   .     D
O1364  H1365   1.014   .     S
O1366  C1367   1.413   .     S
C1367  H1368   1.117   .     S
C1367  H1369   1.112   .     S
C1367  C1370   1.529   .     S
C1370  H1371   1.112   .     S
C1370  H1544   1.111   1_455 S
C1370  C1545   1.526   1_455 S
H1372  C1456   1.111   .     S
C1373  H1374   1.111   .     S
C1373  H1375   1.110   .     S
C1373  C1456   1.526   .     S
C1373  H1462   1.111   .     S
H1376  C1545   1.111   1_455 S
C1377  O1414   1.267   .     A
C1377  C1391   1.443   .     S
C1377  O1412   1.276   .     A
C1378  C1400   1.398   .     A
C1378  C605    1.387   1_556 S
C1378  H632    1.082   1_556 S
C1379  H1405   1.079   .     S
C1380  C1381   1.419   .     A
C1380  C605    1.412   1_556 S
C1380  C608    1.425   1_556 S
C1381  C1389   1.418   .     A
C1381  C1385   1.412   .     A
C1382  C1386   1.420   .     A
C1383  C1384   1.391   .     A
C1383  C608    1.421   1_556 S
C1383  C624    1.397   1_556 S
C1384  C1385   1.384   .     A
C1384  H1403   1.083   .     S
C1385  H1407   1.081   .     S
C1386  C1399   1.411   .     A
C1386  C1448   1.492   .     S
C1387  H1401   1.084   .     S
C1387  C1398   1.385   .     A
C1387  C1399   1.398   .     A
C1388  O1413   1.287   .     A
C1388  C1390   1.458   .     S
C1388  O1415   1.271   .     A
C1389  C1400   1.415   .     A
C1389  C1397   1.471   .     S
C1390  C1477   1.347   .     S
C1390  H1494   1.088   .     S
C1392  C1395   1.456   .     S
C1392  C877    1.335   1_565 S
C1392  O921    1.388   1_565 S
C1393  C1394   1.434   .     S
C1394  O1416   1.283   .     A
C1394  O1410   1.279   .     A
C1395  O1411   1.272   .     A
C1395  O1417   1.269   .     A
C1396  O1420   1.269   .     A
C1396  C1399   1.448   .     S
C1396  O1418   1.277   .     A
C1397  O1419   1.276   .     A
C1397  O1421   1.280   .     A
C1400  O1452   1.389   .     S
H1402  C877    1.087   1_565 S
H1404  C624    1.084   1_556 S
O1409  Zn1425  1.930   .     S
O1409  Zn1422  1.958   .     S
O1409  Zn1423  1.957   .     S
O1409  Zn1424  1.933   .     S
O1410  Zn1422  1.927   .     S
O1411  Zn1425  1.926   .     S
O1412  Zn1423  1.924   .     S
O1413  Zn1424  1.938   .     S
O1414  Zn1425  1.938   .     S
O1415  Zn1422  1.925   .     S
O1416  Zn1423  1.928   .     S
O1417  Zn1424  1.925   .     S
O1418  Zn1423  1.939   .     S
O1419  Zn1425  1.952   .     S
O1420  Zn1424  1.951   .     S
O1421  Zn1422  1.938   .     S
O1426  C1427   1.418   .     S
O1426  C1477   1.400   .     S
C1427  H1428   1.111   .     S
C1427  C1430   1.535   .     S
C1427  H1515   1.112   .     S
C1430  H1431   1.112   .     S
C1430  C1433   1.526   .     S
C1430  H1518   1.111   .     S
C1433  H1435   1.110   .     S
C1433  H1436   1.111   .     S
C1433  H1520   1.111   .     S
C1438  H1440   1.114   .     S
C1438  O921    1.413   1_565 S
C1438  H923    1.116   1_565 S
C1438  C925    1.528   1_565 S
C1441  H1443   1.112   .     S
C1441  C1444   1.526   .     S
C1441  H1442   1.112   .     S
C1444  H1447   1.111   .     S
C1444  H1446   1.110   .     S
H1445  C928    1.111   1_565 S
C1448  O1450   1.399   .     S
C1448  O1449   1.223   .     D
O1450  H1451   1.014   .     S
O1452  C1453   1.413   .     S
C1453  H1454   1.117   .     S
C1453  H1455   1.112   .     S
C1453  C1456   1.529   .     S
C1456  H1457   1.112   .     S
H1458  C1542   1.111   .     S
C1459  H1460   1.111   .     S
C1459  H1461   1.110   .     S
C1459  C1542   1.526   .     S
C1459  H1548   1.111   .     S
C1463  O1500   1.267   .     A
C1463  C1477   1.443   .     S
C1463  O1498   1.276   .     A
C1464  C1486   1.398   .     A
C1464  C691    1.387   1_556 S
C1464  H718    1.082   1_556 S
C1465  H1491   1.079   .     S
C1466  C1467   1.419   .     A
C1466  C691    1.412   1_556 S
C1466  C694    1.425   1_556 S
C1467  C1475   1.418   .     A
C1467  C1471   1.412   .     A
C1468  C1472   1.420   .     A
C1469  C1470   1.391   .     A
C1469  C694    1.421   1_556 S
C1469  C710    1.397   1_556 S
C1470  C1471   1.384   .     A
C1470  H1489   1.083   .     S
C1471  H1493   1.081   .     S
C1472  C1485   1.411   .     A
C1472  C1534   1.492   .     S
C1473  H1487   1.084   .     S
C1473  C1484   1.385   .     A
C1473  C1485   1.398   .     A
C1474  O1499   1.287   .     A
C1474  C1476   1.458   .     S
C1474  O1501   1.271   .     A
C1475  C1486   1.415   .     A
C1475  C1483   1.471   .     S
C1476  C1305   1.347   1_655 S
C1476  H1322   1.088   1_655 S
C1478  C1481   1.456   .     S
C1478  C963    1.335   1_565 S
C1478  O1007   1.388   1_565 S
C1479  C1480   1.434   .     S
C1480  O1502   1.283   .     A
C1480  O1496   1.279   .     A
C1481  O1497   1.272   .     A
C1481  O1503   1.269   .     A
C1482  O1506   1.269   .     A
C1482  C1485   1.448   .     S
C1482  O1504   1.277   .     A
C1483  O1505   1.276   .     A
C1483  O1507   1.280   .     A
C1486  O1538   1.389   .     S
H1488  C963    1.087   1_565 S
H1490  C710    1.084   1_556 S
O1495  Zn1511  1.930   .     S
O1495  Zn1508  1.958   .     S
O1495  Zn1509  1.957   .     S
O1495  Zn1510  1.933   .     S
O1496  Zn1508  1.927   .     S
O1497  Zn1511  1.926   .     S
O1498  Zn1509  1.924   .     S
O1499  Zn1510  1.938   .     S
O1500  Zn1511  1.938   .     S
O1501  Zn1508  1.925   .     S
O1502  Zn1509  1.928   .     S
O1503  Zn1510  1.925   .     S
O1504  Zn1509  1.939   .     S
O1505  Zn1511  1.952   .     S
O1506  Zn1510  1.951   .     S
O1507  Zn1508  1.938   .     S
O1512  C1513   1.418   .     S
O1512  C1305   1.400   1_655 S
C1513  H1514   1.111   .     S
C1513  C1516   1.535   .     S
C1513  H1343   1.112   1_655 S
C1516  H1517   1.112   .     S
C1516  C1519   1.526   .     S
C1516  H1346   1.111   1_655 S
C1519  H1521   1.110   .     S
C1519  H1522   1.111   .     S
C1519  H1348   1.111   1_655 S
C1524  H1526   1.114   .     S
C1524  O1007   1.413   1_565 S
C1524  H1009   1.116   1_565 S
C1524  C1011   1.528   1_565 S
C1527  H1529   1.112   .     S
C1527  C1530   1.526   .     S
C1527  H1528   1.112   .     S
C1530  H1533   1.111   .     S
C1530  H1532   1.110   .     S
H1531  C1014   1.111   1_565 S
C1534  O1536   1.399   .     S
C1534  O1535   1.223   .     D
O1536  H1537   1.014   .     S
O1538  C1539   1.413   .     S
C1539  H1540   1.117   .     S
C1539  H1541   1.112   .     S
C1539  C1542   1.529   .     S
C1542  H1543   1.112   .     S
H1544  C1370   1.111   1_655 S
C1545  H1546   1.111   .     S
C1545  H1547   1.110   .     S
C1545  C1370   1.526   1_655 S
C1545  H1376   1.111   1_655 S
