data_str_m1_o10_o18_pcu_sym.133
_audit_creation_date              2020-01-03
_audit_creation_method            'Materials Studio'
_symmetry_space_group_name_H-M    'P1'
_symmetry_Int_Tables_number       1
_symmetry_cell_setting            triclinic
loop_
_symmetry_equiv_pos_as_xyz
  x,y,z
_cell_length_a                    32.4994
_cell_length_b                    32.6801
_cell_length_c                    35.8869
_cell_angle_alpha                 98.1500
_cell_angle_beta                  72.8986
_cell_angle_gamma                 98.0515
loop_
_atom_site_label
_atom_site_type_symbol
_atom_site_fract_x
_atom_site_fract_y
_atom_site_fract_z
_atom_site_U_iso_or_equiv
_atom_site_adp_type
_atom_site_occupancy
C1     C     0.05251   0.16007   0.25888   0.00000  Uiso   1.00
C2     C     0.19792   0.13070   0.46091   0.00000  Uiso   1.00
C3     C     0.21825   0.11090   0.48111   0.00000  Uiso   1.00
C4     C     0.28099   0.17355   0.24125   0.00000  Uiso   1.00
C5     C     0.21085   0.12004   0.02136   0.00000  Uiso   1.00
C6     C     0.18184   0.14959   0.04236   0.00000  Uiso   1.00
C7     C     0.23217   0.09952   0.04088   0.00000  Uiso   1.00
C8     C     0.22507   0.10786   0.08119   0.00000  Uiso   1.00
C9     C     0.17568   0.15770   0.08317   0.00000  Uiso   1.00
C10    C     0.32701   0.17599   0.23761   0.00000  Uiso   1.00
C11    C     0.00707   0.15813   0.26257   0.00000  Uiso   1.00
C12    C     0.10597   0.22365   0.42034   0.00000  Uiso   1.00
C13    C     0.17823   0.32167   0.23833   0.00000  Uiso   1.00
C14    C     0.15162   0.01345   0.26474   0.00000  Uiso   1.00
C15    C     0.15653   0.05640   0.25874   0.00000  Uiso   1.00
C16    C     0.17660   0.27765   0.24175   0.00000  Uiso   1.00
C17    C     0.18834   0.14520   0.14427   0.00000  Uiso   1.00
C18    C     0.14549   0.18787   0.35609   0.00000  Uiso   1.00
C19    C     0.13609   0.19625   0.39894   0.00000  Uiso   1.00
C20    C     0.19688   0.13691   0.10212   0.00000  Uiso   1.00
C21    C     0.09731   0.23070   0.46093   0.00000  Uiso   1.00
C22    C     0.12378   0.00338   0.30397   0.00000  Uiso   1.00
C23    C     0.15740   0.17606   0.41852   0.00000  Uiso   1.00
C24    C     0.14862   0.18190   0.45963   0.00000  Uiso   1.00
C25    C     0.11835   0.21017   0.48067   0.00000  Uiso   1.00
C26    C     0.16918   0.16081   0.48031   0.00000  Uiso   1.00
C27    C     0.16029   0.16978   0.02184   0.00000  Uiso   1.00
C28    C     0.12989   0.19831   0.04147   0.00000  Uiso   1.00
C29    C     0.10930   0.21784   0.02122   0.00000  Uiso   1.00
H30    H     0.08612   0.23934   0.03753   0.00000  Uiso   1.00
H31    H     0.08914   0.23966   0.40575   0.00000  Uiso   1.00
H32    H     0.18109   0.15627   0.40070   0.00000  Uiso   1.00
H33    H     0.12066   0.20613   0.07273   0.00000  Uiso   1.00
H34    H     0.20524   0.12092   0.42999   0.00000  Uiso   1.00
H35    H     0.09183   0.01408   0.31497   0.00000  Uiso   1.00
H36    H     0.25420   0.07688   0.02495   0.00000  Uiso   1.00
H37    H     0.01678   0.19230   0.21450   0.00000  Uiso   1.00
H38    H     0.31797   0.14203   0.28614   0.00000  Uiso   1.00
H39    H     0.20098   0.00058   0.21252   0.00000  Uiso   1.00
H40    H     0.15474   0.17992   0.10135   0.00000  Uiso   1.00
H41    H     0.24141   0.09165   0.09608   0.00000  Uiso   1.00
H42    H     0.24002   0.08809   0.46496   0.00000  Uiso   1.00
H43    H     0.07404   0.25221   0.47694   0.00000  Uiso   1.00
O44    O     0.16667   0.16667   0.25000   0.00000  Uiso   1.00
O45    O     0.15693   0.12393   0.16625   0.00000  Uiso   1.00
O46    O     0.12687   0.20646   0.33749   0.00000  Uiso   1.00
O47    O     0.21088   0.17493   0.15877   0.00000  Uiso   1.00
O48    O     0.17198   0.16135   0.33749   0.00000  Uiso   1.00
O49    O     0.13750   0.31978   0.32546   0.00000  Uiso   1.00
O50    O     0.17849   0.08101   0.27820   0.00000  Uiso   1.00
O51    O     0.14581   0.26136   0.26767   0.00000  Uiso   1.00
O52    O     0.07452   0.13251   0.23607   0.00000  Uiso   1.00
O53    O     0.26785   0.19179   0.21805   0.00000  Uiso   1.00
O54    O     0.06990   0.18960   0.27820   0.00000  Uiso   1.00
O55    O     0.25440   0.15277   0.26767   0.00000  Uiso   1.00
O56    O     0.13800   0.06903   0.23607   0.00000  Uiso   1.00
O57    O     0.20437   0.25527   0.21806   0.00000  Uiso   1.00
Zn58   Zn    0.19244   0.14090   0.28277   0.00000  Uiso   1.00
Zn59   Zn    0.13459   0.12378   0.22257   0.00000  Uiso   1.00
Zn60   Zn    0.21166   0.19664   0.21188   0.00000  Uiso   1.00
Zn61   Zn    0.12798   0.20535   0.28277   0.00000  Uiso   1.00
C62    C     0.38584   0.16007   0.25888   0.00000  Uiso   1.00
C63    C     0.53125   0.13070   0.46091   0.00000  Uiso   1.00
C64    C     0.55159   0.11090   0.48111   0.00000  Uiso   1.00
C65    C     0.61432   0.17355   0.24125   0.00000  Uiso   1.00
C66    C     0.54418   0.12004   0.02136   0.00000  Uiso   1.00
C67    C     0.51518   0.14959   0.04236   0.00000  Uiso   1.00
C68    C     0.56550   0.09952   0.04088   0.00000  Uiso   1.00
C69    C     0.55840   0.10786   0.08119   0.00000  Uiso   1.00
C70    C     0.50901   0.15770   0.08317   0.00000  Uiso   1.00
C71    C     0.66034   0.17599   0.23761   0.00000  Uiso   1.00
C72    C     0.34040   0.15813   0.26257   0.00000  Uiso   1.00
C73    C     0.43930   0.22365   0.42034   0.00000  Uiso   1.00
C74    C     0.51156   0.32167   0.23833   0.00000  Uiso   1.00
C75    C     0.48495   0.01345   0.26474   0.00000  Uiso   1.00
C76    C     0.48987   0.05640   0.25874   0.00000  Uiso   1.00
C77    C     0.50994   0.27765   0.24175   0.00000  Uiso   1.00
C78    C     0.52167   0.14520   0.14427   0.00000  Uiso   1.00
C79    C     0.47883   0.18787   0.35609   0.00000  Uiso   1.00
C80    C     0.46943   0.19625   0.39894   0.00000  Uiso   1.00
C81    C     0.53021   0.13691   0.10212   0.00000  Uiso   1.00
C82    C     0.43064   0.23070   0.46093   0.00000  Uiso   1.00
C83    C     0.45711   0.00338   0.30397   0.00000  Uiso   1.00
C84    C     0.49074   0.17606   0.41852   0.00000  Uiso   1.00
C85    C     0.48196   0.18190   0.45963   0.00000  Uiso   1.00
C86    C     0.45169   0.21017   0.48067   0.00000  Uiso   1.00
C87    C     0.50251   0.16081   0.48031   0.00000  Uiso   1.00
C88    C     0.49363   0.16978   0.02184   0.00000  Uiso   1.00
C89    C     0.46323   0.19831   0.04147   0.00000  Uiso   1.00
C90    C     0.44263   0.21784   0.02122   0.00000  Uiso   1.00
H91    H     0.41945   0.23934   0.03753   0.00000  Uiso   1.00
H92    H     0.42248   0.23966   0.40575   0.00000  Uiso   1.00
H93    H     0.51442   0.15627   0.40070   0.00000  Uiso   1.00
H94    H     0.45399   0.20613   0.07273   0.00000  Uiso   1.00
H95    H     0.53857   0.12092   0.42999   0.00000  Uiso   1.00
H96    H     0.42517   0.01408   0.31497   0.00000  Uiso   1.00
H97    H     0.58754   0.07688   0.02495   0.00000  Uiso   1.00
H98    H     0.35011   0.19230   0.21450   0.00000  Uiso   1.00
H99    H     0.65130   0.14203   0.28614   0.00000  Uiso   1.00
H100   H     0.53431   0.00058   0.21252   0.00000  Uiso   1.00
H101   H     0.48807   0.17992   0.10135   0.00000  Uiso   1.00
H102   H     0.57474   0.09165   0.09608   0.00000  Uiso   1.00
H103   H     0.57335   0.08809   0.46496   0.00000  Uiso   1.00
H104   H     0.40737   0.25221   0.47694   0.00000  Uiso   1.00
O105   O     0.50000   0.16667   0.25000   0.00000  Uiso   1.00
O106   O     0.49027   0.12393   0.16625   0.00000  Uiso   1.00
O107   O     0.46020   0.20646   0.33749   0.00000  Uiso   1.00
O108   O     0.54421   0.17493   0.15877   0.00000  Uiso   1.00
O109   O     0.50532   0.16135   0.33749   0.00000  Uiso   1.00
O110   O     0.47083   0.31978   0.32546   0.00000  Uiso   1.00
O111   O     0.51182   0.08101   0.27820   0.00000  Uiso   1.00
O112   O     0.47914   0.26136   0.26767   0.00000  Uiso   1.00
O113   O     0.40785   0.13251   0.23607   0.00000  Uiso   1.00
O114   O     0.60119   0.19179   0.21805   0.00000  Uiso   1.00
O115   O     0.40323   0.18960   0.27820   0.00000  Uiso   1.00
O116   O     0.58773   0.15277   0.26767   0.00000  Uiso   1.00
O117   O     0.47133   0.06903   0.23607   0.00000  Uiso   1.00
O118   O     0.53771   0.25527   0.21806   0.00000  Uiso   1.00
Zn119  Zn    0.52577   0.14090   0.28277   0.00000  Uiso   1.00
Zn120  Zn    0.46792   0.12378   0.22257   0.00000  Uiso   1.00
Zn121  Zn    0.54500   0.19664   0.21188   0.00000  Uiso   1.00
Zn122  Zn    0.46131   0.20535   0.28277   0.00000  Uiso   1.00
C123   C     0.71918   0.16007   0.25888   0.00000  Uiso   1.00
C124   C     0.86458   0.13070   0.46091   0.00000  Uiso   1.00
C125   C     0.88492   0.11090   0.48111   0.00000  Uiso   1.00
C126   C     0.94766   0.17355   0.24125   0.00000  Uiso   1.00
C127   C     0.87752   0.12004   0.02136   0.00000  Uiso   1.00
C128   C     0.84851   0.14959   0.04236   0.00000  Uiso   1.00
C129   C     0.89883   0.09952   0.04088   0.00000  Uiso   1.00
C130   C     0.89173   0.10786   0.08119   0.00000  Uiso   1.00
C131   C     0.84234   0.15770   0.08317   0.00000  Uiso   1.00
C132   C     0.99368   0.17599   0.23761   0.00000  Uiso   1.00
C133   C     0.67374   0.15813   0.26257   0.00000  Uiso   1.00
C134   C     0.77264   0.22365   0.42034   0.00000  Uiso   1.00
C135   C     0.84490   0.32167   0.23833   0.00000  Uiso   1.00
C136   C     0.81828   0.01345   0.26474   0.00000  Uiso   1.00
C137   C     0.82320   0.05640   0.25874   0.00000  Uiso   1.00
C138   C     0.84327   0.27765   0.24175   0.00000  Uiso   1.00
C139   C     0.85501   0.14520   0.14427   0.00000  Uiso   1.00
C140   C     0.81216   0.18787   0.35609   0.00000  Uiso   1.00
C141   C     0.80276   0.19625   0.39894   0.00000  Uiso   1.00
C142   C     0.86354   0.13691   0.10212   0.00000  Uiso   1.00
C143   C     0.76398   0.23070   0.46093   0.00000  Uiso   1.00
C144   C     0.79045   0.00338   0.30397   0.00000  Uiso   1.00
C145   C     0.82407   0.17606   0.41852   0.00000  Uiso   1.00
C146   C     0.81529   0.18190   0.45963   0.00000  Uiso   1.00
C147   C     0.78502   0.21017   0.48067   0.00000  Uiso   1.00
C148   C     0.83585   0.16081   0.48031   0.00000  Uiso   1.00
C149   C     0.82696   0.16978   0.02184   0.00000  Uiso   1.00
C150   C     0.79656   0.19831   0.04147   0.00000  Uiso   1.00
C151   C     0.77596   0.21784   0.02122   0.00000  Uiso   1.00
H152   H     0.75279   0.23934   0.03753   0.00000  Uiso   1.00
H153   H     0.75581   0.23966   0.40575   0.00000  Uiso   1.00
H154   H     0.84775   0.15627   0.40070   0.00000  Uiso   1.00
H155   H     0.78733   0.20613   0.07273   0.00000  Uiso   1.00
H156   H     0.87191   0.12092   0.42999   0.00000  Uiso   1.00
H157   H     0.75850   0.01408   0.31497   0.00000  Uiso   1.00
H158   H     0.92087   0.07688   0.02495   0.00000  Uiso   1.00
H159   H     0.68344   0.19230   0.21450   0.00000  Uiso   1.00
H160   H     0.98464   0.14203   0.28614   0.00000  Uiso   1.00
H161   H     0.86764   0.00058   0.21252   0.00000  Uiso   1.00
H162   H     0.82141   0.17992   0.10135   0.00000  Uiso   1.00
H163   H     0.90808   0.09165   0.09608   0.00000  Uiso   1.00
H164   H     0.90669   0.08809   0.46496   0.00000  Uiso   1.00
H165   H     0.74070   0.25221   0.47694   0.00000  Uiso   1.00
O166   O     0.83333   0.16667   0.25000   0.00000  Uiso   1.00
O167   O     0.82360   0.12393   0.16625   0.00000  Uiso   1.00
O168   O     0.79354   0.20646   0.33749   0.00000  Uiso   1.00
O169   O     0.87755   0.17493   0.15877   0.00000  Uiso   1.00
O170   O     0.83865   0.16135   0.33749   0.00000  Uiso   1.00
O171   O     0.80417   0.31978   0.32546   0.00000  Uiso   1.00
O172   O     0.84515   0.08101   0.27820   0.00000  Uiso   1.00
O173   O     0.81247   0.26136   0.26767   0.00000  Uiso   1.00
O174   O     0.74119   0.13251   0.23607   0.00000  Uiso   1.00
O175   O     0.93452   0.19179   0.21805   0.00000  Uiso   1.00
O176   O     0.73656   0.18960   0.27820   0.00000  Uiso   1.00
O177   O     0.92106   0.15277   0.26767   0.00000  Uiso   1.00
O178   O     0.80467   0.06903   0.23607   0.00000  Uiso   1.00
O179   O     0.87104   0.25527   0.21806   0.00000  Uiso   1.00
Zn180  Zn    0.85910   0.14090   0.28277   0.00000  Uiso   1.00
Zn181  Zn    0.80125   0.12378   0.22257   0.00000  Uiso   1.00
Zn182  Zn    0.87833   0.19664   0.21188   0.00000  Uiso   1.00
Zn183  Zn    0.79465   0.20535   0.28277   0.00000  Uiso   1.00
C184   C     0.05251   0.49340   0.25888   0.00000  Uiso   1.00
C185   C     0.19792   0.46403   0.46091   0.00000  Uiso   1.00
C186   C     0.21825   0.44423   0.48111   0.00000  Uiso   1.00
C187   C     0.28099   0.50688   0.24125   0.00000  Uiso   1.00
C188   C     0.21085   0.45337   0.02136   0.00000  Uiso   1.00
C189   C     0.18184   0.48292   0.04236   0.00000  Uiso   1.00
C190   C     0.23217   0.43285   0.04088   0.00000  Uiso   1.00
C191   C     0.22507   0.44119   0.08119   0.00000  Uiso   1.00
C192   C     0.17568   0.49103   0.08317   0.00000  Uiso   1.00
C193   C     0.32701   0.50932   0.23761   0.00000  Uiso   1.00
C194   C     0.00707   0.49146   0.26257   0.00000  Uiso   1.00
C195   C     0.10597   0.55699   0.42034   0.00000  Uiso   1.00
C196   C     0.17823   0.65500   0.23833   0.00000  Uiso   1.00
C197   C     0.15162   0.34679   0.26474   0.00000  Uiso   1.00
C198   C     0.15653   0.38973   0.25874   0.00000  Uiso   1.00
C199   C     0.17660   0.61098   0.24175   0.00000  Uiso   1.00
C200   C     0.18834   0.47854   0.14427   0.00000  Uiso   1.00
C201   C     0.14549   0.52120   0.35609   0.00000  Uiso   1.00
C202   C     0.13609   0.52958   0.39894   0.00000  Uiso   1.00
C203   C     0.19688   0.47024   0.10212   0.00000  Uiso   1.00
C204   C     0.09731   0.56404   0.46093   0.00000  Uiso   1.00
C205   C     0.12378   0.33671   0.30397   0.00000  Uiso   1.00
C206   C     0.15740   0.50940   0.41852   0.00000  Uiso   1.00
C207   C     0.14862   0.51524   0.45963   0.00000  Uiso   1.00
C208   C     0.11835   0.54351   0.48067   0.00000  Uiso   1.00
C209   C     0.16918   0.49414   0.48031   0.00000  Uiso   1.00
C210   C     0.16029   0.50311   0.02184   0.00000  Uiso   1.00
C211   C     0.12989   0.53164   0.04147   0.00000  Uiso   1.00
C212   C     0.10930   0.55117   0.02122   0.00000  Uiso   1.00
H213   H     0.08612   0.57267   0.03753   0.00000  Uiso   1.00
H214   H     0.08914   0.57299   0.40575   0.00000  Uiso   1.00
H215   H     0.18109   0.48961   0.40070   0.00000  Uiso   1.00
H216   H     0.12066   0.53947   0.07273   0.00000  Uiso   1.00
H217   H     0.20524   0.45425   0.42999   0.00000  Uiso   1.00
H218   H     0.09183   0.34741   0.31497   0.00000  Uiso   1.00
H219   H     0.25420   0.41022   0.02495   0.00000  Uiso   1.00
H220   H     0.01678   0.52563   0.21450   0.00000  Uiso   1.00
H221   H     0.31797   0.47536   0.28614   0.00000  Uiso   1.00
H222   H     0.20098   0.33391   0.21252   0.00000  Uiso   1.00
H223   H     0.15474   0.51325   0.10135   0.00000  Uiso   1.00
H224   H     0.24141   0.42499   0.09608   0.00000  Uiso   1.00
H225   H     0.24002   0.42142   0.46496   0.00000  Uiso   1.00
H226   H     0.07404   0.58554   0.47694   0.00000  Uiso   1.00
O227   O     0.16667   0.50000   0.25000   0.00000  Uiso   1.00
O228   O     0.15693   0.45726   0.16625   0.00000  Uiso   1.00
O229   O     0.12687   0.53979   0.33749   0.00000  Uiso   1.00
O230   O     0.21088   0.50826   0.15877   0.00000  Uiso   1.00
O231   O     0.17198   0.49468   0.33749   0.00000  Uiso   1.00
O232   O     0.13750   0.65312   0.32546   0.00000  Uiso   1.00
O233   O     0.17849   0.41434   0.27820   0.00000  Uiso   1.00
O234   O     0.14581   0.59469   0.26767   0.00000  Uiso   1.00
O235   O     0.07452   0.46584   0.23607   0.00000  Uiso   1.00
O236   O     0.26785   0.52512   0.21805   0.00000  Uiso   1.00
O237   O     0.06990   0.52293   0.27820   0.00000  Uiso   1.00
O238   O     0.25440   0.48610   0.26767   0.00000  Uiso   1.00
O239   O     0.13800   0.40236   0.23607   0.00000  Uiso   1.00
O240   O     0.20437   0.58860   0.21806   0.00000  Uiso   1.00
Zn241  Zn    0.19244   0.47423   0.28277   0.00000  Uiso   1.00
Zn242  Zn    0.13459   0.45711   0.22257   0.00000  Uiso   1.00
Zn243  Zn    0.21166   0.52997   0.21188   0.00000  Uiso   1.00
Zn244  Zn    0.12798   0.53868   0.28277   0.00000  Uiso   1.00
C245   C     0.38584   0.49340   0.25888   0.00000  Uiso   1.00
C246   C     0.53125   0.46403   0.46091   0.00000  Uiso   1.00
C247   C     0.55159   0.44423   0.48111   0.00000  Uiso   1.00
C248   C     0.61432   0.50688   0.24125   0.00000  Uiso   1.00
C249   C     0.54418   0.45337   0.02136   0.00000  Uiso   1.00
C250   C     0.51518   0.48292   0.04236   0.00000  Uiso   1.00
C251   C     0.56550   0.43285   0.04088   0.00000  Uiso   1.00
C252   C     0.55840   0.44119   0.08119   0.00000  Uiso   1.00
C253   C     0.50901   0.49103   0.08317   0.00000  Uiso   1.00
C254   C     0.66034   0.50932   0.23761   0.00000  Uiso   1.00
C255   C     0.34040   0.49146   0.26257   0.00000  Uiso   1.00
C256   C     0.43930   0.55699   0.42034   0.00000  Uiso   1.00
C257   C     0.51156   0.65500   0.23833   0.00000  Uiso   1.00
C258   C     0.48495   0.34679   0.26474   0.00000  Uiso   1.00
C259   C     0.48987   0.38973   0.25874   0.00000  Uiso   1.00
C260   C     0.50994   0.61098   0.24175   0.00000  Uiso   1.00
C261   C     0.52167   0.47854   0.14427   0.00000  Uiso   1.00
C262   C     0.47883   0.52120   0.35609   0.00000  Uiso   1.00
C263   C     0.46943   0.52958   0.39894   0.00000  Uiso   1.00
C264   C     0.53021   0.47024   0.10212   0.00000  Uiso   1.00
C265   C     0.43064   0.56404   0.46093   0.00000  Uiso   1.00
C266   C     0.45711   0.33671   0.30397   0.00000  Uiso   1.00
C267   C     0.49074   0.50940   0.41852   0.00000  Uiso   1.00
C268   C     0.48196   0.51524   0.45963   0.00000  Uiso   1.00
C269   C     0.45169   0.54351   0.48067   0.00000  Uiso   1.00
C270   C     0.50251   0.49414   0.48031   0.00000  Uiso   1.00
C271   C     0.49363   0.50311   0.02184   0.00000  Uiso   1.00
C272   C     0.46323   0.53164   0.04147   0.00000  Uiso   1.00
C273   C     0.44263   0.55117   0.02122   0.00000  Uiso   1.00
H274   H     0.41945   0.57267   0.03753   0.00000  Uiso   1.00
H275   H     0.42248   0.57299   0.40575   0.00000  Uiso   1.00
H276   H     0.51442   0.48961   0.40070   0.00000  Uiso   1.00
H277   H     0.45399   0.53947   0.07273   0.00000  Uiso   1.00
H278   H     0.53857   0.45425   0.42999   0.00000  Uiso   1.00
H279   H     0.42517   0.34741   0.31497   0.00000  Uiso   1.00
H280   H     0.58754   0.41022   0.02495   0.00000  Uiso   1.00
H281   H     0.35011   0.52563   0.21450   0.00000  Uiso   1.00
H282   H     0.65130   0.47536   0.28614   0.00000  Uiso   1.00
H283   H     0.53431   0.33391   0.21252   0.00000  Uiso   1.00
H284   H     0.48807   0.51325   0.10135   0.00000  Uiso   1.00
H285   H     0.57474   0.42499   0.09608   0.00000  Uiso   1.00
H286   H     0.57335   0.42142   0.46496   0.00000  Uiso   1.00
H287   H     0.40737   0.58554   0.47694   0.00000  Uiso   1.00
O288   O     0.50000   0.50000   0.25000   0.00000  Uiso   1.00
O289   O     0.49027   0.45726   0.16625   0.00000  Uiso   1.00
O290   O     0.46020   0.53979   0.33749   0.00000  Uiso   1.00
O291   O     0.54421   0.50826   0.15877   0.00000  Uiso   1.00
O292   O     0.50532   0.49468   0.33749   0.00000  Uiso   1.00
O293   O     0.47083   0.65312   0.32546   0.00000  Uiso   1.00
O294   O     0.51182   0.41434   0.27820   0.00000  Uiso   1.00
O295   O     0.47914   0.59469   0.26767   0.00000  Uiso   1.00
O296   O     0.40785   0.46584   0.23607   0.00000  Uiso   1.00
O297   O     0.60119   0.52512   0.21805   0.00000  Uiso   1.00
O298   O     0.40323   0.52293   0.27820   0.00000  Uiso   1.00
O299   O     0.58773   0.48610   0.26767   0.00000  Uiso   1.00
O300   O     0.47133   0.40236   0.23607   0.00000  Uiso   1.00
O301   O     0.53771   0.58860   0.21806   0.00000  Uiso   1.00
Zn302  Zn    0.52577   0.47423   0.28277   0.00000  Uiso   1.00
Zn303  Zn    0.46792   0.45711   0.22257   0.00000  Uiso   1.00
Zn304  Zn    0.54500   0.52997   0.21188   0.00000  Uiso   1.00
Zn305  Zn    0.46131   0.53868   0.28277   0.00000  Uiso   1.00
C306   C     0.71918   0.49340   0.25888   0.00000  Uiso   1.00
C307   C     0.86458   0.46403   0.46091   0.00000  Uiso   1.00
C308   C     0.88492   0.44423   0.48111   0.00000  Uiso   1.00
C309   C     0.94766   0.50688   0.24125   0.00000  Uiso   1.00
C310   C     0.87752   0.45337   0.02136   0.00000  Uiso   1.00
C311   C     0.84851   0.48292   0.04236   0.00000  Uiso   1.00
C312   C     0.89883   0.43285   0.04088   0.00000  Uiso   1.00
C313   C     0.89173   0.44119   0.08119   0.00000  Uiso   1.00
C314   C     0.84234   0.49103   0.08317   0.00000  Uiso   1.00
C315   C     0.99368   0.50932   0.23761   0.00000  Uiso   1.00
C316   C     0.67374   0.49146   0.26257   0.00000  Uiso   1.00
C317   C     0.77264   0.55699   0.42034   0.00000  Uiso   1.00
C318   C     0.84490   0.65500   0.23833   0.00000  Uiso   1.00
C319   C     0.81828   0.34679   0.26474   0.00000  Uiso   1.00
C320   C     0.82320   0.38973   0.25874   0.00000  Uiso   1.00
C321   C     0.84327   0.61098   0.24175   0.00000  Uiso   1.00
C322   C     0.85501   0.47854   0.14427   0.00000  Uiso   1.00
C323   C     0.81216   0.52120   0.35609   0.00000  Uiso   1.00
C324   C     0.80276   0.52958   0.39894   0.00000  Uiso   1.00
C325   C     0.86354   0.47024   0.10212   0.00000  Uiso   1.00
C326   C     0.76398   0.56404   0.46093   0.00000  Uiso   1.00
C327   C     0.79045   0.33671   0.30397   0.00000  Uiso   1.00
C328   C     0.82407   0.50940   0.41852   0.00000  Uiso   1.00
C329   C     0.81529   0.51524   0.45963   0.00000  Uiso   1.00
C330   C     0.78502   0.54351   0.48067   0.00000  Uiso   1.00
C331   C     0.83585   0.49414   0.48031   0.00000  Uiso   1.00
C332   C     0.82696   0.50311   0.02184   0.00000  Uiso   1.00
C333   C     0.79656   0.53164   0.04147   0.00000  Uiso   1.00
C334   C     0.77596   0.55117   0.02122   0.00000  Uiso   1.00
H335   H     0.75279   0.57267   0.03753   0.00000  Uiso   1.00
H336   H     0.75581   0.57299   0.40575   0.00000  Uiso   1.00
H337   H     0.84775   0.48961   0.40070   0.00000  Uiso   1.00
H338   H     0.78733   0.53947   0.07273   0.00000  Uiso   1.00
H339   H     0.87191   0.45425   0.42999   0.00000  Uiso   1.00
H340   H     0.75850   0.34741   0.31497   0.00000  Uiso   1.00
H341   H     0.92087   0.41022   0.02495   0.00000  Uiso   1.00
H342   H     0.68344   0.52563   0.21450   0.00000  Uiso   1.00
H343   H     0.98464   0.47536   0.28614   0.00000  Uiso   1.00
H344   H     0.86764   0.33391   0.21252   0.00000  Uiso   1.00
H345   H     0.82141   0.51325   0.10135   0.00000  Uiso   1.00
H346   H     0.90808   0.42499   0.09608   0.00000  Uiso   1.00
H347   H     0.90669   0.42142   0.46496   0.00000  Uiso   1.00
H348   H     0.74070   0.58554   0.47694   0.00000  Uiso   1.00
O349   O     0.83333   0.50000   0.25000   0.00000  Uiso   1.00
O350   O     0.82360   0.45726   0.16625   0.00000  Uiso   1.00
O351   O     0.79354   0.53979   0.33749   0.00000  Uiso   1.00
O352   O     0.87755   0.50826   0.15877   0.00000  Uiso   1.00
O353   O     0.83865   0.49468   0.33749   0.00000  Uiso   1.00
O354   O     0.80417   0.65312   0.32546   0.00000  Uiso   1.00
O355   O     0.84515   0.41434   0.27820   0.00000  Uiso   1.00
O356   O     0.81247   0.59469   0.26767   0.00000  Uiso   1.00
O357   O     0.74119   0.46584   0.23607   0.00000  Uiso   1.00
O358   O     0.93452   0.52512   0.21805   0.00000  Uiso   1.00
O359   O     0.73656   0.52293   0.27820   0.00000  Uiso   1.00
O360   O     0.92106   0.48610   0.26767   0.00000  Uiso   1.00
O361   O     0.80467   0.40236   0.23607   0.00000  Uiso   1.00
O362   O     0.87104   0.58860   0.21806   0.00000  Uiso   1.00
Zn363  Zn    0.85910   0.47423   0.28277   0.00000  Uiso   1.00
Zn364  Zn    0.80125   0.45711   0.22257   0.00000  Uiso   1.00
Zn365  Zn    0.87833   0.52997   0.21188   0.00000  Uiso   1.00
Zn366  Zn    0.79465   0.53868   0.28277   0.00000  Uiso   1.00
C367   C     0.05251   0.82674   0.25888   0.00000  Uiso   1.00
C368   C     0.19792   0.79736   0.46091   0.00000  Uiso   1.00
C369   C     0.21825   0.77757   0.48111   0.00000  Uiso   1.00
C370   C     0.28099   0.84021   0.24125   0.00000  Uiso   1.00
C371   C     0.21085   0.78671   0.02136   0.00000  Uiso   1.00
C372   C     0.18184   0.81625   0.04236   0.00000  Uiso   1.00
C373   C     0.23217   0.76619   0.04088   0.00000  Uiso   1.00
C374   C     0.22507   0.77453   0.08119   0.00000  Uiso   1.00
C375   C     0.17568   0.82436   0.08317   0.00000  Uiso   1.00
C376   C     0.32701   0.84266   0.23761   0.00000  Uiso   1.00
C377   C     0.00707   0.82480   0.26257   0.00000  Uiso   1.00
C378   C     0.10597   0.89032   0.42034   0.00000  Uiso   1.00
C379   C     0.17823   0.98834   0.23833   0.00000  Uiso   1.00
C380   C     0.15162   0.68012   0.26474   0.00000  Uiso   1.00
C381   C     0.15653   0.72307   0.25874   0.00000  Uiso   1.00
C382   C     0.17660   0.94432   0.24175   0.00000  Uiso   1.00
C383   C     0.18834   0.81187   0.14427   0.00000  Uiso   1.00
C384   C     0.14549   0.85453   0.35609   0.00000  Uiso   1.00
C385   C     0.13609   0.86292   0.39894   0.00000  Uiso   1.00
C386   C     0.19688   0.80358   0.10212   0.00000  Uiso   1.00
C387   C     0.09731   0.89737   0.46093   0.00000  Uiso   1.00
C388   C     0.12378   0.67005   0.30397   0.00000  Uiso   1.00
C389   C     0.15740   0.84273   0.41852   0.00000  Uiso   1.00
C390   C     0.14862   0.84857   0.45963   0.00000  Uiso   1.00
C391   C     0.11835   0.87684   0.48067   0.00000  Uiso   1.00
C392   C     0.16918   0.82747   0.48031   0.00000  Uiso   1.00
C393   C     0.16029   0.83644   0.02184   0.00000  Uiso   1.00
C394   C     0.12989   0.86497   0.04147   0.00000  Uiso   1.00
C395   C     0.10930   0.88450   0.02122   0.00000  Uiso   1.00
H396   H     0.08612   0.90600   0.03753   0.00000  Uiso   1.00
H397   H     0.08914   0.90633   0.40575   0.00000  Uiso   1.00
H398   H     0.18109   0.82294   0.40070   0.00000  Uiso   1.00
H399   H     0.12066   0.87280   0.07273   0.00000  Uiso   1.00
H400   H     0.20524   0.78758   0.42999   0.00000  Uiso   1.00
H401   H     0.09183   0.68075   0.31497   0.00000  Uiso   1.00
H402   H     0.25420   0.74355   0.02495   0.00000  Uiso   1.00
H403   H     0.01678   0.85897   0.21450   0.00000  Uiso   1.00
H404   H     0.31797   0.80870   0.28614   0.00000  Uiso   1.00
H405   H     0.20098   0.66725   0.21252   0.00000  Uiso   1.00
H406   H     0.15474   0.84658   0.10135   0.00000  Uiso   1.00
H407   H     0.24141   0.75832   0.09608   0.00000  Uiso   1.00
H408   H     0.24002   0.75475   0.46496   0.00000  Uiso   1.00
H409   H     0.07404   0.91887   0.47694   0.00000  Uiso   1.00
O410   O     0.16667   0.83333   0.25000   0.00000  Uiso   1.00
O411   O     0.15693   0.79060   0.16625   0.00000  Uiso   1.00
O412   O     0.12687   0.87313   0.33749   0.00000  Uiso   1.00
O413   O     0.21088   0.84159   0.15877   0.00000  Uiso   1.00
O414   O     0.17198   0.82802   0.33749   0.00000  Uiso   1.00
O415   O     0.13750   0.98645   0.32546   0.00000  Uiso   1.00
O416   O     0.17849   0.74768   0.27820   0.00000  Uiso   1.00
O417   O     0.14581   0.92803   0.26767   0.00000  Uiso   1.00
O418   O     0.07452   0.79917   0.23607   0.00000  Uiso   1.00
O419   O     0.26785   0.85845   0.21805   0.00000  Uiso   1.00
O420   O     0.06990   0.85627   0.27820   0.00000  Uiso   1.00
O421   O     0.25440   0.81944   0.26767   0.00000  Uiso   1.00
O422   O     0.13800   0.73570   0.23607   0.00000  Uiso   1.00
O423   O     0.20437   0.92193   0.21806   0.00000  Uiso   1.00
Zn424  Zn    0.19244   0.80756   0.28277   0.00000  Uiso   1.00
Zn425  Zn    0.13459   0.79044   0.22257   0.00000  Uiso   1.00
Zn426  Zn    0.21166   0.86331   0.21188   0.00000  Uiso   1.00
Zn427  Zn    0.12798   0.87202   0.28277   0.00000  Uiso   1.00
C428   C     0.38584   0.82674   0.25888   0.00000  Uiso   1.00
C429   C     0.53125   0.79736   0.46091   0.00000  Uiso   1.00
C430   C     0.55159   0.77757   0.48111   0.00000  Uiso   1.00
C431   C     0.61432   0.84021   0.24125   0.00000  Uiso   1.00
C432   C     0.54418   0.78671   0.02136   0.00000  Uiso   1.00
C433   C     0.51518   0.81625   0.04236   0.00000  Uiso   1.00
C434   C     0.56550   0.76619   0.04088   0.00000  Uiso   1.00
C435   C     0.55840   0.77453   0.08119   0.00000  Uiso   1.00
C436   C     0.50901   0.82436   0.08317   0.00000  Uiso   1.00
C437   C     0.66034   0.84266   0.23761   0.00000  Uiso   1.00
C438   C     0.34040   0.82480   0.26257   0.00000  Uiso   1.00
C439   C     0.43930   0.89032   0.42034   0.00000  Uiso   1.00
C440   C     0.51156   0.98834   0.23833   0.00000  Uiso   1.00
C441   C     0.48495   0.68012   0.26474   0.00000  Uiso   1.00
C442   C     0.48987   0.72307   0.25874   0.00000  Uiso   1.00
C443   C     0.50994   0.94432   0.24175   0.00000  Uiso   1.00
C444   C     0.52167   0.81187   0.14427   0.00000  Uiso   1.00
C445   C     0.47883   0.85453   0.35609   0.00000  Uiso   1.00
C446   C     0.46943   0.86292   0.39894   0.00000  Uiso   1.00
C447   C     0.53021   0.80358   0.10212   0.00000  Uiso   1.00
C448   C     0.43064   0.89737   0.46093   0.00000  Uiso   1.00
C449   C     0.45711   0.67005   0.30397   0.00000  Uiso   1.00
C450   C     0.49074   0.84273   0.41852   0.00000  Uiso   1.00
C451   C     0.48196   0.84857   0.45963   0.00000  Uiso   1.00
C452   C     0.45169   0.87684   0.48067   0.00000  Uiso   1.00
C453   C     0.50251   0.82747   0.48031   0.00000  Uiso   1.00
C454   C     0.49363   0.83644   0.02184   0.00000  Uiso   1.00
C455   C     0.46323   0.86497   0.04147   0.00000  Uiso   1.00
C456   C     0.44263   0.88450   0.02122   0.00000  Uiso   1.00
H457   H     0.41945   0.90600   0.03753   0.00000  Uiso   1.00
H458   H     0.42248   0.90633   0.40575   0.00000  Uiso   1.00
H459   H     0.51442   0.82294   0.40070   0.00000  Uiso   1.00
H460   H     0.45399   0.87280   0.07273   0.00000  Uiso   1.00
H461   H     0.53857   0.78758   0.42999   0.00000  Uiso   1.00
H462   H     0.42517   0.68075   0.31497   0.00000  Uiso   1.00
H463   H     0.58754   0.74355   0.02495   0.00000  Uiso   1.00
H464   H     0.35011   0.85897   0.21450   0.00000  Uiso   1.00
H465   H     0.65130   0.80870   0.28614   0.00000  Uiso   1.00
H466   H     0.53431   0.66725   0.21252   0.00000  Uiso   1.00
H467   H     0.48807   0.84658   0.10135   0.00000  Uiso   1.00
H468   H     0.57474   0.75832   0.09608   0.00000  Uiso   1.00
H469   H     0.57335   0.75475   0.46496   0.00000  Uiso   1.00
H470   H     0.40737   0.91887   0.47694   0.00000  Uiso   1.00
O471   O     0.50000   0.83333   0.25000   0.00000  Uiso   1.00
O472   O     0.49027   0.79060   0.16625   0.00000  Uiso   1.00
O473   O     0.46020   0.87313   0.33749   0.00000  Uiso   1.00
O474   O     0.54421   0.84159   0.15877   0.00000  Uiso   1.00
O475   O     0.50532   0.82802   0.33749   0.00000  Uiso   1.00
O476   O     0.47083   0.98645   0.32546   0.00000  Uiso   1.00
O477   O     0.51182   0.74768   0.27820   0.00000  Uiso   1.00
O478   O     0.47914   0.92803   0.26767   0.00000  Uiso   1.00
O479   O     0.40785   0.79917   0.23607   0.00000  Uiso   1.00
O480   O     0.60119   0.85845   0.21805   0.00000  Uiso   1.00
O481   O     0.40323   0.85627   0.27820   0.00000  Uiso   1.00
O482   O     0.58773   0.81944   0.26767   0.00000  Uiso   1.00
O483   O     0.47133   0.73570   0.23607   0.00000  Uiso   1.00
O484   O     0.53771   0.92193   0.21806   0.00000  Uiso   1.00
Zn485  Zn    0.52577   0.80756   0.28277   0.00000  Uiso   1.00
Zn486  Zn    0.46792   0.79044   0.22257   0.00000  Uiso   1.00
Zn487  Zn    0.54500   0.86331   0.21188   0.00000  Uiso   1.00
Zn488  Zn    0.46131   0.87202   0.28277   0.00000  Uiso   1.00
C489   C     0.71918   0.82674   0.25888   0.00000  Uiso   1.00
C490   C     0.86458   0.79736   0.46091   0.00000  Uiso   1.00
C491   C     0.88492   0.77757   0.48111   0.00000  Uiso   1.00
C492   C     0.94766   0.84021   0.24125   0.00000  Uiso   1.00
C493   C     0.87752   0.78671   0.02136   0.00000  Uiso   1.00
C494   C     0.84851   0.81625   0.04236   0.00000  Uiso   1.00
C495   C     0.89883   0.76619   0.04088   0.00000  Uiso   1.00
C496   C     0.89173   0.77453   0.08119   0.00000  Uiso   1.00
C497   C     0.84234   0.82436   0.08317   0.00000  Uiso   1.00
C498   C     0.99368   0.84266   0.23761   0.00000  Uiso   1.00
C499   C     0.67374   0.82480   0.26257   0.00000  Uiso   1.00
C500   C     0.77264   0.89032   0.42034   0.00000  Uiso   1.00
C501   C     0.84490   0.98834   0.23833   0.00000  Uiso   1.00
C502   C     0.81828   0.68012   0.26474   0.00000  Uiso   1.00
C503   C     0.82320   0.72307   0.25874   0.00000  Uiso   1.00
C504   C     0.84327   0.94432   0.24175   0.00000  Uiso   1.00
C505   C     0.85501   0.81187   0.14427   0.00000  Uiso   1.00
C506   C     0.81216   0.85453   0.35609   0.00000  Uiso   1.00
C507   C     0.80276   0.86292   0.39894   0.00000  Uiso   1.00
C508   C     0.86354   0.80358   0.10212   0.00000  Uiso   1.00
C509   C     0.76398   0.89737   0.46093   0.00000  Uiso   1.00
C510   C     0.79045   0.67005   0.30397   0.00000  Uiso   1.00
C511   C     0.82407   0.84273   0.41852   0.00000  Uiso   1.00
C512   C     0.81529   0.84857   0.45963   0.00000  Uiso   1.00
C513   C     0.78502   0.87684   0.48067   0.00000  Uiso   1.00
C514   C     0.83585   0.82747   0.48031   0.00000  Uiso   1.00
C515   C     0.82696   0.83644   0.02184   0.00000  Uiso   1.00
C516   C     0.79656   0.86497   0.04147   0.00000  Uiso   1.00
C517   C     0.77596   0.88450   0.02122   0.00000  Uiso   1.00
H518   H     0.75279   0.90600   0.03753   0.00000  Uiso   1.00
H519   H     0.75581   0.90633   0.40575   0.00000  Uiso   1.00
H520   H     0.84775   0.82294   0.40070   0.00000  Uiso   1.00
H521   H     0.78733   0.87280   0.07273   0.00000  Uiso   1.00
H522   H     0.87191   0.78758   0.42999   0.00000  Uiso   1.00
H523   H     0.75850   0.68075   0.31497   0.00000  Uiso   1.00
H524   H     0.92087   0.74355   0.02495   0.00000  Uiso   1.00
H525   H     0.68344   0.85897   0.21450   0.00000  Uiso   1.00
H526   H     0.98464   0.80870   0.28614   0.00000  Uiso   1.00
H527   H     0.86764   0.66725   0.21252   0.00000  Uiso   1.00
H528   H     0.82141   0.84658   0.10135   0.00000  Uiso   1.00
H529   H     0.90808   0.75832   0.09608   0.00000  Uiso   1.00
H530   H     0.90669   0.75475   0.46496   0.00000  Uiso   1.00
H531   H     0.74070   0.91887   0.47694   0.00000  Uiso   1.00
O532   O     0.83333   0.83333   0.25000   0.00000  Uiso   1.00
O533   O     0.82360   0.79060   0.16625   0.00000  Uiso   1.00
O534   O     0.79354   0.87313   0.33749   0.00000  Uiso   1.00
O535   O     0.87755   0.84159   0.15877   0.00000  Uiso   1.00
O536   O     0.83865   0.82802   0.33749   0.00000  Uiso   1.00
O537   O     0.80417   0.98645   0.32546   0.00000  Uiso   1.00
O538   O     0.84515   0.74768   0.27820   0.00000  Uiso   1.00
O539   O     0.81247   0.92803   0.26767   0.00000  Uiso   1.00
O540   O     0.74119   0.79917   0.23607   0.00000  Uiso   1.00
O541   O     0.93452   0.85845   0.21805   0.00000  Uiso   1.00
O542   O     0.73656   0.85627   0.27820   0.00000  Uiso   1.00
O543   O     0.92106   0.81944   0.26767   0.00000  Uiso   1.00
O544   O     0.80467   0.73570   0.23607   0.00000  Uiso   1.00
O545   O     0.87104   0.92193   0.21806   0.00000  Uiso   1.00
Zn546  Zn    0.85910   0.80756   0.28277   0.00000  Uiso   1.00
Zn547  Zn    0.80125   0.79044   0.22257   0.00000  Uiso   1.00
Zn548  Zn    0.87833   0.86331   0.21188   0.00000  Uiso   1.00
Zn549  Zn    0.79465   0.87202   0.28277   0.00000  Uiso   1.00
C550   C     0.05251   0.16007   0.75888   0.00000  Uiso   1.00
C551   C     0.19792   0.13070   0.96091   0.00000  Uiso   1.00
C552   C     0.21825   0.11090   0.98111   0.00000  Uiso   1.00
C553   C     0.28099   0.17355   0.74125   0.00000  Uiso   1.00
C554   C     0.21085   0.12004   0.52136   0.00000  Uiso   1.00
C555   C     0.18184   0.14959   0.54236   0.00000  Uiso   1.00
C556   C     0.23217   0.09952   0.54088   0.00000  Uiso   1.00
C557   C     0.22507   0.10786   0.58119   0.00000  Uiso   1.00
C558   C     0.17568   0.15770   0.58317   0.00000  Uiso   1.00
C559   C     0.32701   0.17599   0.73761   0.00000  Uiso   1.00
C560   C     0.00707   0.15813   0.76257   0.00000  Uiso   1.00
C561   C     0.10597   0.22365   0.92034   0.00000  Uiso   1.00
C562   C     0.17823   0.32167   0.73833   0.00000  Uiso   1.00
C563   C     0.15162   0.01345   0.76474   0.00000  Uiso   1.00
C564   C     0.15653   0.05640   0.75874   0.00000  Uiso   1.00
C565   C     0.17660   0.27765   0.74175   0.00000  Uiso   1.00
C566   C     0.18834   0.14520   0.64427   0.00000  Uiso   1.00
C567   C     0.14549   0.18787   0.85609   0.00000  Uiso   1.00
C568   C     0.13609   0.19625   0.89894   0.00000  Uiso   1.00
C569   C     0.19688   0.13691   0.60212   0.00000  Uiso   1.00
C570   C     0.09731   0.23070   0.96093   0.00000  Uiso   1.00
C571   C     0.12378   0.00338   0.80397   0.00000  Uiso   1.00
C572   C     0.15740   0.17606   0.91852   0.00000  Uiso   1.00
C573   C     0.14862   0.18190   0.95963   0.00000  Uiso   1.00
C574   C     0.11835   0.21017   0.98067   0.00000  Uiso   1.00
C575   C     0.16918   0.16081   0.98031   0.00000  Uiso   1.00
C576   C     0.16029   0.16978   0.52184   0.00000  Uiso   1.00
C577   C     0.12989   0.19831   0.54147   0.00000  Uiso   1.00
C578   C     0.10930   0.21784   0.52122   0.00000  Uiso   1.00
H579   H     0.08612   0.23934   0.53753   0.00000  Uiso   1.00
H580   H     0.08914   0.23966   0.90575   0.00000  Uiso   1.00
H581   H     0.18109   0.15627   0.90070   0.00000  Uiso   1.00
H582   H     0.12066   0.20613   0.57273   0.00000  Uiso   1.00
H583   H     0.20524   0.12092   0.92999   0.00000  Uiso   1.00
H584   H     0.09183   0.01408   0.81497   0.00000  Uiso   1.00
H585   H     0.25420   0.07688   0.52495   0.00000  Uiso   1.00
H586   H     0.01678   0.19230   0.71450   0.00000  Uiso   1.00
H587   H     0.31797   0.14203   0.78614   0.00000  Uiso   1.00
H588   H     0.20098   0.00058   0.71252   0.00000  Uiso   1.00
H589   H     0.15474   0.17992   0.60135   0.00000  Uiso   1.00
H590   H     0.24141   0.09165   0.59608   0.00000  Uiso   1.00
H591   H     0.24002   0.08809   0.96496   0.00000  Uiso   1.00
H592   H     0.07404   0.25221   0.97694   0.00000  Uiso   1.00
O593   O     0.16667   0.16667   0.75000   0.00000  Uiso   1.00
O594   O     0.15693   0.12393   0.66625   0.00000  Uiso   1.00
O595   O     0.12687   0.20646   0.83749   0.00000  Uiso   1.00
O596   O     0.21088   0.17493   0.65877   0.00000  Uiso   1.00
O597   O     0.17198   0.16135   0.83749   0.00000  Uiso   1.00
O598   O     0.13750   0.31978   0.82546   0.00000  Uiso   1.00
O599   O     0.17849   0.08101   0.77820   0.00000  Uiso   1.00
O600   O     0.14581   0.26136   0.76767   0.00000  Uiso   1.00
O601   O     0.07452   0.13251   0.73607   0.00000  Uiso   1.00
O602   O     0.26785   0.19179   0.71805   0.00000  Uiso   1.00
O603   O     0.06990   0.18960   0.77820   0.00000  Uiso   1.00
O604   O     0.25440   0.15277   0.76767   0.00000  Uiso   1.00
O605   O     0.13800   0.06903   0.73607   0.00000  Uiso   1.00
O606   O     0.20437   0.25527   0.71806   0.00000  Uiso   1.00
Zn607  Zn    0.19244   0.14090   0.78277   0.00000  Uiso   1.00
Zn608  Zn    0.13459   0.12378   0.72257   0.00000  Uiso   1.00
Zn609  Zn    0.21166   0.19664   0.71188   0.00000  Uiso   1.00
Zn610  Zn    0.12798   0.20535   0.78277   0.00000  Uiso   1.00
C611   C     0.38584   0.16007   0.75888   0.00000  Uiso   1.00
C612   C     0.53125   0.13070   0.96091   0.00000  Uiso   1.00
C613   C     0.55159   0.11090   0.98111   0.00000  Uiso   1.00
C614   C     0.61432   0.17355   0.74125   0.00000  Uiso   1.00
C615   C     0.54418   0.12004   0.52136   0.00000  Uiso   1.00
C616   C     0.51518   0.14959   0.54236   0.00000  Uiso   1.00
C617   C     0.56550   0.09952   0.54088   0.00000  Uiso   1.00
C618   C     0.55840   0.10786   0.58119   0.00000  Uiso   1.00
C619   C     0.50901   0.15770   0.58317   0.00000  Uiso   1.00
C620   C     0.66034   0.17599   0.73761   0.00000  Uiso   1.00
C621   C     0.34040   0.15813   0.76257   0.00000  Uiso   1.00
C622   C     0.43930   0.22365   0.92034   0.00000  Uiso   1.00
C623   C     0.51156   0.32167   0.73833   0.00000  Uiso   1.00
C624   C     0.48495   0.01345   0.76474   0.00000  Uiso   1.00
C625   C     0.48987   0.05640   0.75874   0.00000  Uiso   1.00
C626   C     0.50994   0.27765   0.74175   0.00000  Uiso   1.00
C627   C     0.52167   0.14520   0.64427   0.00000  Uiso   1.00
C628   C     0.47883   0.18787   0.85609   0.00000  Uiso   1.00
C629   C     0.46943   0.19625   0.89894   0.00000  Uiso   1.00
C630   C     0.53021   0.13691   0.60212   0.00000  Uiso   1.00
C631   C     0.43064   0.23070   0.96093   0.00000  Uiso   1.00
C632   C     0.45711   0.00338   0.80397   0.00000  Uiso   1.00
C633   C     0.49074   0.17606   0.91852   0.00000  Uiso   1.00
C634   C     0.48196   0.18190   0.95963   0.00000  Uiso   1.00
C635   C     0.45169   0.21017   0.98067   0.00000  Uiso   1.00
C636   C     0.50251   0.16081   0.98031   0.00000  Uiso   1.00
C637   C     0.49363   0.16978   0.52184   0.00000  Uiso   1.00
C638   C     0.46323   0.19831   0.54147   0.00000  Uiso   1.00
C639   C     0.44263   0.21784   0.52122   0.00000  Uiso   1.00
H640   H     0.41945   0.23934   0.53753   0.00000  Uiso   1.00
H641   H     0.42248   0.23966   0.90575   0.00000  Uiso   1.00
H642   H     0.51442   0.15627   0.90070   0.00000  Uiso   1.00
H643   H     0.45399   0.20613   0.57273   0.00000  Uiso   1.00
H644   H     0.53857   0.12092   0.92999   0.00000  Uiso   1.00
H645   H     0.42517   0.01408   0.81497   0.00000  Uiso   1.00
H646   H     0.58754   0.07688   0.52495   0.00000  Uiso   1.00
H647   H     0.35011   0.19230   0.71450   0.00000  Uiso   1.00
H648   H     0.65130   0.14203   0.78614   0.00000  Uiso   1.00
H649   H     0.53431   0.00058   0.71252   0.00000  Uiso   1.00
H650   H     0.48807   0.17992   0.60135   0.00000  Uiso   1.00
H651   H     0.57474   0.09165   0.59608   0.00000  Uiso   1.00
H652   H     0.57335   0.08809   0.96496   0.00000  Uiso   1.00
H653   H     0.40737   0.25221   0.97694   0.00000  Uiso   1.00
O654   O     0.50000   0.16667   0.75000   0.00000  Uiso   1.00
O655   O     0.49027   0.12393   0.66625   0.00000  Uiso   1.00
O656   O     0.46020   0.20646   0.83749   0.00000  Uiso   1.00
O657   O     0.54421   0.17493   0.65877   0.00000  Uiso   1.00
O658   O     0.50532   0.16135   0.83749   0.00000  Uiso   1.00
O659   O     0.47083   0.31978   0.82546   0.00000  Uiso   1.00
O660   O     0.51182   0.08101   0.77820   0.00000  Uiso   1.00
O661   O     0.47914   0.26136   0.76767   0.00000  Uiso   1.00
O662   O     0.40785   0.13251   0.73607   0.00000  Uiso   1.00
O663   O     0.60119   0.19179   0.71805   0.00000  Uiso   1.00
O664   O     0.40323   0.18960   0.77820   0.00000  Uiso   1.00
O665   O     0.58773   0.15277   0.76767   0.00000  Uiso   1.00
O666   O     0.47133   0.06903   0.73607   0.00000  Uiso   1.00
O667   O     0.53771   0.25527   0.71806   0.00000  Uiso   1.00
Zn668  Zn    0.52577   0.14090   0.78277   0.00000  Uiso   1.00
Zn669  Zn    0.46792   0.12378   0.72257   0.00000  Uiso   1.00
Zn670  Zn    0.54500   0.19664   0.71188   0.00000  Uiso   1.00
Zn671  Zn    0.46131   0.20535   0.78277   0.00000  Uiso   1.00
C672   C     0.71918   0.16007   0.75888   0.00000  Uiso   1.00
C673   C     0.86458   0.13070   0.96091   0.00000  Uiso   1.00
C674   C     0.88492   0.11090   0.98111   0.00000  Uiso   1.00
C675   C     0.94766   0.17355   0.74125   0.00000  Uiso   1.00
C676   C     0.87752   0.12004   0.52136   0.00000  Uiso   1.00
C677   C     0.84851   0.14959   0.54236   0.00000  Uiso   1.00
C678   C     0.89883   0.09952   0.54088   0.00000  Uiso   1.00
C679   C     0.89173   0.10786   0.58119   0.00000  Uiso   1.00
C680   C     0.84234   0.15770   0.58317   0.00000  Uiso   1.00
C681   C     0.99368   0.17599   0.73761   0.00000  Uiso   1.00
C682   C     0.67374   0.15813   0.76257   0.00000  Uiso   1.00
C683   C     0.77264   0.22365   0.92034   0.00000  Uiso   1.00
C684   C     0.84490   0.32167   0.73833   0.00000  Uiso   1.00
C685   C     0.81828   0.01345   0.76474   0.00000  Uiso   1.00
C686   C     0.82320   0.05640   0.75874   0.00000  Uiso   1.00
C687   C     0.84327   0.27765   0.74175   0.00000  Uiso   1.00
C688   C     0.85501   0.14520   0.64427   0.00000  Uiso   1.00
C689   C     0.81216   0.18787   0.85609   0.00000  Uiso   1.00
C690   C     0.80276   0.19625   0.89894   0.00000  Uiso   1.00
C691   C     0.86354   0.13691   0.60212   0.00000  Uiso   1.00
C692   C     0.76398   0.23070   0.96093   0.00000  Uiso   1.00
C693   C     0.79045   0.00338   0.80397   0.00000  Uiso   1.00
C694   C     0.82407   0.17606   0.91852   0.00000  Uiso   1.00
C695   C     0.81529   0.18190   0.95963   0.00000  Uiso   1.00
C696   C     0.78502   0.21017   0.98067   0.00000  Uiso   1.00
C697   C     0.83585   0.16081   0.98031   0.00000  Uiso   1.00
C698   C     0.82696   0.16978   0.52184   0.00000  Uiso   1.00
C699   C     0.79656   0.19831   0.54147   0.00000  Uiso   1.00
C700   C     0.77596   0.21784   0.52122   0.00000  Uiso   1.00
H701   H     0.75279   0.23934   0.53753   0.00000  Uiso   1.00
H702   H     0.75581   0.23966   0.90575   0.00000  Uiso   1.00
H703   H     0.84775   0.15627   0.90070   0.00000  Uiso   1.00
H704   H     0.78733   0.20613   0.57273   0.00000  Uiso   1.00
H705   H     0.87191   0.12092   0.92999   0.00000  Uiso   1.00
H706   H     0.75850   0.01408   0.81497   0.00000  Uiso   1.00
H707   H     0.92087   0.07688   0.52495   0.00000  Uiso   1.00
H708   H     0.68344   0.19230   0.71450   0.00000  Uiso   1.00
H709   H     0.98464   0.14203   0.78614   0.00000  Uiso   1.00
H710   H     0.86764   0.00058   0.71252   0.00000  Uiso   1.00
H711   H     0.82141   0.17992   0.60135   0.00000  Uiso   1.00
H712   H     0.90808   0.09165   0.59608   0.00000  Uiso   1.00
H713   H     0.90669   0.08809   0.96496   0.00000  Uiso   1.00
H714   H     0.74070   0.25221   0.97694   0.00000  Uiso   1.00
O715   O     0.83333   0.16667   0.75000   0.00000  Uiso   1.00
O716   O     0.82360   0.12393   0.66625   0.00000  Uiso   1.00
O717   O     0.79354   0.20646   0.83749   0.00000  Uiso   1.00
O718   O     0.87755   0.17493   0.65877   0.00000  Uiso   1.00
O719   O     0.83865   0.16135   0.83749   0.00000  Uiso   1.00
O720   O     0.80417   0.31978   0.82546   0.00000  Uiso   1.00
O721   O     0.84515   0.08101   0.77820   0.00000  Uiso   1.00
O722   O     0.81247   0.26136   0.76767   0.00000  Uiso   1.00
O723   O     0.74119   0.13251   0.73607   0.00000  Uiso   1.00
O724   O     0.93452   0.19179   0.71805   0.00000  Uiso   1.00
O725   O     0.73656   0.18960   0.77820   0.00000  Uiso   1.00
O726   O     0.92106   0.15277   0.76767   0.00000  Uiso   1.00
O727   O     0.80467   0.06903   0.73607   0.00000  Uiso   1.00
O728   O     0.87104   0.25527   0.71806   0.00000  Uiso   1.00
Zn729  Zn    0.85910   0.14090   0.78277   0.00000  Uiso   1.00
Zn730  Zn    0.80125   0.12378   0.72257   0.00000  Uiso   1.00
Zn731  Zn    0.87833   0.19664   0.71188   0.00000  Uiso   1.00
Zn732  Zn    0.79465   0.20535   0.78277   0.00000  Uiso   1.00
C733   C     0.05251   0.49340   0.75888   0.00000  Uiso   1.00
C734   C     0.19792   0.46403   0.96091   0.00000  Uiso   1.00
C735   C     0.21825   0.44423   0.98111   0.00000  Uiso   1.00
C736   C     0.28099   0.50688   0.74125   0.00000  Uiso   1.00
C737   C     0.21085   0.45337   0.52136   0.00000  Uiso   1.00
C738   C     0.18184   0.48292   0.54236   0.00000  Uiso   1.00
C739   C     0.23217   0.43285   0.54088   0.00000  Uiso   1.00
C740   C     0.22507   0.44119   0.58119   0.00000  Uiso   1.00
C741   C     0.17568   0.49103   0.58317   0.00000  Uiso   1.00
C742   C     0.32701   0.50932   0.73761   0.00000  Uiso   1.00
C743   C     0.00707   0.49146   0.76257   0.00000  Uiso   1.00
C744   C     0.10597   0.55699   0.92034   0.00000  Uiso   1.00
C745   C     0.17823   0.65500   0.73833   0.00000  Uiso   1.00
C746   C     0.15162   0.34679   0.76474   0.00000  Uiso   1.00
C747   C     0.15653   0.38973   0.75874   0.00000  Uiso   1.00
C748   C     0.17660   0.61098   0.74175   0.00000  Uiso   1.00
C749   C     0.18834   0.47854   0.64427   0.00000  Uiso   1.00
C750   C     0.14549   0.52120   0.85609   0.00000  Uiso   1.00
C751   C     0.13609   0.52958   0.89894   0.00000  Uiso   1.00
C752   C     0.19688   0.47024   0.60212   0.00000  Uiso   1.00
C753   C     0.09731   0.56404   0.96093   0.00000  Uiso   1.00
C754   C     0.12378   0.33671   0.80397   0.00000  Uiso   1.00
C755   C     0.15740   0.50940   0.91852   0.00000  Uiso   1.00
C756   C     0.14862   0.51524   0.95963   0.00000  Uiso   1.00
C757   C     0.11835   0.54351   0.98067   0.00000  Uiso   1.00
C758   C     0.16918   0.49414   0.98031   0.00000  Uiso   1.00
C759   C     0.16029   0.50311   0.52184   0.00000  Uiso   1.00
C760   C     0.12989   0.53164   0.54147   0.00000  Uiso   1.00
C761   C     0.10930   0.55117   0.52122   0.00000  Uiso   1.00
H762   H     0.08612   0.57267   0.53753   0.00000  Uiso   1.00
H763   H     0.08914   0.57299   0.90575   0.00000  Uiso   1.00
H764   H     0.18109   0.48961   0.90070   0.00000  Uiso   1.00
H765   H     0.12066   0.53947   0.57273   0.00000  Uiso   1.00
H766   H     0.20524   0.45425   0.92999   0.00000  Uiso   1.00
H767   H     0.09183   0.34741   0.81497   0.00000  Uiso   1.00
H768   H     0.25420   0.41022   0.52495   0.00000  Uiso   1.00
H769   H     0.01678   0.52563   0.71450   0.00000  Uiso   1.00
H770   H     0.31797   0.47536   0.78614   0.00000  Uiso   1.00
H771   H     0.20098   0.33391   0.71252   0.00000  Uiso   1.00
H772   H     0.15474   0.51325   0.60135   0.00000  Uiso   1.00
H773   H     0.24141   0.42499   0.59608   0.00000  Uiso   1.00
H774   H     0.24002   0.42142   0.96496   0.00000  Uiso   1.00
H775   H     0.07404   0.58554   0.97694   0.00000  Uiso   1.00
O776   O     0.16667   0.50000   0.75000   0.00000  Uiso   1.00
O777   O     0.15693   0.45726   0.66625   0.00000  Uiso   1.00
O778   O     0.12687   0.53979   0.83749   0.00000  Uiso   1.00
O779   O     0.21088   0.50826   0.65877   0.00000  Uiso   1.00
O780   O     0.17198   0.49468   0.83749   0.00000  Uiso   1.00
O781   O     0.13750   0.65312   0.82546   0.00000  Uiso   1.00
O782   O     0.17849   0.41434   0.77820   0.00000  Uiso   1.00
O783   O     0.14581   0.59469   0.76767   0.00000  Uiso   1.00
O784   O     0.07452   0.46584   0.73607   0.00000  Uiso   1.00
O785   O     0.26785   0.52512   0.71805   0.00000  Uiso   1.00
O786   O     0.06990   0.52293   0.77820   0.00000  Uiso   1.00
O787   O     0.25440   0.48610   0.76767   0.00000  Uiso   1.00
O788   O     0.13800   0.40236   0.73607   0.00000  Uiso   1.00
O789   O     0.20437   0.58860   0.71806   0.00000  Uiso   1.00
Zn790  Zn    0.19244   0.47423   0.78277   0.00000  Uiso   1.00
Zn791  Zn    0.13459   0.45711   0.72257   0.00000  Uiso   1.00
Zn792  Zn    0.21166   0.52997   0.71188   0.00000  Uiso   1.00
Zn793  Zn    0.12798   0.53868   0.78277   0.00000  Uiso   1.00
C794   C     0.38584   0.49340   0.75888   0.00000  Uiso   1.00
C795   C     0.53125   0.46403   0.96091   0.00000  Uiso   1.00
C796   C     0.55159   0.44423   0.98111   0.00000  Uiso   1.00
C797   C     0.61432   0.50688   0.74125   0.00000  Uiso   1.00
C798   C     0.54418   0.45337   0.52136   0.00000  Uiso   1.00
C799   C     0.51518   0.48292   0.54236   0.00000  Uiso   1.00
C800   C     0.56550   0.43285   0.54088   0.00000  Uiso   1.00
C801   C     0.55840   0.44119   0.58119   0.00000  Uiso   1.00
C802   C     0.50901   0.49103   0.58317   0.00000  Uiso   1.00
C803   C     0.66034   0.50932   0.73761   0.00000  Uiso   1.00
C804   C     0.34040   0.49146   0.76257   0.00000  Uiso   1.00
C805   C     0.43930   0.55699   0.92034   0.00000  Uiso   1.00
C806   C     0.51156   0.65500   0.73833   0.00000  Uiso   1.00
C807   C     0.48495   0.34679   0.76474   0.00000  Uiso   1.00
C808   C     0.48987   0.38973   0.75874   0.00000  Uiso   1.00
C809   C     0.50994   0.61098   0.74175   0.00000  Uiso   1.00
C810   C     0.52167   0.47854   0.64427   0.00000  Uiso   1.00
C811   C     0.47883   0.52120   0.85609   0.00000  Uiso   1.00
C812   C     0.46943   0.52958   0.89894   0.00000  Uiso   1.00
C813   C     0.53021   0.47024   0.60212   0.00000  Uiso   1.00
C814   C     0.43064   0.56404   0.96093   0.00000  Uiso   1.00
C815   C     0.45711   0.33671   0.80397   0.00000  Uiso   1.00
C816   C     0.49074   0.50940   0.91852   0.00000  Uiso   1.00
C817   C     0.48196   0.51524   0.95963   0.00000  Uiso   1.00
C818   C     0.45169   0.54351   0.98067   0.00000  Uiso   1.00
C819   C     0.50251   0.49414   0.98031   0.00000  Uiso   1.00
C820   C     0.49363   0.50311   0.52184   0.00000  Uiso   1.00
C821   C     0.46323   0.53164   0.54147   0.00000  Uiso   1.00
C822   C     0.44263   0.55117   0.52122   0.00000  Uiso   1.00
H823   H     0.41945   0.57267   0.53753   0.00000  Uiso   1.00
H824   H     0.42248   0.57299   0.90575   0.00000  Uiso   1.00
H825   H     0.51442   0.48961   0.90070   0.00000  Uiso   1.00
H826   H     0.45399   0.53947   0.57273   0.00000  Uiso   1.00
H827   H     0.53857   0.45425   0.92999   0.00000  Uiso   1.00
H828   H     0.42517   0.34741   0.81497   0.00000  Uiso   1.00
H829   H     0.58754   0.41022   0.52495   0.00000  Uiso   1.00
H830   H     0.35011   0.52563   0.71450   0.00000  Uiso   1.00
H831   H     0.65130   0.47536   0.78614   0.00000  Uiso   1.00
H832   H     0.53431   0.33391   0.71252   0.00000  Uiso   1.00
H833   H     0.48807   0.51325   0.60135   0.00000  Uiso   1.00
H834   H     0.57474   0.42499   0.59608   0.00000  Uiso   1.00
H835   H     0.57335   0.42142   0.96496   0.00000  Uiso   1.00
H836   H     0.40737   0.58554   0.97694   0.00000  Uiso   1.00
O837   O     0.50000   0.50000   0.75000   0.00000  Uiso   1.00
O838   O     0.49027   0.45726   0.66625   0.00000  Uiso   1.00
O839   O     0.46020   0.53979   0.83749   0.00000  Uiso   1.00
O840   O     0.54421   0.50826   0.65877   0.00000  Uiso   1.00
O841   O     0.50532   0.49468   0.83749   0.00000  Uiso   1.00
O842   O     0.47083   0.65312   0.82546   0.00000  Uiso   1.00
O843   O     0.51182   0.41434   0.77820   0.00000  Uiso   1.00
O844   O     0.47914   0.59469   0.76767   0.00000  Uiso   1.00
O845   O     0.40785   0.46584   0.73607   0.00000  Uiso   1.00
O846   O     0.60119   0.52512   0.71805   0.00000  Uiso   1.00
O847   O     0.40323   0.52293   0.77820   0.00000  Uiso   1.00
O848   O     0.58773   0.48610   0.76767   0.00000  Uiso   1.00
O849   O     0.47133   0.40236   0.73607   0.00000  Uiso   1.00
O850   O     0.53771   0.58860   0.71806   0.00000  Uiso   1.00
Zn851  Zn    0.52577   0.47423   0.78277   0.00000  Uiso   1.00
Zn852  Zn    0.46792   0.45711   0.72257   0.00000  Uiso   1.00
Zn853  Zn    0.54500   0.52997   0.71188   0.00000  Uiso   1.00
Zn854  Zn    0.46131   0.53868   0.78277   0.00000  Uiso   1.00
C855   C     0.71918   0.49340   0.75888   0.00000  Uiso   1.00
C856   C     0.86458   0.46403   0.96091   0.00000  Uiso   1.00
C857   C     0.88492   0.44423   0.98111   0.00000  Uiso   1.00
C858   C     0.94766   0.50688   0.74125   0.00000  Uiso   1.00
C859   C     0.87752   0.45337   0.52136   0.00000  Uiso   1.00
C860   C     0.84851   0.48292   0.54236   0.00000  Uiso   1.00
C861   C     0.89883   0.43285   0.54088   0.00000  Uiso   1.00
C862   C     0.89173   0.44119   0.58119   0.00000  Uiso   1.00
C863   C     0.84234   0.49103   0.58317   0.00000  Uiso   1.00
C864   C     0.99368   0.50932   0.73761   0.00000  Uiso   1.00
C865   C     0.67374   0.49146   0.76257   0.00000  Uiso   1.00
C866   C     0.77264   0.55699   0.92034   0.00000  Uiso   1.00
C867   C     0.84490   0.65500   0.73833   0.00000  Uiso   1.00
C868   C     0.81828   0.34679   0.76474   0.00000  Uiso   1.00
C869   C     0.82320   0.38973   0.75874   0.00000  Uiso   1.00
C870   C     0.84327   0.61098   0.74175   0.00000  Uiso   1.00
C871   C     0.85501   0.47854   0.64427   0.00000  Uiso   1.00
C872   C     0.81216   0.52120   0.85609   0.00000  Uiso   1.00
C873   C     0.80276   0.52958   0.89894   0.00000  Uiso   1.00
C874   C     0.86354   0.47024   0.60212   0.00000  Uiso   1.00
C875   C     0.76398   0.56404   0.96093   0.00000  Uiso   1.00
C876   C     0.79045   0.33671   0.80397   0.00000  Uiso   1.00
C877   C     0.82407   0.50940   0.91852   0.00000  Uiso   1.00
C878   C     0.81529   0.51524   0.95963   0.00000  Uiso   1.00
C879   C     0.78502   0.54351   0.98067   0.00000  Uiso   1.00
C880   C     0.83585   0.49414   0.98031   0.00000  Uiso   1.00
C881   C     0.82696   0.50311   0.52184   0.00000  Uiso   1.00
C882   C     0.79656   0.53164   0.54147   0.00000  Uiso   1.00
C883   C     0.77596   0.55117   0.52122   0.00000  Uiso   1.00
H884   H     0.75279   0.57267   0.53753   0.00000  Uiso   1.00
H885   H     0.75581   0.57299   0.90575   0.00000  Uiso   1.00
H886   H     0.84775   0.48961   0.90070   0.00000  Uiso   1.00
H887   H     0.78733   0.53947   0.57273   0.00000  Uiso   1.00
H888   H     0.87191   0.45425   0.92999   0.00000  Uiso   1.00
H889   H     0.75850   0.34741   0.81497   0.00000  Uiso   1.00
H890   H     0.92087   0.41022   0.52495   0.00000  Uiso   1.00
H891   H     0.68344   0.52563   0.71450   0.00000  Uiso   1.00
H892   H     0.98464   0.47536   0.78614   0.00000  Uiso   1.00
H893   H     0.86764   0.33391   0.71252   0.00000  Uiso   1.00
H894   H     0.82141   0.51325   0.60135   0.00000  Uiso   1.00
H895   H     0.90808   0.42499   0.59608   0.00000  Uiso   1.00
H896   H     0.90669   0.42142   0.96496   0.00000  Uiso   1.00
H897   H     0.74070   0.58554   0.97694   0.00000  Uiso   1.00
O898   O     0.83333   0.50000   0.75000   0.00000  Uiso   1.00
O899   O     0.82360   0.45726   0.66625   0.00000  Uiso   1.00
O900   O     0.79354   0.53979   0.83749   0.00000  Uiso   1.00
O901   O     0.87755   0.50826   0.65877   0.00000  Uiso   1.00
O902   O     0.83865   0.49468   0.83749   0.00000  Uiso   1.00
O903   O     0.80417   0.65312   0.82546   0.00000  Uiso   1.00
O904   O     0.84515   0.41434   0.77820   0.00000  Uiso   1.00
O905   O     0.81247   0.59469   0.76767   0.00000  Uiso   1.00
O906   O     0.74119   0.46584   0.73607   0.00000  Uiso   1.00
O907   O     0.93452   0.52512   0.71805   0.00000  Uiso   1.00
O908   O     0.73656   0.52293   0.77820   0.00000  Uiso   1.00
O909   O     0.92106   0.48610   0.76767   0.00000  Uiso   1.00
O910   O     0.80467   0.40236   0.73607   0.00000  Uiso   1.00
O911   O     0.87104   0.58860   0.71806   0.00000  Uiso   1.00
Zn912  Zn    0.85910   0.47423   0.78277   0.00000  Uiso   1.00
Zn913  Zn    0.80125   0.45711   0.72257   0.00000  Uiso   1.00
Zn914  Zn    0.87833   0.52997   0.71188   0.00000  Uiso   1.00
Zn915  Zn    0.79465   0.53868   0.78277   0.00000  Uiso   1.00
C916   C     0.05251   0.82674   0.75888   0.00000  Uiso   1.00
C917   C     0.19792   0.79736   0.96091   0.00000  Uiso   1.00
C918   C     0.21825   0.77757   0.98111   0.00000  Uiso   1.00
C919   C     0.28099   0.84021   0.74125   0.00000  Uiso   1.00
C920   C     0.21085   0.78671   0.52136   0.00000  Uiso   1.00
C921   C     0.18184   0.81625   0.54236   0.00000  Uiso   1.00
C922   C     0.23217   0.76619   0.54088   0.00000  Uiso   1.00
C923   C     0.22507   0.77453   0.58119   0.00000  Uiso   1.00
C924   C     0.17568   0.82436   0.58317   0.00000  Uiso   1.00
C925   C     0.32701   0.84266   0.73761   0.00000  Uiso   1.00
C926   C     0.00707   0.82480   0.76257   0.00000  Uiso   1.00
C927   C     0.10597   0.89032   0.92034   0.00000  Uiso   1.00
C928   C     0.17823   0.98834   0.73833   0.00000  Uiso   1.00
C929   C     0.15162   0.68012   0.76474   0.00000  Uiso   1.00
C930   C     0.15653   0.72307   0.75874   0.00000  Uiso   1.00
C931   C     0.17660   0.94432   0.74175   0.00000  Uiso   1.00
C932   C     0.18834   0.81187   0.64427   0.00000  Uiso   1.00
C933   C     0.14549   0.85453   0.85609   0.00000  Uiso   1.00
C934   C     0.13609   0.86292   0.89894   0.00000  Uiso   1.00
C935   C     0.19688   0.80358   0.60212   0.00000  Uiso   1.00
C936   C     0.09731   0.89737   0.96093   0.00000  Uiso   1.00
C937   C     0.12378   0.67005   0.80397   0.00000  Uiso   1.00
C938   C     0.15740   0.84273   0.91852   0.00000  Uiso   1.00
C939   C     0.14862   0.84857   0.95963   0.00000  Uiso   1.00
C940   C     0.11835   0.87684   0.98067   0.00000  Uiso   1.00
C941   C     0.16918   0.82747   0.98031   0.00000  Uiso   1.00
C942   C     0.16029   0.83644   0.52184   0.00000  Uiso   1.00
C943   C     0.12989   0.86497   0.54147   0.00000  Uiso   1.00
C944   C     0.10930   0.88450   0.52122   0.00000  Uiso   1.00
H945   H     0.08612   0.90600   0.53753   0.00000  Uiso   1.00
H946   H     0.08914   0.90633   0.90575   0.00000  Uiso   1.00
H947   H     0.18109   0.82294   0.90070   0.00000  Uiso   1.00
H948   H     0.12066   0.87280   0.57273   0.00000  Uiso   1.00
H949   H     0.20524   0.78758   0.92999   0.00000  Uiso   1.00
H950   H     0.09183   0.68075   0.81497   0.00000  Uiso   1.00
H951   H     0.25420   0.74355   0.52495   0.00000  Uiso   1.00
H952   H     0.01678   0.85897   0.71450   0.00000  Uiso   1.00
H953   H     0.31797   0.80870   0.78614   0.00000  Uiso   1.00
H954   H     0.20098   0.66725   0.71252   0.00000  Uiso   1.00
H955   H     0.15474   0.84658   0.60135   0.00000  Uiso   1.00
H956   H     0.24141   0.75832   0.59608   0.00000  Uiso   1.00
H957   H     0.24002   0.75475   0.96496   0.00000  Uiso   1.00
H958   H     0.07404   0.91887   0.97694   0.00000  Uiso   1.00
O959   O     0.16667   0.83333   0.75000   0.00000  Uiso   1.00
O960   O     0.15693   0.79060   0.66625   0.00000  Uiso   1.00
O961   O     0.12687   0.87313   0.83749   0.00000  Uiso   1.00
O962   O     0.21088   0.84159   0.65877   0.00000  Uiso   1.00
O963   O     0.17198   0.82802   0.83749   0.00000  Uiso   1.00
O964   O     0.13750   0.98645   0.82546   0.00000  Uiso   1.00
O965   O     0.17849   0.74768   0.77820   0.00000  Uiso   1.00
O966   O     0.14581   0.92803   0.76767   0.00000  Uiso   1.00
O967   O     0.07452   0.79917   0.73607   0.00000  Uiso   1.00
O968   O     0.26785   0.85845   0.71805   0.00000  Uiso   1.00
O969   O     0.06990   0.85627   0.77820   0.00000  Uiso   1.00
O970   O     0.25440   0.81944   0.76767   0.00000  Uiso   1.00
O971   O     0.13800   0.73570   0.73607   0.00000  Uiso   1.00
O972   O     0.20437   0.92193   0.71806   0.00000  Uiso   1.00
Zn973  Zn    0.19244   0.80756   0.78277   0.00000  Uiso   1.00
Zn974  Zn    0.13459   0.79044   0.72257   0.00000  Uiso   1.00
Zn975  Zn    0.21166   0.86331   0.71188   0.00000  Uiso   1.00
Zn976  Zn    0.12798   0.87202   0.78277   0.00000  Uiso   1.00
C977   C     0.38584   0.82674   0.75888   0.00000  Uiso   1.00
C978   C     0.53125   0.79736   0.96091   0.00000  Uiso   1.00
C979   C     0.55159   0.77757   0.98111   0.00000  Uiso   1.00
C980   C     0.61432   0.84021   0.74125   0.00000  Uiso   1.00
C981   C     0.54418   0.78671   0.52136   0.00000  Uiso   1.00
C982   C     0.51518   0.81625   0.54236   0.00000  Uiso   1.00
C983   C     0.56550   0.76619   0.54088   0.00000  Uiso   1.00
C984   C     0.55840   0.77453   0.58119   0.00000  Uiso   1.00
C985   C     0.50901   0.82436   0.58317   0.00000  Uiso   1.00
C986   C     0.66034   0.84266   0.73761   0.00000  Uiso   1.00
C987   C     0.34040   0.82480   0.76257   0.00000  Uiso   1.00
C988   C     0.43930   0.89032   0.92034   0.00000  Uiso   1.00
C989   C     0.51156   0.98834   0.73833   0.00000  Uiso   1.00
C990   C     0.48495   0.68012   0.76474   0.00000  Uiso   1.00
C991   C     0.48987   0.72307   0.75874   0.00000  Uiso   1.00
C992   C     0.50994   0.94432   0.74175   0.00000  Uiso   1.00
C993   C     0.52167   0.81187   0.64427   0.00000  Uiso   1.00
C994   C     0.47883   0.85453   0.85609   0.00000  Uiso   1.00
C995   C     0.46943   0.86292   0.89894   0.00000  Uiso   1.00
C996   C     0.53021   0.80358   0.60212   0.00000  Uiso   1.00
C997   C     0.43064   0.89737   0.96093   0.00000  Uiso   1.00
C998   C     0.45711   0.67005   0.80397   0.00000  Uiso   1.00
C999   C     0.49074   0.84273   0.91852   0.00000  Uiso   1.00
C1000  C     0.48196   0.84857   0.95963   0.00000  Uiso   1.00
C1001  C     0.45169   0.87684   0.98067   0.00000  Uiso   1.00
C1002  C     0.50251   0.82747   0.98031   0.00000  Uiso   1.00
C1003  C     0.49363   0.83644   0.52184   0.00000  Uiso   1.00
C1004  C     0.46323   0.86497   0.54147   0.00000  Uiso   1.00
C1005  C     0.44263   0.88450   0.52122   0.00000  Uiso   1.00
H1006  H     0.41945   0.90600   0.53753   0.00000  Uiso   1.00
H1007  H     0.42248   0.90633   0.90575   0.00000  Uiso   1.00
H1008  H     0.51442   0.82294   0.90070   0.00000  Uiso   1.00
H1009  H     0.45399   0.87280   0.57273   0.00000  Uiso   1.00
H1010  H     0.53857   0.78758   0.92999   0.00000  Uiso   1.00
H1011  H     0.42517   0.68075   0.81497   0.00000  Uiso   1.00
H1012  H     0.58754   0.74355   0.52495   0.00000  Uiso   1.00
H1013  H     0.35011   0.85897   0.71450   0.00000  Uiso   1.00
H1014  H     0.65130   0.80870   0.78614   0.00000  Uiso   1.00
H1015  H     0.53431   0.66725   0.71252   0.00000  Uiso   1.00
H1016  H     0.48807   0.84658   0.60135   0.00000  Uiso   1.00
H1017  H     0.57474   0.75832   0.59608   0.00000  Uiso   1.00
H1018  H     0.57335   0.75475   0.96496   0.00000  Uiso   1.00
H1019  H     0.40737   0.91887   0.97694   0.00000  Uiso   1.00
O1020  O     0.50000   0.83333   0.75000   0.00000  Uiso   1.00
O1021  O     0.49027   0.79060   0.66625   0.00000  Uiso   1.00
O1022  O     0.46020   0.87313   0.83749   0.00000  Uiso   1.00
O1023  O     0.54421   0.84159   0.65877   0.00000  Uiso   1.00
O1024  O     0.50532   0.82802   0.83749   0.00000  Uiso   1.00
O1025  O     0.47083   0.98645   0.82546   0.00000  Uiso   1.00
O1026  O     0.51182   0.74768   0.77820   0.00000  Uiso   1.00
O1027  O     0.47914   0.92803   0.76767   0.00000  Uiso   1.00
O1028  O     0.40785   0.79917   0.73607   0.00000  Uiso   1.00
O1029  O     0.60119   0.85845   0.71805   0.00000  Uiso   1.00
O1030  O     0.40323   0.85627   0.77820   0.00000  Uiso   1.00
O1031  O     0.58773   0.81944   0.76767   0.00000  Uiso   1.00
O1032  O     0.47133   0.73570   0.73607   0.00000  Uiso   1.00
O1033  O     0.53771   0.92193   0.71806   0.00000  Uiso   1.00
Zn1034 Zn    0.52577   0.80756   0.78277   0.00000  Uiso   1.00
Zn1035 Zn    0.46792   0.79044   0.72257   0.00000  Uiso   1.00
Zn1036 Zn    0.54500   0.86331   0.71188   0.00000  Uiso   1.00
Zn1037 Zn    0.46131   0.87202   0.78277   0.00000  Uiso   1.00
C1038  C     0.71918   0.82674   0.75888   0.00000  Uiso   1.00
C1039  C     0.86458   0.79736   0.96091   0.00000  Uiso   1.00
C1040  C     0.88492   0.77757   0.98111   0.00000  Uiso   1.00
C1041  C     0.94766   0.84021   0.74125   0.00000  Uiso   1.00
C1042  C     0.87752   0.78671   0.52136   0.00000  Uiso   1.00
C1043  C     0.84851   0.81625   0.54236   0.00000  Uiso   1.00
C1044  C     0.89883   0.76619   0.54088   0.00000  Uiso   1.00
C1045  C     0.89173   0.77453   0.58119   0.00000  Uiso   1.00
C1046  C     0.84234   0.82436   0.58317   0.00000  Uiso   1.00
C1047  C     0.99368   0.84266   0.73761   0.00000  Uiso   1.00
C1048  C     0.67374   0.82480   0.76257   0.00000  Uiso   1.00
C1049  C     0.77264   0.89032   0.92034   0.00000  Uiso   1.00
C1050  C     0.84490   0.98834   0.73833   0.00000  Uiso   1.00
C1051  C     0.81828   0.68012   0.76474   0.00000  Uiso   1.00
C1052  C     0.82320   0.72307   0.75874   0.00000  Uiso   1.00
C1053  C     0.84327   0.94432   0.74175   0.00000  Uiso   1.00
C1054  C     0.85501   0.81187   0.64427   0.00000  Uiso   1.00
C1055  C     0.81216   0.85453   0.85609   0.00000  Uiso   1.00
C1056  C     0.80276   0.86292   0.89894   0.00000  Uiso   1.00
C1057  C     0.86354   0.80358   0.60212   0.00000  Uiso   1.00
C1058  C     0.76398   0.89737   0.96093   0.00000  Uiso   1.00
C1059  C     0.79045   0.67005   0.80397   0.00000  Uiso   1.00
C1060  C     0.82407   0.84273   0.91852   0.00000  Uiso   1.00
C1061  C     0.81529   0.84857   0.95963   0.00000  Uiso   1.00
C1062  C     0.78502   0.87684   0.98067   0.00000  Uiso   1.00
C1063  C     0.83585   0.82747   0.98031   0.00000  Uiso   1.00
C1064  C     0.82696   0.83644   0.52184   0.00000  Uiso   1.00
C1065  C     0.79656   0.86497   0.54147   0.00000  Uiso   1.00
C1066  C     0.77596   0.88450   0.52122   0.00000  Uiso   1.00
H1067  H     0.75279   0.90600   0.53753   0.00000  Uiso   1.00
H1068  H     0.75581   0.90633   0.90575   0.00000  Uiso   1.00
H1069  H     0.84775   0.82294   0.90070   0.00000  Uiso   1.00
H1070  H     0.78733   0.87280   0.57273   0.00000  Uiso   1.00
H1071  H     0.87191   0.78758   0.92999   0.00000  Uiso   1.00
H1072  H     0.75850   0.68075   0.81497   0.00000  Uiso   1.00
H1073  H     0.92087   0.74355   0.52495   0.00000  Uiso   1.00
H1074  H     0.68344   0.85897   0.71450   0.00000  Uiso   1.00
H1075  H     0.98464   0.80870   0.78614   0.00000  Uiso   1.00
H1076  H     0.86764   0.66725   0.71252   0.00000  Uiso   1.00
H1077  H     0.82141   0.84658   0.60135   0.00000  Uiso   1.00
H1078  H     0.90808   0.75832   0.59608   0.00000  Uiso   1.00
H1079  H     0.90669   0.75475   0.96496   0.00000  Uiso   1.00
H1080  H     0.74070   0.91887   0.97694   0.00000  Uiso   1.00
O1081  O     0.83333   0.83333   0.75000   0.00000  Uiso   1.00
O1082  O     0.82360   0.79060   0.66625   0.00000  Uiso   1.00
O1083  O     0.79354   0.87313   0.83749   0.00000  Uiso   1.00
O1084  O     0.87755   0.84159   0.65877   0.00000  Uiso   1.00
O1085  O     0.83865   0.82802   0.83749   0.00000  Uiso   1.00
O1086  O     0.80417   0.98645   0.82546   0.00000  Uiso   1.00
O1087  O     0.84515   0.74768   0.77820   0.00000  Uiso   1.00
O1088  O     0.81247   0.92803   0.76767   0.00000  Uiso   1.00
O1089  O     0.74119   0.79917   0.73607   0.00000  Uiso   1.00
O1090  O     0.93452   0.85845   0.71805   0.00000  Uiso   1.00
O1091  O     0.73656   0.85627   0.77820   0.00000  Uiso   1.00
O1092  O     0.92106   0.81944   0.76767   0.00000  Uiso   1.00
O1093  O     0.80467   0.73570   0.73607   0.00000  Uiso   1.00
O1094  O     0.87104   0.92193   0.71806   0.00000  Uiso   1.00
Zn1095 Zn    0.85910   0.80756   0.78277   0.00000  Uiso   1.00
Zn1096 Zn    0.80125   0.79044   0.72257   0.00000  Uiso   1.00
Zn1097 Zn    0.87833   0.86331   0.71188   0.00000  Uiso   1.00
Zn1098 Zn    0.79465   0.87202   0.78277   0.00000  Uiso   1.00
loop_
_geom_bond_atom_site_label_1
_geom_bond_atom_site_label_2
_geom_bond_distance
_geom_bond_site_symmetry_2
_ccdc_geom_bond_type
C1     C11     1.437   .     S
C1     O54     1.272   .     A
C1     O52     1.273   .     A
C2     C3      1.384   .     A
C2     H34     1.075   .     S
C2     C26     1.416   .     A
C3     H42     1.085   .     S
C3     C554    1.388   .     S
C4     O55     1.282   .     A
C4     O53     1.285   .     A
C4     C10     1.454   .     S
C5     C6      1.421   .     A
C5     C7      1.403   .     A
C5     C552    1.388   1_554 S
C6     C27     1.428   .     A
C6     C9      1.410   .     A
C7     H36     1.084   .     S
C7     C8      1.389   .     A
C8     C20     1.393   .     A
C8     H41     1.083   .     S
C9     C20     1.392   .     A
C9     H40     1.077   .     S
C10    C72     1.334   .     S
C10    H98     1.088   .     S
C11    C132    1.334   1_455 S
C11    H160    1.086   1_455 S
C12    H31     1.083   .     S
C12    C19     1.400   .     A
C12    C21     1.391   .     A
C13    C16     1.453   .     S
C13    C197    1.348   .     S
C13    H222    1.088   .     S
C14    C22     1.486   .     S
C14    C15     1.430   .     S
C14    C379    1.348   1_545 S
C15    O56     1.284   .     A
C15    O50     1.272   .     A
C16    O51     1.263   .     A
C16    O57     1.277   .     A
C17    O45     1.277   .     A
C17    C20     1.448   .     S
C17    O47     1.278   .     A
C18    O48     1.282   .     A
C18    O46     1.279   .     A
C18    C19     1.470   .     S
C19    C23     1.398   .     A
C21    C25     1.403   .     A
C21    H43     1.084   .     S
C22    H35     1.085   .     S
C22    O415    1.221   1_545 S
C23    C24     1.408   .     A
C23    H32     1.073   .     S
C24    C25     1.418   .     A
C24    C26     1.428   .     A
C25    C578    1.390   .     S
C26    C576    1.427   .     S
C27    C28     1.416   .     A
C27    C575    1.427   1_554 S
C28    C29     1.386   .     A
C28    H33     1.075   .     S
C29    H30     1.084   .     S
C29    C574    1.390   1_554 S
H37    C132    1.088   1_455 S
H38    C72     1.086   .     S
H39    C379    1.088   1_545 S
O44    Zn61    1.928   .     S
O44    Zn60    1.942   .     S
O44    Zn59    1.955   .     S
O44    Zn58    1.963   .     S
O45    Zn59    1.937   .     S
O46    Zn61    1.949   .     S
O47    Zn60    1.943   .     S
O48    Zn58    1.931   .     S
O49    C205    1.221   .     S
O50    Zn58    1.941   .     S
O51    Zn61    1.944   .     S
O52    Zn59    1.920   .     S
O53    Zn60    1.933   .     S
O54    Zn61    1.934   .     S
O55    Zn58    1.923   .     S
O56    Zn59    1.944   .     S
O57    Zn60    1.937   .     S
C62    C72     1.437   .     S
C62    O115    1.272   .     A
C62    O113    1.273   .     A
C63    C64     1.384   .     A
C63    H95     1.075   .     S
C63    C87     1.416   .     A
C64    H103    1.085   .     S
C64    C615    1.388   .     S
C65    O116    1.282   .     A
C65    O114    1.285   .     A
C65    C71     1.454   .     S
C66    C67     1.421   .     A
C66    C68     1.403   .     A
C66    C613    1.388   1_554 S
C67    C88     1.428   .     A
C67    C70     1.410   .     A
C68    H97     1.084   .     S
C68    C69     1.389   .     A
C69    C81     1.393   .     A
C69    H102    1.083   .     S
C70    C81     1.392   .     A
C70    H101    1.077   .     S
C71    C133    1.334   .     S
C71    H159    1.088   .     S
C73    H92     1.083   .     S
C73    C80     1.400   .     A
C73    C82     1.391   .     A
C74    C77     1.453   .     S
C74    C258    1.348   .     S
C74    H283    1.088   .     S
C75    C83     1.486   .     S
C75    C76     1.430   .     S
C75    C440    1.348   1_545 S
C76    O117    1.284   .     A
C76    O111    1.272   .     A
C77    O112    1.263   .     A
C77    O118    1.277   .     A
C78    O106    1.277   .     A
C78    C81     1.448   .     S
C78    O108    1.278   .     A
C79    O109    1.282   .     A
C79    O107    1.279   .     A
C79    C80     1.470   .     S
C80    C84     1.398   .     A
C82    C86     1.403   .     A
C82    H104    1.084   .     S
C83    H96     1.085   .     S
C83    O476    1.221   1_545 S
C84    C85     1.408   .     A
C84    H93     1.073   .     S
C85    C86     1.418   .     A
C85    C87     1.428   .     A
C86    C639    1.390   .     S
C87    C637    1.427   .     S
C88    C89     1.416   .     A
C88    C636    1.427   1_554 S
C89    C90     1.386   .     A
C89    H94     1.075   .     S
C90    H91     1.084   .     S
C90    C635    1.390   1_554 S
H99    C133    1.086   .     S
H100   C440    1.088   1_545 S
O105   Zn122   1.928   .     S
O105   Zn121   1.942   .     S
O105   Zn120   1.955   .     S
O105   Zn119   1.963   .     S
O106   Zn120   1.937   .     S
O107   Zn122   1.949   .     S
O108   Zn121   1.943   .     S
O109   Zn119   1.931   .     S
O110   C266    1.221   .     S
O111   Zn119   1.941   .     S
O112   Zn122   1.944   .     S
O113   Zn120   1.920   .     S
O114   Zn121   1.933   .     S
O115   Zn122   1.934   .     S
O116   Zn119   1.923   .     S
O117   Zn120   1.944   .     S
O118   Zn121   1.937   .     S
C123   C133    1.437   .     S
C123   O176    1.272   .     A
C123   O174    1.273   .     A
C124   C125    1.384   .     A
C124   H156    1.075   .     S
C124   C148    1.416   .     A
C125   H164    1.085   .     S
C125   C676    1.388   .     S
C126   O177    1.282   .     A
C126   O175    1.285   .     A
C126   C132    1.454   .     S
C127   C128    1.421   .     A
C127   C129    1.403   .     A
C127   C674    1.388   1_554 S
C128   C149    1.428   .     A
C128   C131    1.410   .     A
C129   H158    1.084   .     S
C129   C130    1.389   .     A
C130   C142    1.393   .     A
C130   H163    1.083   .     S
C131   C142    1.392   .     A
C131   H162    1.077   .     S
C132   C11     1.334   1_655 S
C132   H37     1.088   1_655 S
C134   H153    1.083   .     S
C134   C141    1.400   .     A
C134   C143    1.391   .     A
C135   C138    1.453   .     S
C135   C319    1.348   .     S
C135   H344    1.088   .     S
C136   C144    1.486   .     S
C136   C137    1.430   .     S
C136   C501    1.348   1_545 S
C137   O178    1.284   .     A
C137   O172    1.272   .     A
C138   O173    1.263   .     A
C138   O179    1.277   .     A
C139   O167    1.277   .     A
C139   C142    1.448   .     S
C139   O169    1.278   .     A
C140   O170    1.282   .     A
C140   O168    1.279   .     A
C140   C141    1.470   .     S
C141   C145    1.398   .     A
C143   C147    1.403   .     A
C143   H165    1.084   .     S
C144   H157    1.085   .     S
C144   O537    1.221   1_545 S
C145   C146    1.408   .     A
C145   H154    1.073   .     S
C146   C147    1.418   .     A
C146   C148    1.428   .     A
C147   C700    1.390   .     S
C148   C698    1.427   .     S
C149   C150    1.416   .     A
C149   C697    1.427   1_554 S
C150   C151    1.386   .     A
C150   H155    1.075   .     S
C151   H152    1.084   .     S
C151   C696    1.390   1_554 S
H160   C11     1.086   1_655 S
H161   C501    1.088   1_545 S
O166   Zn183   1.928   .     S
O166   Zn182   1.942   .     S
O166   Zn181   1.955   .     S
O166   Zn180   1.963   .     S
O167   Zn181   1.937   .     S
O168   Zn183   1.949   .     S
O169   Zn182   1.943   .     S
O170   Zn180   1.931   .     S
O171   C327    1.221   .     S
O172   Zn180   1.941   .     S
O173   Zn183   1.944   .     S
O174   Zn181   1.920   .     S
O175   Zn182   1.933   .     S
O176   Zn183   1.934   .     S
O177   Zn180   1.923   .     S
O178   Zn181   1.944   .     S
O179   Zn182   1.937   .     S
C184   C194    1.437   .     S
C184   O237    1.272   .     A
C184   O235    1.273   .     A
C185   C186    1.384   .     A
C185   H217    1.075   .     S
C185   C209    1.416   .     A
C186   H225    1.085   .     S
C186   C737    1.388   .     S
C187   O238    1.282   .     A
C187   O236    1.285   .     A
C187   C193    1.454   .     S
C188   C189    1.421   .     A
C188   C190    1.403   .     A
C188   C735    1.388   1_554 S
C189   C210    1.428   .     A
C189   C192    1.410   .     A
C190   H219    1.084   .     S
C190   C191    1.389   .     A
C191   C203    1.393   .     A
C191   H224    1.083   .     S
C192   C203    1.392   .     A
C192   H223    1.077   .     S
C193   C255    1.334   .     S
C193   H281    1.088   .     S
C194   C315    1.334   1_455 S
C194   H343    1.086   1_455 S
C195   H214    1.083   .     S
C195   C202    1.400   .     A
C195   C204    1.391   .     A
C196   C199    1.453   .     S
C196   C380    1.348   .     S
C196   H405    1.088   .     S
C197   C205    1.486   .     S
C197   C198    1.430   .     S
C198   O239    1.284   .     A
C198   O233    1.272   .     A
C199   O234    1.263   .     A
C199   O240    1.277   .     A
C200   O228    1.277   .     A
C200   C203    1.448   .     S
C200   O230    1.278   .     A
C201   O231    1.282   .     A
C201   O229    1.279   .     A
C201   C202    1.470   .     S
C202   C206    1.398   .     A
C204   C208    1.403   .     A
C204   H226    1.084   .     S
C205   H218    1.085   .     S
C206   C207    1.408   .     A
C206   H215    1.073   .     S
C207   C208    1.418   .     A
C207   C209    1.428   .     A
C208   C761    1.390   .     S
C209   C759    1.427   .     S
C210   C211    1.416   .     A
C210   C758    1.427   1_554 S
C211   C212    1.386   .     A
C211   H216    1.075   .     S
C212   H213    1.084   .     S
C212   C757    1.390   1_554 S
H220   C315    1.088   1_455 S
H221   C255    1.086   .     S
O227   Zn244   1.928   .     S
O227   Zn243   1.942   .     S
O227   Zn242   1.955   .     S
O227   Zn241   1.963   .     S
O228   Zn242   1.937   .     S
O229   Zn244   1.949   .     S
O230   Zn243   1.943   .     S
O231   Zn241   1.931   .     S
O232   C388    1.221   .     S
O233   Zn241   1.941   .     S
O234   Zn244   1.944   .     S
O235   Zn242   1.920   .     S
O236   Zn243   1.933   .     S
O237   Zn244   1.934   .     S
O238   Zn241   1.923   .     S
O239   Zn242   1.944   .     S
O240   Zn243   1.937   .     S
C245   C255    1.437   .     S
C245   O298    1.272   .     A
C245   O296    1.273   .     A
C246   C247    1.384   .     A
C246   H278    1.075   .     S
C246   C270    1.416   .     A
C247   H286    1.085   .     S
C247   C798    1.388   .     S
C248   O299    1.282   .     A
C248   O297    1.285   .     A
C248   C254    1.454   .     S
C249   C250    1.421   .     A
C249   C251    1.403   .     A
C249   C796    1.388   1_554 S
C250   C271    1.428   .     A
C250   C253    1.410   .     A
C251   H280    1.084   .     S
C251   C252    1.389   .     A
C252   C264    1.393   .     A
C252   H285    1.083   .     S
C253   C264    1.392   .     A
C253   H284    1.077   .     S
C254   C316    1.334   .     S
C254   H342    1.088   .     S
C256   H275    1.083   .     S
C256   C263    1.400   .     A
C256   C265    1.391   .     A
C257   C260    1.453   .     S
C257   C441    1.348   .     S
C257   H466    1.088   .     S
C258   C266    1.486   .     S
C258   C259    1.430   .     S
C259   O300    1.284   .     A
C259   O294    1.272   .     A
C260   O295    1.263   .     A
C260   O301    1.277   .     A
C261   O289    1.277   .     A
C261   C264    1.448   .     S
C261   O291    1.278   .     A
C262   O292    1.282   .     A
C262   O290    1.279   .     A
C262   C263    1.470   .     S
C263   C267    1.398   .     A
C265   C269    1.403   .     A
C265   H287    1.084   .     S
C266   H279    1.085   .     S
C267   C268    1.408   .     A
C267   H276    1.073   .     S
C268   C269    1.418   .     A
C268   C270    1.428   .     A
C269   C822    1.390   .     S
C270   C820    1.427   .     S
C271   C272    1.416   .     A
C271   C819    1.427   1_554 S
C272   C273    1.386   .     A
C272   H277    1.075   .     S
C273   H274    1.084   .     S
C273   C818    1.390   1_554 S
H282   C316    1.086   .     S
O288   Zn305   1.928   .     S
O288   Zn304   1.942   .     S
O288   Zn303   1.955   .     S
O288   Zn302   1.963   .     S
O289   Zn303   1.937   .     S
O290   Zn305   1.949   .     S
O291   Zn304   1.943   .     S
O292   Zn302   1.931   .     S
O293   C449    1.221   .     S
O294   Zn302   1.941   .     S
O295   Zn305   1.944   .     S
O296   Zn303   1.920   .     S
O297   Zn304   1.933   .     S
O298   Zn305   1.934   .     S
O299   Zn302   1.923   .     S
O300   Zn303   1.944   .     S
O301   Zn304   1.937   .     S
C306   C316    1.437   .     S
C306   O359    1.272   .     A
C306   O357    1.273   .     A
C307   C308    1.384   .     A
C307   H339    1.075   .     S
C307   C331    1.416   .     A
C308   H347    1.085   .     S
C308   C859    1.388   .     S
C309   O360    1.282   .     A
C309   O358    1.285   .     A
C309   C315    1.454   .     S
C310   C311    1.421   .     A
C310   C312    1.403   .     A
C310   C857    1.388   1_554 S
C311   C332    1.428   .     A
C311   C314    1.410   .     A
C312   H341    1.084   .     S
C312   C313    1.389   .     A
C313   C325    1.393   .     A
C313   H346    1.083   .     S
C314   C325    1.392   .     A
C314   H345    1.077   .     S
C315   C194    1.334   1_655 S
C315   H220    1.088   1_655 S
C317   H336    1.083   .     S
C317   C324    1.400   .     A
C317   C326    1.391   .     A
C318   C321    1.453   .     S
C318   C502    1.348   .     S
C318   H527    1.088   .     S
C319   C327    1.486   .     S
C319   C320    1.430   .     S
C320   O361    1.284   .     A
C320   O355    1.272   .     A
C321   O356    1.263   .     A
C321   O362    1.277   .     A
C322   O350    1.277   .     A
C322   C325    1.448   .     S
C322   O352    1.278   .     A
C323   O353    1.282   .     A
C323   O351    1.279   .     A
C323   C324    1.470   .     S
C324   C328    1.398   .     A
C326   C330    1.403   .     A
C326   H348    1.084   .     S
C327   H340    1.085   .     S
C328   C329    1.408   .     A
C328   H337    1.073   .     S
C329   C330    1.418   .     A
C329   C331    1.428   .     A
C330   C883    1.390   .     S
C331   C881    1.427   .     S
C332   C333    1.416   .     A
C332   C880    1.427   1_554 S
C333   C334    1.386   .     A
C333   H338    1.075   .     S
C334   H335    1.084   .     S
C334   C879    1.390   1_554 S
H343   C194    1.086   1_655 S
O349   Zn366   1.928   .     S
O349   Zn365   1.942   .     S
O349   Zn364   1.955   .     S
O349   Zn363   1.963   .     S
O350   Zn364   1.937   .     S
O351   Zn366   1.949   .     S
O352   Zn365   1.943   .     S
O353   Zn363   1.931   .     S
O354   C510    1.221   .     S
O355   Zn363   1.941   .     S
O356   Zn366   1.944   .     S
O357   Zn364   1.920   .     S
O358   Zn365   1.933   .     S
O359   Zn366   1.934   .     S
O360   Zn363   1.923   .     S
O361   Zn364   1.944   .     S
O362   Zn365   1.937   .     S
C367   C377    1.437   .     S
C367   O420    1.272   .     A
C367   O418    1.273   .     A
C368   C369    1.384   .     A
C368   H400    1.075   .     S
C368   C392    1.416   .     A
C369   H408    1.085   .     S
C369   C920    1.388   .     S
C370   O421    1.282   .     A
C370   O419    1.285   .     A
C370   C376    1.454   .     S
C371   C372    1.421   .     A
C371   C373    1.403   .     A
C371   C918    1.388   1_554 S
C372   C393    1.428   .     A
C372   C375    1.410   .     A
C373   H402    1.084   .     S
C373   C374    1.389   .     A
C374   C386    1.393   .     A
C374   H407    1.083   .     S
C375   C386    1.392   .     A
C375   H406    1.077   .     S
C376   C438    1.334   .     S
C376   H464    1.088   .     S
C377   C498    1.334   1_455 S
C377   H526    1.086   1_455 S
C378   H397    1.083   .     S
C378   C385    1.400   .     A
C378   C387    1.391   .     A
C379   C382    1.453   .     S
C379   C14     1.348   1_565 S
C379   H39     1.088   1_565 S
C380   C388    1.486   .     S
C380   C381    1.430   .     S
C381   O422    1.284   .     A
C381   O416    1.272   .     A
C382   O417    1.263   .     A
C382   O423    1.277   .     A
C383   O411    1.277   .     A
C383   C386    1.448   .     S
C383   O413    1.278   .     A
C384   O414    1.282   .     A
C384   O412    1.279   .     A
C384   C385    1.470   .     S
C385   C389    1.398   .     A
C387   C391    1.403   .     A
C387   H409    1.084   .     S
C388   H401    1.085   .     S
C389   C390    1.408   .     A
C389   H398    1.073   .     S
C390   C391    1.418   .     A
C390   C392    1.428   .     A
C391   C944    1.390   .     S
C392   C942    1.427   .     S
C393   C394    1.416   .     A
C393   C941    1.427   1_554 S
C394   C395    1.386   .     A
C394   H399    1.075   .     S
C395   H396    1.084   .     S
C395   C940    1.390   1_554 S
H403   C498    1.088   1_455 S
H404   C438    1.086   .     S
O410   Zn427   1.928   .     S
O410   Zn426   1.942   .     S
O410   Zn425   1.955   .     S
O410   Zn424   1.963   .     S
O411   Zn425   1.937   .     S
O412   Zn427   1.949   .     S
O413   Zn426   1.943   .     S
O414   Zn424   1.931   .     S
O415   C22     1.221   1_565 S
O416   Zn424   1.941   .     S
O417   Zn427   1.944   .     S
O418   Zn425   1.920   .     S
O419   Zn426   1.933   .     S
O420   Zn427   1.934   .     S
O421   Zn424   1.923   .     S
O422   Zn425   1.944   .     S
O423   Zn426   1.937   .     S
C428   C438    1.437   .     S
C428   O481    1.272   .     A
C428   O479    1.273   .     A
C429   C430    1.384   .     A
C429   H461    1.075   .     S
C429   C453    1.416   .     A
C430   H469    1.085   .     S
C430   C981    1.388   .     S
C431   O482    1.282   .     A
C431   O480    1.285   .     A
C431   C437    1.454   .     S
C432   C433    1.421   .     A
C432   C434    1.403   .     A
C432   C979    1.388   1_554 S
C433   C454    1.428   .     A
C433   C436    1.410   .     A
C434   H463    1.084   .     S
C434   C435    1.389   .     A
C435   C447    1.393   .     A
C435   H468    1.083   .     S
C436   C447    1.392   .     A
C436   H467    1.077   .     S
C437   C499    1.334   .     S
C437   H525    1.088   .     S
C439   H458    1.083   .     S
C439   C446    1.400   .     A
C439   C448    1.391   .     A
C440   C443    1.453   .     S
C440   C75     1.348   1_565 S
C440   H100    1.088   1_565 S
C441   C449    1.486   .     S
C441   C442    1.430   .     S
C442   O483    1.284   .     A
C442   O477    1.272   .     A
C443   O478    1.263   .     A
C443   O484    1.277   .     A
C444   O472    1.277   .     A
C444   C447    1.448   .     S
C444   O474    1.278   .     A
C445   O475    1.282   .     A
C445   O473    1.279   .     A
C445   C446    1.470   .     S
C446   C450    1.398   .     A
C448   C452    1.403   .     A
C448   H470    1.084   .     S
C449   H462    1.085   .     S
C450   C451    1.408   .     A
C450   H459    1.073   .     S
C451   C452    1.418   .     A
C451   C453    1.428   .     A
C452   C1005   1.390   .     S
C453   C1003   1.427   .     S
C454   C455    1.416   .     A
C454   C1002   1.427   1_554 S
C455   C456    1.386   .     A
C455   H460    1.075   .     S
C456   H457    1.084   .     S
C456   C1001   1.390   1_554 S
H465   C499    1.086   .     S
O471   Zn488   1.928   .     S
O471   Zn487   1.942   .     S
O471   Zn486   1.955   .     S
O471   Zn485   1.963   .     S
O472   Zn486   1.937   .     S
O473   Zn488   1.949   .     S
O474   Zn487   1.943   .     S
O475   Zn485   1.931   .     S
O476   C83     1.221   1_565 S
O477   Zn485   1.941   .     S
O478   Zn488   1.944   .     S
O479   Zn486   1.920   .     S
O480   Zn487   1.933   .     S
O481   Zn488   1.934   .     S
O482   Zn485   1.923   .     S
O483   Zn486   1.944   .     S
O484   Zn487   1.937   .     S
C489   C499    1.437   .     S
C489   O542    1.272   .     A
C489   O540    1.273   .     A
C490   C491    1.384   .     A
C490   H522    1.075   .     S
C490   C514    1.416   .     A
C491   H530    1.085   .     S
C491   C1042   1.388   .     S
C492   O543    1.282   .     A
C492   O541    1.285   .     A
C492   C498    1.454   .     S
C493   C494    1.421   .     A
C493   C495    1.403   .     A
C493   C1040   1.388   1_554 S
C494   C515    1.428   .     A
C494   C497    1.410   .     A
C495   H524    1.084   .     S
C495   C496    1.389   .     A
C496   C508    1.393   .     A
C496   H529    1.083   .     S
C497   C508    1.392   .     A
C497   H528    1.077   .     S
C498   C377    1.334   1_655 S
C498   H403    1.088   1_655 S
C500   H519    1.083   .     S
C500   C507    1.400   .     A
C500   C509    1.391   .     A
C501   C504    1.453   .     S
C501   C136    1.348   1_565 S
C501   H161    1.088   1_565 S
C502   C510    1.486   .     S
C502   C503    1.430   .     S
C503   O544    1.284   .     A
C503   O538    1.272   .     A
C504   O539    1.263   .     A
C504   O545    1.277   .     A
C505   O533    1.277   .     A
C505   C508    1.448   .     S
C505   O535    1.278   .     A
C506   O536    1.282   .     A
C506   O534    1.279   .     A
C506   C507    1.470   .     S
C507   C511    1.398   .     A
C509   C513    1.403   .     A
C509   H531    1.084   .     S
C510   H523    1.085   .     S
C511   C512    1.408   .     A
C511   H520    1.073   .     S
C512   C513    1.418   .     A
C512   C514    1.428   .     A
C513   C1066   1.390   .     S
C514   C1064   1.427   .     S
C515   C516    1.416   .     A
C515   C1063   1.427   1_554 S
C516   C517    1.386   .     A
C516   H521    1.075   .     S
C517   H518    1.084   .     S
C517   C1062   1.390   1_554 S
H526   C377    1.086   1_655 S
O532   Zn549   1.928   .     S
O532   Zn548   1.942   .     S
O532   Zn547   1.955   .     S
O532   Zn546   1.963   .     S
O533   Zn547   1.937   .     S
O534   Zn549   1.949   .     S
O535   Zn548   1.943   .     S
O536   Zn546   1.931   .     S
O537   C144    1.221   1_565 S
O538   Zn546   1.941   .     S
O539   Zn549   1.944   .     S
O540   Zn547   1.920   .     S
O541   Zn548   1.933   .     S
O542   Zn549   1.934   .     S
O543   Zn546   1.923   .     S
O544   Zn547   1.944   .     S
O545   Zn548   1.937   .     S
C550   C560    1.437   .     S
C550   O603    1.272   .     A
C550   O601    1.273   .     A
C551   C552    1.384   .     A
C551   H583    1.075   .     S
C551   C575    1.416   .     A
C552   H591    1.085   .     S
C552   C5      1.388   1_556 S
C553   O604    1.282   .     A
C553   O602    1.285   .     A
C553   C559    1.454   .     S
C554   C555    1.421   .     A
C554   C556    1.403   .     A
C555   C576    1.428   .     A
C555   C558    1.410   .     A
C556   H585    1.084   .     S
C556   C557    1.389   .     A
C557   C569    1.393   .     A
C557   H590    1.083   .     S
C558   C569    1.392   .     A
C558   H589    1.077   .     S
C559   C621    1.334   .     S
C559   H647    1.088   .     S
C560   C681    1.334   1_455 S
C560   H709    1.086   1_455 S
C561   H580    1.083   .     S
C561   C568    1.400   .     A
C561   C570    1.391   .     A
C562   C565    1.453   .     S
C562   C746    1.348   .     S
C562   H771    1.088   .     S
C563   C571    1.486   .     S
C563   C564    1.430   .     S
C563   C928    1.348   1_545 S
C564   O605    1.284   .     A
C564   O599    1.272   .     A
C565   O600    1.263   .     A
C565   O606    1.277   .     A
C566   O594    1.277   .     A
C566   C569    1.448   .     S
C566   O596    1.278   .     A
C567   O597    1.282   .     A
C567   O595    1.279   .     A
C567   C568    1.470   .     S
C568   C572    1.398   .     A
C570   C574    1.403   .     A
C570   H592    1.084   .     S
C571   H584    1.085   .     S
C571   O964    1.221   1_545 S
C572   C573    1.408   .     A
C572   H581    1.073   .     S
C573   C574    1.418   .     A
C573   C575    1.428   .     A
C574   C29     1.390   1_556 S
C575   C27     1.427   1_556 S
C576   C577    1.416   .     A
C577   C578    1.386   .     A
C577   H582    1.075   .     S
C578   H579    1.084   .     S
H586   C681    1.088   1_455 S
H587   C621    1.086   .     S
H588   C928    1.088   1_545 S
O593   Zn610   1.928   .     S
O593   Zn609   1.942   .     S
O593   Zn608   1.955   .     S
O593   Zn607   1.963   .     S
O594   Zn608   1.937   .     S
O595   Zn610   1.949   .     S
O596   Zn609   1.943   .     S
O597   Zn607   1.931   .     S
O598   C754    1.221   .     S
O599   Zn607   1.941   .     S
O600   Zn610   1.944   .     S
O601   Zn608   1.920   .     S
O602   Zn609   1.933   .     S
O603   Zn610   1.934   .     S
O604   Zn607   1.923   .     S
O605   Zn608   1.944   .     S
O606   Zn609   1.937   .     S
C611   C621    1.437   .     S
C611   O664    1.272   .     A
C611   O662    1.273   .     A
C612   C613    1.384   .     A
C612   H644    1.075   .     S
C612   C636    1.416   .     A
C613   H652    1.085   .     S
C613   C66     1.388   1_556 S
C614   O665    1.282   .     A
C614   O663    1.285   .     A
C614   C620    1.454   .     S
C615   C616    1.421   .     A
C615   C617    1.403   .     A
C616   C637    1.428   .     A
C616   C619    1.410   .     A
C617   H646    1.084   .     S
C617   C618    1.389   .     A
C618   C630    1.393   .     A
C618   H651    1.083   .     S
C619   C630    1.392   .     A
C619   H650    1.077   .     S
C620   C682    1.334   .     S
C620   H708    1.088   .     S
C622   H641    1.083   .     S
C622   C629    1.400   .     A
C622   C631    1.391   .     A
C623   C626    1.453   .     S
C623   C807    1.348   .     S
C623   H832    1.088   .     S
C624   C632    1.486   .     S
C624   C625    1.430   .     S
C624   C989    1.348   1_545 S
C625   O666    1.284   .     A
C625   O660    1.272   .     A
C626   O661    1.263   .     A
C626   O667    1.277   .     A
C627   O655    1.277   .     A
C627   C630    1.448   .     S
C627   O657    1.278   .     A
C628   O658    1.282   .     A
C628   O656    1.279   .     A
C628   C629    1.470   .     S
C629   C633    1.398   .     A
C631   C635    1.403   .     A
C631   H653    1.084   .     S
C632   H645    1.085   .     S
C632   O1025   1.221   1_545 S
C633   C634    1.408   .     A
C633   H642    1.073   .     S
C634   C635    1.418   .     A
C634   C636    1.428   .     A
C635   C90     1.390   1_556 S
C636   C88     1.427   1_556 S
C637   C638    1.416   .     A
C638   C639    1.386   .     A
C638   H643    1.075   .     S
C639   H640    1.084   .     S
H648   C682    1.086   .     S
H649   C989    1.088   1_545 S
O654   Zn671   1.928   .     S
O654   Zn670   1.942   .     S
O654   Zn669   1.955   .     S
O654   Zn668   1.963   .     S
O655   Zn669   1.937   .     S
O656   Zn671   1.949   .     S
O657   Zn670   1.943   .     S
O658   Zn668   1.931   .     S
O659   C815    1.221   .     S
O660   Zn668   1.941   .     S
O661   Zn671   1.944   .     S
O662   Zn669   1.920   .     S
O663   Zn670   1.933   .     S
O664   Zn671   1.934   .     S
O665   Zn668   1.923   .     S
O666   Zn669   1.944   .     S
O667   Zn670   1.937   .     S
C672   C682    1.437   .     S
C672   O725    1.272   .     A
C672   O723    1.273   .     A
C673   C674    1.384   .     A
C673   H705    1.075   .     S
C673   C697    1.416   .     A
C674   H713    1.085   .     S
C674   C127    1.388   1_556 S
C675   O726    1.282   .     A
C675   O724    1.285   .     A
C675   C681    1.454   .     S
C676   C677    1.421   .     A
C676   C678    1.403   .     A
C677   C698    1.428   .     A
C677   C680    1.410   .     A
C678   H707    1.084   .     S
C678   C679    1.389   .     A
C679   C691    1.393   .     A
C679   H712    1.083   .     S
C680   C691    1.392   .     A
C680   H711    1.077   .     S
C681   C560    1.334   1_655 S
C681   H586    1.088   1_655 S
C683   H702    1.083   .     S
C683   C690    1.400   .     A
C683   C692    1.391   .     A
C684   C687    1.453   .     S
C684   C868    1.348   .     S
C684   H893    1.088   .     S
C685   C693    1.486   .     S
C685   C686    1.430   .     S
C685   C1050   1.348   1_545 S
C686   O727    1.284   .     A
C686   O721    1.272   .     A
C687   O722    1.263   .     A
C687   O728    1.277   .     A
C688   O716    1.277   .     A
C688   C691    1.448   .     S
C688   O718    1.278   .     A
C689   O719    1.282   .     A
C689   O717    1.279   .     A
C689   C690    1.470   .     S
C690   C694    1.398   .     A
C692   C696    1.403   .     A
C692   H714    1.084   .     S
C693   H706    1.085   .     S
C693   O1086   1.221   1_545 S
C694   C695    1.408   .     A
C694   H703    1.073   .     S
C695   C696    1.418   .     A
C695   C697    1.428   .     A
C696   C151    1.390   1_556 S
C697   C149    1.427   1_556 S
C698   C699    1.416   .     A
C699   C700    1.386   .     A
C699   H704    1.075   .     S
C700   H701    1.084   .     S
H709   C560    1.086   1_655 S
H710   C1050   1.088   1_545 S
O715   Zn732   1.928   .     S
O715   Zn731   1.942   .     S
O715   Zn730   1.955   .     S
O715   Zn729   1.963   .     S
O716   Zn730   1.937   .     S
O717   Zn732   1.949   .     S
O718   Zn731   1.943   .     S
O719   Zn729   1.931   .     S
O720   C876    1.221   .     S
O721   Zn729   1.941   .     S
O722   Zn732   1.944   .     S
O723   Zn730   1.920   .     S
O724   Zn731   1.933   .     S
O725   Zn732   1.934   .     S
O726   Zn729   1.923   .     S
O727   Zn730   1.944   .     S
O728   Zn731   1.937   .     S
C733   C743    1.437   .     S
C733   O786    1.272   .     A
C733   O784    1.273   .     A
C734   C735    1.384   .     A
C734   H766    1.075   .     S
C734   C758    1.416   .     A
C735   H774    1.085   .     S
C735   C188    1.388   1_556 S
C736   O787    1.282   .     A
C736   O785    1.285   .     A
C736   C742    1.454   .     S
C737   C738    1.421   .     A
C737   C739    1.403   .     A
C738   C759    1.428   .     A
C738   C741    1.410   .     A
C739   H768    1.084   .     S
C739   C740    1.389   .     A
C740   C752    1.393   .     A
C740   H773    1.083   .     S
C741   C752    1.392   .     A
C741   H772    1.077   .     S
C742   C804    1.334   .     S
C742   H830    1.088   .     S
C743   C864    1.334   1_455 S
C743   H892    1.086   1_455 S
C744   H763    1.083   .     S
C744   C751    1.400   .     A
C744   C753    1.391   .     A
C745   C748    1.453   .     S
C745   C929    1.348   .     S
C745   H954    1.088   .     S
C746   C754    1.486   .     S
C746   C747    1.430   .     S
C747   O788    1.284   .     A
C747   O782    1.272   .     A
C748   O783    1.263   .     A
C748   O789    1.277   .     A
C749   O777    1.277   .     A
C749   C752    1.448   .     S
C749   O779    1.278   .     A
C750   O780    1.282   .     A
C750   O778    1.279   .     A
C750   C751    1.470   .     S
C751   C755    1.398   .     A
C753   C757    1.403   .     A
C753   H775    1.084   .     S
C754   H767    1.085   .     S
C755   C756    1.408   .     A
C755   H764    1.073   .     S
C756   C757    1.418   .     A
C756   C758    1.428   .     A
C757   C212    1.390   1_556 S
C758   C210    1.427   1_556 S
C759   C760    1.416   .     A
C760   C761    1.386   .     A
C760   H765    1.075   .     S
C761   H762    1.084   .     S
H769   C864    1.088   1_455 S
H770   C804    1.086   .     S
O776   Zn793   1.928   .     S
O776   Zn792   1.942   .     S
O776   Zn791   1.955   .     S
O776   Zn790   1.963   .     S
O777   Zn791   1.937   .     S
O778   Zn793   1.949   .     S
O779   Zn792   1.943   .     S
O780   Zn790   1.931   .     S
O781   C937    1.221   .     S
O782   Zn790   1.941   .     S
O783   Zn793   1.944   .     S
O784   Zn791   1.920   .     S
O785   Zn792   1.933   .     S
O786   Zn793   1.934   .     S
O787   Zn790   1.923   .     S
O788   Zn791   1.944   .     S
O789   Zn792   1.937   .     S
C794   C804    1.437   .     S
C794   O847    1.272   .     A
C794   O845    1.273   .     A
C795   C796    1.384   .     A
C795   H827    1.075   .     S
C795   C819    1.416   .     A
C796   H835    1.085   .     S
C796   C249    1.388   1_556 S
C797   O848    1.282   .     A
C797   O846    1.285   .     A
C797   C803    1.454   .     S
C798   C799    1.421   .     A
C798   C800    1.403   .     A
C799   C820    1.428   .     A
C799   C802    1.410   .     A
C800   H829    1.084   .     S
C800   C801    1.389   .     A
C801   C813    1.393   .     A
C801   H834    1.083   .     S
C802   C813    1.392   .     A
C802   H833    1.077   .     S
C803   C865    1.334   .     S
C803   H891    1.088   .     S
C805   H824    1.083   .     S
C805   C812    1.400   .     A
C805   C814    1.391   .     A
C806   C809    1.453   .     S
C806   C990    1.348   .     S
C806   H1015   1.088   .     S
C807   C815    1.486   .     S
C807   C808    1.430   .     S
C808   O849    1.284   .     A
C808   O843    1.272   .     A
C809   O844    1.263   .     A
C809   O850    1.277   .     A
C810   O838    1.277   .     A
C810   C813    1.448   .     S
C810   O840    1.278   .     A
C811   O841    1.282   .     A
C811   O839    1.279   .     A
C811   C812    1.470   .     S
C812   C816    1.398   .     A
C814   C818    1.403   .     A
C814   H836    1.084   .     S
C815   H828    1.085   .     S
C816   C817    1.408   .     A
C816   H825    1.073   .     S
C817   C818    1.418   .     A
C817   C819    1.428   .     A
C818   C273    1.390   1_556 S
C819   C271    1.427   1_556 S
C820   C821    1.416   .     A
C821   C822    1.386   .     A
C821   H826    1.075   .     S
C822   H823    1.084   .     S
H831   C865    1.086   .     S
O837   Zn854   1.928   .     S
O837   Zn853   1.942   .     S
O837   Zn852   1.955   .     S
O837   Zn851   1.963   .     S
O838   Zn852   1.937   .     S
O839   Zn854   1.949   .     S
O840   Zn853   1.943   .     S
O841   Zn851   1.931   .     S
O842   C998    1.221   .     S
O843   Zn851   1.941   .     S
O844   Zn854   1.944   .     S
O845   Zn852   1.920   .     S
O846   Zn853   1.933   .     S
O847   Zn854   1.934   .     S
O848   Zn851   1.923   .     S
O849   Zn852   1.944   .     S
O850   Zn853   1.937   .     S
C855   C865    1.437   .     S
C855   O908    1.272   .     A
C855   O906    1.273   .     A
C856   C857    1.384   .     A
C856   H888    1.075   .     S
C856   C880    1.416   .     A
C857   H896    1.085   .     S
C857   C310    1.388   1_556 S
C858   O909    1.282   .     A
C858   O907    1.285   .     A
C858   C864    1.454   .     S
C859   C860    1.421   .     A
C859   C861    1.403   .     A
C860   C881    1.428   .     A
C860   C863    1.410   .     A
C861   H890    1.084   .     S
C861   C862    1.389   .     A
C862   C874    1.393   .     A
C862   H895    1.083   .     S
C863   C874    1.392   .     A
C863   H894    1.077   .     S
C864   C743    1.334   1_655 S
C864   H769    1.088   1_655 S
C866   H885    1.083   .     S
C866   C873    1.400   .     A
C866   C875    1.391   .     A
C867   C870    1.453   .     S
C867   C1051   1.348   .     S
C867   H1076   1.088   .     S
C868   C876    1.486   .     S
C868   C869    1.430   .     S
C869   O910    1.284   .     A
C869   O904    1.272   .     A
C870   O905    1.263   .     A
C870   O911    1.277   .     A
C871   O899    1.277   .     A
C871   C874    1.448   .     S
C871   O901    1.278   .     A
C872   O902    1.282   .     A
C872   O900    1.279   .     A
C872   C873    1.470   .     S
C873   C877    1.398   .     A
C875   C879    1.403   .     A
C875   H897    1.084   .     S
C876   H889    1.085   .     S
C877   C878    1.408   .     A
C877   H886    1.073   .     S
C878   C879    1.418   .     A
C878   C880    1.428   .     A
C879   C334    1.390   1_556 S
C880   C332    1.427   1_556 S
C881   C882    1.416   .     A
C882   C883    1.386   .     A
C882   H887    1.075   .     S
C883   H884    1.084   .     S
H892   C743    1.086   1_655 S
O898   Zn915   1.928   .     S
O898   Zn914   1.942   .     S
O898   Zn913   1.955   .     S
O898   Zn912   1.963   .     S
O899   Zn913   1.937   .     S
O900   Zn915   1.949   .     S
O901   Zn914   1.943   .     S
O902   Zn912   1.931   .     S
O903   C1059   1.221   .     S
O904   Zn912   1.941   .     S
O905   Zn915   1.944   .     S
O906   Zn913   1.920   .     S
O907   Zn914   1.933   .     S
O908   Zn915   1.934   .     S
O909   Zn912   1.923   .     S
O910   Zn913   1.944   .     S
O911   Zn914   1.937   .     S
C916   C926    1.437   .     S
C916   O969    1.272   .     A
C916   O967    1.273   .     A
C917   C918    1.384   .     A
C917   H949    1.075   .     S
C917   C941    1.416   .     A
C918   H957    1.085   .     S
C918   C371    1.388   1_556 S
C919   O970    1.282   .     A
C919   O968    1.285   .     A
C919   C925    1.454   .     S
C920   C921    1.421   .     A
C920   C922    1.403   .     A
C921   C942    1.428   .     A
C921   C924    1.410   .     A
C922   H951    1.084   .     S
C922   C923    1.389   .     A
C923   C935    1.393   .     A
C923   H956    1.083   .     S
C924   C935    1.392   .     A
C924   H955    1.077   .     S
C925   C987    1.334   .     S
C925   H1013   1.088   .     S
C926   C1047   1.334   1_455 S
C926   H1075   1.086   1_455 S
C927   H946    1.083   .     S
C927   C934    1.400   .     A
C927   C936    1.391   .     A
C928   C931    1.453   .     S
C928   C563    1.348   1_565 S
C928   H588    1.088   1_565 S
C929   C937    1.486   .     S
C929   C930    1.430   .     S
C930   O971    1.284   .     A
C930   O965    1.272   .     A
C931   O966    1.263   .     A
C931   O972    1.277   .     A
C932   O960    1.277   .     A
C932   C935    1.448   .     S
C932   O962    1.278   .     A
C933   O963    1.282   .     A
C933   O961    1.279   .     A
C933   C934    1.470   .     S
C934   C938    1.398   .     A
C936   C940    1.403   .     A
C936   H958    1.084   .     S
C937   H950    1.085   .     S
C938   C939    1.408   .     A
C938   H947    1.073   .     S
C939   C940    1.418   .     A
C939   C941    1.428   .     A
C940   C395    1.390   1_556 S
C941   C393    1.427   1_556 S
C942   C943    1.416   .     A
C943   C944    1.386   .     A
C943   H948    1.075   .     S
C944   H945    1.084   .     S
H952   C1047   1.088   1_455 S
H953   C987    1.086   .     S
O959   Zn976   1.928   .     S
O959   Zn975   1.942   .     S
O959   Zn974   1.955   .     S
O959   Zn973   1.963   .     S
O960   Zn974   1.937   .     S
O961   Zn976   1.949   .     S
O962   Zn975   1.943   .     S
O963   Zn973   1.931   .     S
O964   C571    1.221   1_565 S
O965   Zn973   1.941   .     S
O966   Zn976   1.944   .     S
O967   Zn974   1.920   .     S
O968   Zn975   1.933   .     S
O969   Zn976   1.934   .     S
O970   Zn973   1.923   .     S
O971   Zn974   1.944   .     S
O972   Zn975   1.937   .     S
C977   C987    1.437   .     S
C977   O1030   1.272   .     A
C977   O1028   1.273   .     A
C978   C979    1.384   .     A
C978   H1010   1.075   .     S
C978   C1002   1.416   .     A
C979   H1018   1.085   .     S
C979   C432    1.388   1_556 S
C980   O1031   1.282   .     A
C980   O1029   1.285   .     A
C980   C986    1.454   .     S
C981   C982    1.421   .     A
C981   C983    1.403   .     A
C982   C1003   1.428   .     A
C982   C985    1.410   .     A
C983   H1012   1.084   .     S
C983   C984    1.389   .     A
C984   C996    1.393   .     A
C984   H1017   1.083   .     S
C985   C996    1.392   .     A
C985   H1016   1.077   .     S
C986   C1048   1.334   .     S
C986   H1074   1.088   .     S
C988   H1007   1.083   .     S
C988   C995    1.400   .     A
C988   C997    1.391   .     A
C989   C992    1.453   .     S
C989   C624    1.348   1_565 S
C989   H649    1.088   1_565 S
C990   C998    1.486   .     S
C990   C991    1.430   .     S
C991   O1032   1.284   .     A
C991   O1026   1.272   .     A
C992   O1027   1.263   .     A
C992   O1033   1.277   .     A
C993   O1021   1.277   .     A
C993   C996    1.448   .     S
C993   O1023   1.278   .     A
C994   O1024   1.282   .     A
C994   O1022   1.279   .     A
C994   C995    1.470   .     S
C995   C999    1.398   .     A
C997   C1001   1.403   .     A
C997   H1019   1.084   .     S
C998   H1011   1.085   .     S
C999   C1000   1.408   .     A
C999   H1008   1.073   .     S
C1000  C1001   1.418   .     A
C1000  C1002   1.428   .     A
C1001  C456    1.390   1_556 S
C1002  C454    1.427   1_556 S
C1003  C1004   1.416   .     A
C1004  C1005   1.386   .     A
C1004  H1009   1.075   .     S
C1005  H1006   1.084   .     S
H1014  C1048   1.086   .     S
O1020  Zn1037  1.928   .     S
O1020  Zn1036  1.942   .     S
O1020  Zn1035  1.955   .     S
O1020  Zn1034  1.963   .     S
O1021  Zn1035  1.937   .     S
O1022  Zn1037  1.949   .     S
O1023  Zn1036  1.943   .     S
O1024  Zn1034  1.931   .     S
O1025  C632    1.221   1_565 S
O1026  Zn1034  1.941   .     S
O1027  Zn1037  1.944   .     S
O1028  Zn1035  1.920   .     S
O1029  Zn1036  1.933   .     S
O1030  Zn1037  1.934   .     S
O1031  Zn1034  1.923   .     S
O1032  Zn1035  1.944   .     S
O1033  Zn1036  1.937   .     S
C1038  C1048   1.437   .     S
C1038  O1091   1.272   .     A
C1038  O1089   1.273   .     A
C1039  C1040   1.384   .     A
C1039  H1071   1.075   .     S
C1039  C1063   1.416   .     A
C1040  H1079   1.085   .     S
C1040  C493    1.388   1_556 S
C1041  O1092   1.282   .     A
C1041  O1090   1.285   .     A
C1041  C1047   1.454   .     S
C1042  C1043   1.421   .     A
C1042  C1044   1.403   .     A
C1043  C1064   1.428   .     A
C1043  C1046   1.410   .     A
C1044  H1073   1.084   .     S
C1044  C1045   1.389   .     A
C1045  C1057   1.393   .     A
C1045  H1078   1.083   .     S
C1046  C1057   1.392   .     A
C1046  H1077   1.077   .     S
C1047  C926    1.334   1_655 S
C1047  H952    1.088   1_655 S
C1049  H1068   1.083   .     S
C1049  C1056   1.400   .     A
C1049  C1058   1.391   .     A
C1050  C1053   1.453   .     S
C1050  C685    1.348   1_565 S
C1050  H710    1.088   1_565 S
C1051  C1059   1.486   .     S
C1051  C1052   1.430   .     S
C1052  O1093   1.284   .     A
C1052  O1087   1.272   .     A
C1053  O1088   1.263   .     A
C1053  O1094   1.277   .     A
C1054  O1082   1.277   .     A
C1054  C1057   1.448   .     S
C1054  O1084   1.278   .     A
C1055  O1085   1.282   .     A
C1055  O1083   1.279   .     A
C1055  C1056   1.470   .     S
C1056  C1060   1.398   .     A
C1058  C1062   1.403   .     A
C1058  H1080   1.084   .     S
C1059  H1072   1.085   .     S
C1060  C1061   1.408   .     A
C1060  H1069   1.073   .     S
C1061  C1062   1.418   .     A
C1061  C1063   1.428   .     A
C1062  C517    1.390   1_556 S
C1063  C515    1.427   1_556 S
C1064  C1065   1.416   .     A
C1065  C1066   1.386   .     A
C1065  H1070   1.075   .     S
C1066  H1067   1.084   .     S
H1075  C926    1.086   1_655 S
O1081  Zn1098  1.928   .     S
O1081  Zn1097  1.942   .     S
O1081  Zn1096  1.955   .     S
O1081  Zn1095  1.963   .     S
O1082  Zn1096  1.937   .     S
O1083  Zn1098  1.949   .     S
O1084  Zn1097  1.943   .     S
O1085  Zn1095  1.931   .     S
O1086  C693    1.221   1_565 S
O1087  Zn1095  1.941   .     S
O1088  Zn1098  1.944   .     S
O1089  Zn1096  1.920   .     S
O1090  Zn1097  1.933   .     S
O1091  Zn1098  1.934   .     S
O1092  Zn1095  1.923   .     S
O1093  Zn1096  1.944   .     S
O1094  Zn1097  1.937   .     S
