data_str_m1_o5_o17_pcu_sym.47
_audit_creation_date              2020-01-03
_audit_creation_method            'Materials Studio'
_symmetry_space_group_name_H-M    'P1'
_symmetry_Int_Tables_number       1
_symmetry_cell_setting            triclinic
loop_
_symmetry_equiv_pos_as_xyz
  x,y,z
_cell_length_a                    31.8759
_cell_length_b                    31.9407
_cell_length_c                    34.3396
_cell_angle_alpha                 89.8247
_cell_angle_beta                  89.9884
_cell_angle_gamma                 89.9798
loop_
_atom_site_label
_atom_site_type_symbol
_atom_site_fract_x
_atom_site_fract_y
_atom_site_fract_z
_atom_site_U_iso_or_equiv
_atom_site_adp_type
_atom_site_occupancy
C1     C     0.25004   0.49986   0.35574   0.00000  Uiso   1.00
C2     C     0.33005   0.41999   0.75003   0.00000  Uiso   1.00
C3     C     0.43348   0.28901   0.02040   0.00000  Uiso   1.00
C4     C     0.28922   0.06626   0.97926   0.00000  Uiso   1.00
C5     C     0.21078   0.43374   0.02073   0.00000  Uiso   1.00
C6     C     0.43343   0.28889   0.97939   0.00000  Uiso   1.00
C7     C     0.06657   0.21111   0.02062   0.00000  Uiso   1.00
C8     C     0.48741   0.13284   0.46263   0.00000  Uiso   1.00
C9     C     0.44764   0.12868   0.44535   0.00000  Uiso   1.00
C10    C     0.43519   0.09044   0.42945   0.00000  Uiso   1.00
C11    C     0.46206   0.05597   0.43119   0.00000  Uiso   1.00
C12    C     0.00131   0.05966   0.44890   0.00000  Uiso   1.00
C13    C     0.41995   0.16999   0.25002   0.00000  Uiso   1.00
C14    C     0.01416   0.09805   0.46412   0.00000  Uiso   1.00
C15    C     0.01313   0.36457   0.54470   0.00000  Uiso   1.00
C16    C     0.47857   0.38450   0.56197   0.00000  Uiso   1.00
C17    C     0.48363   0.40728   0.59635   0.00000  Uiso   1.00
C18    C     0.02290   0.40916   0.61422   0.00000  Uiso   1.00
C19    C     0.05750   0.38986   0.59681   0.00000  Uiso   1.00
C20    C     0.05301   0.36899   0.56148   0.00000  Uiso   1.00
C21    C     0.35153   0.44181   0.45701   0.00000  Uiso   1.00
C22    C     0.35306   0.39788   0.45689   0.00000  Uiso   1.00
C23    C     0.38176   0.37698   0.43307   0.00000  Uiso   1.00
C24    C     0.08004   0.33002   0.74996   0.00000  Uiso   1.00
C25    C     0.40843   0.39977   0.40865   0.00000  Uiso   1.00
C26    C     0.40711   0.44351   0.40868   0.00000  Uiso   1.00
C27    C     0.37918   0.46460   0.43317   0.00000  Uiso   1.00
C28    C     0.13445   0.01774   0.53945   0.00000  Uiso   1.00
C29    C     0.13019   0.48642   0.56838   0.00000  Uiso   1.00
C30    C     0.09290   0.48166   0.58883   0.00000  Uiso   1.00
C31    C     0.05686   0.00193   0.57619   0.00000  Uiso   1.00
C32    C     0.05923   0.02999   0.54515   0.00000  Uiso   1.00
C33    C     0.09809   0.04025   0.52912   0.00000  Uiso   1.00
C34    C     0.01844   0.36678   0.45979   0.00000  Uiso   1.00
C35    C     0.33005   0.41996   0.25000   0.00000  Uiso   1.00
C36    C     0.05581   0.37071   0.43835   0.00000  Uiso   1.00
C37    C     0.06594   0.40872   0.42038   0.00000  Uiso   1.00
C38    C     0.03925   0.44314   0.42428   0.00000  Uiso   1.00
C39    C     0.00261   0.43970   0.44633   0.00000  Uiso   1.00
C40    C     0.49195   0.40160   0.46364   0.00000  Uiso   1.00
C41    C     0.01602   0.13637   0.54549   0.00000  Uiso   1.00
C42    C     0.05782   0.13248   0.55821   0.00000  Uiso   1.00
C43    C     0.06712   0.11124   0.59281   0.00000  Uiso   1.00
C44    C     0.03490   0.09307   0.61462   0.00000  Uiso   1.00
C45    C     0.49350   0.09553   0.60150   0.00000  Uiso   1.00
C46    C     0.16995   0.08004   0.74999   0.00000  Uiso   1.00
C47    C     0.48406   0.11657   0.56672   0.00000  Uiso   1.00
C48    C     0.14708   0.05386   0.45639   0.00000  Uiso   1.00
C49    C     0.14865   0.09782   0.45545   0.00000  Uiso   1.00
C50    C     0.12241   0.12028   0.43033   0.00000  Uiso   1.00
C51    C     0.09526   0.09901   0.40533   0.00000  Uiso   1.00
C52    C     0.09366   0.05528   0.40601   0.00000  Uiso   1.00
C53    C     0.11904   0.03267   0.43182   0.00000  Uiso   1.00
C54    C     0.36246   0.48337   0.53542   0.00000  Uiso   1.00
C55    C     0.36625   0.02332   0.55243   0.00000  Uiso   1.00
C56    C     0.40506   0.03848   0.56392   0.00000  Uiso   1.00
C57    C     0.08004   0.33005   0.25000   0.00000  Uiso   1.00
C58    C     0.44103   0.01526   0.55639   0.00000  Uiso   1.00
C59    C     0.43817   0.47622   0.53878   0.00000  Uiso   1.00
C60    C     0.39894   0.45929   0.53002   0.00000  Uiso   1.00
C61    C     0.19126   0.39810   0.95879   0.00000  Uiso   1.00
C62    C     0.14898   0.40009   0.94757   0.00000  Uiso   1.00
C63    C     0.13038   0.36615   0.92859   0.00000  Uiso   1.00
C64    C     0.15386   0.33015   0.92079   0.00000  Uiso   1.00
C65    C     0.19596   0.32797   0.93205   0.00000  Uiso   1.00
C66    C     0.21467   0.36186   0.95100   0.00000  Uiso   1.00
C67    C     0.30881   0.10186   0.04121   0.00000  Uiso   1.00
C68    C     0.41996   0.16995   0.75000   0.00000  Uiso   1.00
C69    C     0.28527   0.13788   0.04952   0.00000  Uiso   1.00
C70    C     0.30400   0.17174   0.06848   0.00000  Uiso   1.00
C71    C     0.34627   0.16977   0.07922   0.00000  Uiso   1.00
C72    C     0.36988   0.13400   0.07089   0.00000  Uiso   1.00
C73    C     0.35124   0.10008   0.05191   0.00000  Uiso   1.00
C74    C     0.10216   0.19141   0.95861   0.00000  Uiso   1.00
C75    C     0.09970   0.14955   0.94657   0.00000  Uiso   1.00
C76    C     0.13366   0.13095   0.92747   0.00000  Uiso   1.00
C77    C     0.17015   0.15403   0.92035   0.00000  Uiso   1.00
C78    C     0.17279   0.19572   0.93242   0.00000  Uiso   1.00
C79    C     0.16994   0.42000   0.75002   0.00000  Uiso   1.00
C80    C     0.13889   0.21441   0.95150   0.00000  Uiso   1.00
C81    C     0.39788   0.30863   0.04142   0.00000  Uiso   1.00
C82    C     0.36120   0.28559   0.04868   0.00000  Uiso   1.00
C83    C     0.32737   0.30428   0.06787   0.00000  Uiso   1.00
C84    C     0.33002   0.34599   0.07988   0.00000  Uiso   1.00
C85    C     0.36644   0.36910   0.07258   0.00000  Uiso   1.00
C86    C     0.40034   0.35052   0.05338   0.00000  Uiso   1.00
C87    C     0.30902   0.10168   0.95806   0.00000  Uiso   1.00
C88    C     0.35101   0.09906   0.94608   0.00000  Uiso   1.00
C89    C     0.36976   0.13276   0.92666   0.00000  Uiso   1.00
C90    C     0.33005   0.08001   0.24997   0.00000  Uiso   1.00
C91    C     0.34670   0.16915   0.91917   0.00000  Uiso   1.00
C92    C     0.30489   0.17196   0.93121   0.00000  Uiso   1.00
C93    C     0.28604   0.13833   0.95061   0.00000  Uiso   1.00
C94    C     0.19092   0.39836   0.04193   0.00000  Uiso   1.00
C95    C     0.21403   0.36192   0.04990   0.00000  Uiso   1.00
C96    C     0.19514   0.32832   0.06931   0.00000  Uiso   1.00
C97    C     0.15315   0.33096   0.08085   0.00000  Uiso   1.00
C98    C     0.12996   0.36714   0.07283   0.00000  Uiso   1.00
C99    C     0.14875   0.40081   0.05341   0.00000  Uiso   1.00
C100   C     0.39783   0.30850   0.95827   0.00000  Uiso   1.00
C101   C     0.41996   0.33001   0.74997   0.00000  Uiso   1.00
C102   C     0.39948   0.35092   0.94766   0.00000  Uiso   1.00
C103   C     0.36554   0.36948   0.92841   0.00000  Uiso   1.00
C104   C     0.32988   0.34581   0.91972   0.00000  Uiso   1.00
C105   C     0.32803   0.30356   0.93038   0.00000  Uiso   1.00
C106   C     0.36191   0.28490   0.94961   0.00000  Uiso   1.00
C107   C     0.10215   0.19149   0.04176   0.00000  Uiso   1.00
C108   C     0.13799   0.21512   0.05059   0.00000  Uiso   1.00
C109   C     0.17181   0.19647   0.06992   0.00000  Uiso   1.00
C110   C     0.16996   0.15420   0.08052   0.00000  Uiso   1.00
C111   C     0.13438   0.13050   0.07164   0.00000  Uiso   1.00
C112   C     0.25030   0.00009   0.64393   0.00000  Uiso   1.00
C113   C     0.08004   0.16999   0.25003   0.00000  Uiso   1.00
C114   C     0.10051   0.14905   0.05228   0.00000  Uiso   1.00
C115   C     0.33004   0.08005   0.75000   0.00000  Uiso   1.00
C116   C     0.16996   0.41995   0.25000   0.00000  Uiso   1.00
C117   C     0.08003   0.16995   0.74999   0.00000  Uiso   1.00
C118   C     0.41996   0.33005   0.25001   0.00000  Uiso   1.00
C119   C     0.13832   0.38831   0.25000   0.00000  Uiso   1.00
C120   C     0.36169   0.11169   0.75000   0.00000  Uiso   1.00
C121   C     0.11170   0.13833   0.25005   0.00000  Uiso   1.00
C122   C     0.38830   0.36166   0.74997   0.00000  Uiso   1.00
C123   C     0.36171   0.11166   0.24996   0.00000  Uiso   1.00
C124   C    -0.00000   0.24973   0.35605   0.00000  Uiso   1.00
C125   C     0.13828   0.38836   0.75002   0.00000  Uiso   1.00
C126   C     0.38832   0.36169   0.25001   0.00000  Uiso   1.00
C127   C     0.11167   0.13830   0.74998   0.00000  Uiso   1.00
C128   C     0.13830   0.11167   0.74998   0.00000  Uiso   1.00
C129   C     0.36169   0.38832   0.25001   0.00000  Uiso   1.00
C130   C     0.11170   0.36167   0.74995   0.00000  Uiso   1.00
C131   C     0.38829   0.13834   0.25003   0.00000  Uiso   1.00
C132   C     0.36171   0.38834   0.75004   0.00000  Uiso   1.00
C133   C     0.13828   0.11165   0.24998   0.00000  Uiso   1.00
C134   C     0.38832   0.13831   0.75001   0.00000  Uiso   1.00
C135   C     0.49999   0.25048   0.64433   0.00000  Uiso   1.00
C136   C     0.11169   0.36169   0.24999   0.00000  Uiso   1.00
C137   C     0.00283   0.28768   0.41848   0.00000  Uiso   1.00
C138   C     0.00321   0.21332   0.58289   0.00000  Uiso   1.00
C139   C     0.21807   0.01962   0.41776   0.00000  Uiso   1.00
C140   C     0.28391   0.48254   0.58097   0.00000  Uiso   1.00
C141   C     0.49851   0.21188   0.41905   0.00000  Uiso   1.00
C142   C     0.49842   0.28785   0.58236   0.00000  Uiso   1.00
C143   C     0.28026   0.47679   0.41763   0.00000  Uiso   1.00
C144   C     0.21664   0.01744   0.58092   0.00000  Uiso   1.00
C145   C     0.27029   0.03194   0.91801   0.00000  Uiso   1.00
C146   C     0.49999   0.24994   0.85586   0.00000  Uiso   1.00
C147   C     0.22968   0.46808   0.08198   0.00000  Uiso   1.00
C148   C     0.46782   0.27001   0.91806   0.00000  Uiso   1.00
C149   C     0.03217   0.22998   0.08194   0.00000  Uiso   1.00
C150   C     0.22975   0.46795   0.91823   0.00000  Uiso   1.00
C151   C     0.27028   0.03203   0.08177   0.00000  Uiso   1.00
C152   C     0.03205   0.22969   0.91817   0.00000  Uiso   1.00
C153   C     0.46796   0.27032   0.08183   0.00000  Uiso   1.00
C154   C     0.00007   0.24974   0.39860   0.00000  Uiso   1.00
C155   C     0.00000   0.25057   0.60243   0.00000  Uiso   1.00
C156   C     0.24970   0.49915   0.39778   0.00000  Uiso   1.00
C157   C     0.00001   0.25006   0.14414   0.00000  Uiso   1.00
C158   C     0.25042   0.00024   0.60129   0.00000  Uiso   1.00
C159   C     0.25000   0.49995   0.89811   0.00000  Uiso   1.00
C160   C     0.25000   0.00005   0.10189   0.00000  Uiso   1.00
C161   C     0.49993   0.24984   0.89810   0.00000  Uiso   1.00
C162   C     0.00007   0.25016   0.10190   0.00000  Uiso   1.00
C163   C     0.49930   0.21131   0.46004   0.00000  Uiso   1.00
C164   C     0.00102   0.28858   0.54139   0.00000  Uiso   1.00
C165   C     0.28198   0.47803   0.45841   0.00000  Uiso   1.00
C166   C     0.21366   0.01316   0.54017   0.00000  Uiso   1.00
C167   C     0.00430   0.28859   0.45940   0.00000  Uiso   1.00
C168   C     0.25000   0.49997   0.85588   0.00000  Uiso   1.00
C169   C     0.00332   0.21230   0.54193   0.00000  Uiso   1.00
C170   C     0.21511   0.01611   0.45847   0.00000  Uiso   1.00
C171   C     0.28437   0.48276   0.54001   0.00000  Uiso   1.00
C172   C     0.22999   0.46697   0.95907   0.00000  Uiso   1.00
C173   C     0.27002   0.03302   0.04092   0.00000  Uiso   1.00
C174   C     0.03306   0.22995   0.95902   0.00000  Uiso   1.00
C175   C     0.46695   0.27005   0.04098   0.00000  Uiso   1.00
C176   C     0.27009   0.03294   0.95885   0.00000  Uiso   1.00
C177   C     0.22991   0.46706   0.04114   0.00000  Uiso   1.00
C178   C     0.46683   0.26982   0.95891   0.00000  Uiso   1.00
C179   C     0.25000   0.00003   0.14412   0.00000  Uiso   1.00
C180   C     0.03316   0.23018   0.04110   0.00000  Uiso   1.00
C181   C     0.00180   0.25008   0.48012   0.00000  Uiso   1.00
C182   C     0.00156   0.25032   0.52101   0.00000  Uiso   1.00
C183   C     0.24838   0.49678   0.47891   0.00000  Uiso   1.00
C184   C     0.24860   0.49717   0.51968   0.00000  Uiso   1.00
C185   C     0.25002   0.49998   0.97952   0.00000  Uiso   1.00
C186   C     0.24999   0.00002   0.02047   0.00000  Uiso   1.00
C187   C     0.49997   0.24994   0.97952   0.00000  Uiso   1.00
C188   C     0.00003   0.25007   0.02048   0.00000  Uiso   1.00
C189   C     0.49914   0.17297   0.48139   0.00000  Uiso   1.00
C190   C     0.16995   0.08000   0.24998   0.00000  Uiso   1.00
C191   C     0.00555   0.32668   0.52113   0.00000  Uiso   1.00
C192   C     0.31756   0.46332   0.47872   0.00000  Uiso   1.00
C193   C     0.17630   0.02380   0.51966   0.00000  Uiso   1.00
C194   C     0.00841   0.32692   0.48010   0.00000  Uiso   1.00
C195   C     0.00540   0.17395   0.52209   0.00000  Uiso   1.00
C196   C     0.17933   0.03052   0.47872   0.00000  Uiso   1.00
C197   C     0.32090   0.47117   0.51913   0.00000  Uiso   1.00
C198   C     0.21086   0.43366   0.97972   0.00000  Uiso   1.00
C199   C     0.28915   0.06633   0.02028   0.00000  Uiso   1.00
C200   C     0.06653   0.21100   0.97960   0.00000  Uiso   1.00
H201   H     0.00347   0.31637   0.40161   0.00000  Uiso   1.00
H202   H     0.21447   0.44370   0.09883   0.00000  Uiso   1.00
H203   H     0.44335   0.28517   0.90126   0.00000  Uiso   1.00
H204   H     0.05663   0.21481   0.09875   0.00000  Uiso   1.00
H205   H     0.21453   0.44356   0.90154   0.00000  Uiso   1.00
H206   H     0.28553   0.05641   0.09845   0.00000  Uiso   1.00
H207   H     0.05655   0.21459   0.90145   0.00000  Uiso   1.00
H208   H     0.44347   0.28543   0.09856   0.00000  Uiso   1.00
H209   H     0.42621   0.15499   0.44447   0.00000  Uiso   1.00
H210   H     0.40463   0.08745   0.41602   0.00000  Uiso   1.00
H211   H     0.45243   0.02648   0.41879   0.00000  Uiso   1.00
H212   H     0.00484   0.18543   0.60064   0.00000  Uiso   1.00
H213   H     0.02192   0.03287   0.45079   0.00000  Uiso   1.00
H214   H     0.04484   0.10070   0.47719   0.00000  Uiso   1.00
H215   H     0.44728   0.37934   0.55072   0.00000  Uiso   1.00
H216   H     0.45675   0.42175   0.61008   0.00000  Uiso   1.00
H217   H     0.02647   0.42534   0.64166   0.00000  Uiso   1.00
H218   H     0.08771   0.39010   0.61117   0.00000  Uiso   1.00
H219   H     0.07957   0.35207   0.54968   0.00000  Uiso   1.00
H220   H     0.33162   0.37991   0.47481   0.00000  Uiso   1.00
H221   H     0.38292   0.34311   0.43311   0.00000  Uiso   1.00
H222   H     0.43032   0.38355   0.38990   0.00000  Uiso   1.00
H223   H     0.19489   0.03627   0.40071   0.00000  Uiso   1.00
H224   H     0.42771   0.46102   0.38962   0.00000  Uiso   1.00
H225   H     0.37789   0.49847   0.43256   0.00000  Uiso   1.00
H226   H     0.15594   0.46607   0.57630   0.00000  Uiso   1.00
H227   H     0.09212   0.46193   0.61432   0.00000  Uiso   1.00
H228   H     0.02757   0.49660   0.59121   0.00000  Uiso   1.00
H229   H     0.03160   0.04635   0.53528   0.00000  Uiso   1.00
H230   H     0.09890   0.06658   0.50979   0.00000  Uiso   1.00
H231   H     0.07703   0.34440   0.43564   0.00000  Uiso   1.00
H232   H     0.09456   0.41155   0.40361   0.00000  Uiso   1.00
H233   H     0.04692   0.47243   0.41021   0.00000  Uiso   1.00
H234   H     0.31025   0.46984   0.59713   0.00000  Uiso   1.00
H235   H     0.48221   0.46638   0.44991   0.00000  Uiso   1.00
H236   H     0.46306   0.39923   0.48004   0.00000  Uiso   1.00
H237   H     0.08271   0.14892   0.54308   0.00000  Uiso   1.00
H238   H     0.09920   0.10941   0.60298   0.00000  Uiso   1.00
H239   H     0.04203   0.07702   0.64162   0.00000  Uiso   1.00
H240   H     0.46860   0.08207   0.61890   0.00000  Uiso   1.00
H241   H     0.45166   0.12154   0.55856   0.00000  Uiso   1.00
H242   H     0.17064   0.11454   0.47373   0.00000  Uiso   1.00
H243   H     0.12361   0.15414   0.42979   0.00000  Uiso   1.00
H244   H     0.07531   0.11641   0.38557   0.00000  Uiso   1.00
H245   H     0.49770   0.18298   0.40264   0.00000  Uiso   1.00
H246   H     0.07277   0.03898   0.38640   0.00000  Uiso   1.00
H247   H     0.11829   0.49879   0.43157   0.00000  Uiso   1.00
H248   H     0.33919   0.04345   0.55610   0.00000  Uiso   1.00
H249   H     0.40702   0.06872   0.57774   0.00000  Uiso   1.00
H250   H     0.47109   0.02759   0.56399   0.00000  Uiso   1.00
H251   H     0.46653   0.45937   0.53183   0.00000  Uiso   1.00
H252   H     0.39745   0.42813   0.51806   0.00000  Uiso   1.00
H253   H     0.13053   0.42779   0.95366   0.00000  Uiso   1.00
H254   H     0.09775   0.36772   0.91998   0.00000  Uiso   1.00
H255   H     0.13939   0.30392   0.90611   0.00000  Uiso   1.00
H256   H     0.49643   0.31595   0.59965   0.00000  Uiso   1.00
H257   H     0.21406   0.30001   0.92618   0.00000  Uiso   1.00
H258   H     0.24718   0.35981   0.95992   0.00000  Uiso   1.00
H259   H     0.25263   0.13977   0.04098   0.00000  Uiso   1.00
H260   H     0.28580   0.19953   0.07475   0.00000  Uiso   1.00
H261   H     0.36075   0.19598   0.09392   0.00000  Uiso   1.00
H262   H     0.40263   0.13259   0.07909   0.00000  Uiso   1.00
H263   H     0.36979   0.07256   0.04540   0.00000  Uiso   1.00
H264   H     0.07162   0.13140   0.95212   0.00000  Uiso   1.00
H265   H     0.13173   0.09864   0.91823   0.00000  Uiso   1.00
H266   H     0.19638   0.13958   0.90555   0.00000  Uiso   1.00
H267   H     0.30388   0.46080   0.40061   0.00000  Uiso   1.00
H268   H     0.20111   0.21350   0.92706   0.00000  Uiso   1.00
H269   H     0.14129   0.24661   0.96102   0.00000  Uiso   1.00
H270   H     0.35880   0.25338   0.03923   0.00000  Uiso   1.00
H271   H     0.29908   0.28647   0.07337   0.00000  Uiso   1.00
H272   H     0.30384   0.36043   0.09477   0.00000  Uiso   1.00
H273   H     0.36838   0.40142   0.08177   0.00000  Uiso   1.00
H274   H     0.42838   0.36867   0.04771   0.00000  Uiso   1.00
H275   H     0.36912   0.07103   0.95188   0.00000  Uiso   1.00
H276   H     0.40216   0.13069   0.91744   0.00000  Uiso   1.00
H277   H     0.36127   0.19518   0.90411   0.00000  Uiso   1.00
H278   H     0.19170   0.03242   0.59722   0.00000  Uiso   1.00
H279   H     0.28712   0.20022   0.92556   0.00000  Uiso   1.00
H280   H     0.25374   0.14085   0.96007   0.00000  Uiso   1.00
H281   H     0.24647   0.35953   0.04081   0.00000  Uiso   1.00
H282   H     0.21301   0.30021   0.07535   0.00000  Uiso   1.00
H283   H     0.13855   0.30496   0.09592   0.00000  Uiso   1.00
H284   H     0.09741   0.36907   0.08165   0.00000  Uiso   1.00
H285   H     0.13054   0.42867   0.04720   0.00000  Uiso   1.00
H286   H     0.42692   0.36950   0.95443   0.00000  Uiso   1.00
H287   H     0.36685   0.40222   0.92027   0.00000  Uiso   1.00
H288   H     0.30366   0.36023   0.90480   0.00000  Uiso   1.00
H289   H     0.28547   0.05633   0.90116   0.00000  Uiso   1.00
H290   H     0.30032   0.28532   0.92383   0.00000  Uiso   1.00
H291   H     0.36012   0.25227   0.95806   0.00000  Uiso   1.00
H292   H     0.13977   0.24777   0.04220   0.00000  Uiso   1.00
H293   H     0.19946   0.21474   0.07662   0.00000  Uiso   1.00
H294   H     0.19612   0.13980   0.09554   0.00000  Uiso   1.00
H295   H     0.13308   0.09775   0.07972   0.00000  Uiso   1.00
H296   H     0.07312   0.13044   0.04539   0.00000  Uiso   1.00
O297   O     0.25000  -0.00000   0.25000   0.00000  Uiso   1.00
O298   O     0.25000   0.46538   0.66251   0.00000  Uiso   1.00
O299   O     0.46539   0.25000   0.33749   0.00000  Uiso   1.00
O300   O     0.03462   0.25000   0.66251   0.00000  Uiso   1.00
O301   O     0.00000   0.21538   0.83749   0.00000  Uiso   1.00
O302   O     0.00000   0.28461   0.16251   0.00000  Uiso   1.00
O303   O     0.28462  -0.00000   0.83749   0.00000  Uiso   1.00
O304   O     0.21539  -0.00000   0.16251   0.00000  Uiso   1.00
O305   O     0.00000   0.28461   0.83749   0.00000  Uiso   1.00
O306   O     0.00000   0.21538   0.16251   0.00000  Uiso   1.00
O307   O     0.21539  -0.00000   0.83749   0.00000  Uiso   1.00
O308   O     0.25000  -0.00000   0.75000   0.00000  Uiso   1.00
O309   O     0.28462  -0.00000   0.16251   0.00000  Uiso   1.00
O310   O     0.20127   0.08332   0.27298   0.00000  Uiso   1.00
O311   O     0.29874   0.41668   0.72702   0.00000  Uiso   1.00
O312   O     0.41668   0.20126   0.27298   0.00000  Uiso   1.00
O313   O     0.08332   0.29874   0.72702   0.00000  Uiso   1.00
O314   O     0.29874   0.41668   0.27298   0.00000  Uiso   1.00
O315   O     0.20127   0.08332   0.72702   0.00000  Uiso   1.00
O316   O     0.08332   0.29874   0.27298   0.00000  Uiso   1.00
O317   O     0.41668   0.20126   0.72702   0.00000  Uiso   1.00
O318   O     0.20127   0.41668   0.72702   0.00000  Uiso   1.00
O319   O     0.00000   0.25000   0.25000   0.00000  Uiso   1.00
O320   O     0.29874   0.08332   0.27298   0.00000  Uiso   1.00
O321   O     0.41668   0.29873   0.72702   0.00000  Uiso   1.00
O322   O     0.08332   0.20127   0.27298   0.00000  Uiso   1.00
O323   O     0.29874   0.08332   0.72702   0.00000  Uiso   1.00
O324   O     0.20127   0.41668   0.27298   0.00000  Uiso   1.00
O325   O     0.08332   0.20127   0.72702   0.00000  Uiso   1.00
O326   O     0.41668   0.29873   0.27298   0.00000  Uiso   1.00
O327   O     0.45127   0.33332   0.77298   0.00000  Uiso   1.00
O328   O     0.04874   0.16668   0.22702   0.00000  Uiso   1.00
O329   O     0.16668   0.45127   0.77298   0.00000  Uiso   1.00
O330   O     0.00000   0.25000   0.75000   0.00000  Uiso   1.00
O331   O     0.33332   0.04873   0.22702   0.00000  Uiso   1.00
O332   O     0.04874   0.16668   0.77298   0.00000  Uiso   1.00
O333   O     0.45127   0.33332   0.22702   0.00000  Uiso   1.00
O334   O     0.33332   0.04873   0.77298   0.00000  Uiso   1.00
O335   O     0.16668   0.45127   0.22702   0.00000  Uiso   1.00
O336   O     0.45127   0.16668   0.22702   0.00000  Uiso   1.00
O337   O     0.04874   0.33332   0.77298   0.00000  Uiso   1.00
O338   O     0.16668   0.04873   0.22702   0.00000  Uiso   1.00
O339   O     0.33332   0.45126   0.77298   0.00000  Uiso   1.00
O340   O     0.04874   0.33332   0.22702   0.00000  Uiso   1.00
O341   O     0.25000   0.46538   0.33749   0.00000  Uiso   1.00
O342   O     0.45127   0.16668   0.77298   0.00000  Uiso   1.00
O343   O     0.33332   0.45126   0.22702   0.00000  Uiso   1.00
O344   O     0.16668   0.04873   0.77298   0.00000  Uiso   1.00
O345   O     0.25000   0.03461   0.66251   0.00000  Uiso   1.00
O346   O     0.03462   0.25000   0.33749   0.00000  Uiso   1.00
O347   O     0.46539   0.25000   0.66251   0.00000  Uiso   1.00
O348   O     0.25000   0.03461   0.33749   0.00000  Uiso   1.00
Zn349  Zn    0.20053  -0.00000   0.21730   0.00000  Uiso   1.00
Zn350  Zn    0.04948   0.25000   0.28270   0.00000  Uiso   1.00
Zn351  Zn    0.25000   0.45052   0.71730   0.00000  Uiso   1.00
Zn352  Zn    0.25000   0.04947   0.28270   0.00000  Uiso   1.00
Zn353  Zn    0.04948   0.25000   0.71730   0.00000  Uiso   1.00
Zn354  Zn    0.45053   0.25000   0.28270   0.00000  Uiso   1.00
Zn355  Zn    0.25000   0.04947   0.71730   0.00000  Uiso   1.00
Zn356  Zn    0.25000   0.45052   0.28270   0.00000  Uiso   1.00
Zn357  Zn    0.29948  -0.00000   0.78270   0.00000  Uiso   1.00
Zn358  Zn    0.00000   0.20052   0.21730   0.00000  Uiso   1.00
Zn359  Zn    0.00000   0.29947   0.78270   0.00000  Uiso   1.00
Zn360  Zn    0.29948  -0.00000   0.21730   0.00000  Uiso   1.00
Zn361  Zn    0.20053  -0.00000   0.78270   0.00000  Uiso   1.00
Zn362  Zn    0.00000   0.29947   0.21730   0.00000  Uiso   1.00
Zn363  Zn    0.00000   0.20053   0.78270   0.00000  Uiso   1.00
Zn364  Zn    0.45053   0.25000   0.71730   0.00000  Uiso   1.00
C365   C     0.75004   0.49986   0.35574   0.00000  Uiso   1.00
C366   C     0.83005   0.41999   0.75003   0.00000  Uiso   1.00
C367   C     0.93348   0.28901   0.02040   0.00000  Uiso   1.00
C368   C     0.78922   0.06626   0.97926   0.00000  Uiso   1.00
C369   C     0.71078   0.43374   0.02073   0.00000  Uiso   1.00
C370   C     0.93343   0.28889   0.97939   0.00000  Uiso   1.00
C371   C     0.56657   0.21111   0.02062   0.00000  Uiso   1.00
C372   C     0.98741   0.13284   0.46263   0.00000  Uiso   1.00
C373   C     0.94764   0.12868   0.44535   0.00000  Uiso   1.00
C374   C     0.93519   0.09044   0.42945   0.00000  Uiso   1.00
C375   C     0.96206   0.05597   0.43119   0.00000  Uiso   1.00
C376   C     0.50131   0.05966   0.44890   0.00000  Uiso   1.00
C377   C     0.91995   0.16999   0.25002   0.00000  Uiso   1.00
C378   C     0.51416   0.09805   0.46412   0.00000  Uiso   1.00
C379   C     0.51313   0.36457   0.54470   0.00000  Uiso   1.00
C380   C     0.97857   0.38450   0.56197   0.00000  Uiso   1.00
C381   C     0.98363   0.40728   0.59635   0.00000  Uiso   1.00
C382   C     0.52290   0.40916   0.61422   0.00000  Uiso   1.00
C383   C     0.55750   0.38986   0.59681   0.00000  Uiso   1.00
C384   C     0.55301   0.36899   0.56148   0.00000  Uiso   1.00
C385   C     0.85153   0.44181   0.45701   0.00000  Uiso   1.00
C386   C     0.85306   0.39788   0.45689   0.00000  Uiso   1.00
C387   C     0.88176   0.37698   0.43307   0.00000  Uiso   1.00
C388   C     0.58004   0.33002   0.74996   0.00000  Uiso   1.00
C389   C     0.90843   0.39977   0.40865   0.00000  Uiso   1.00
C390   C     0.90711   0.44351   0.40868   0.00000  Uiso   1.00
C391   C     0.87918   0.46460   0.43317   0.00000  Uiso   1.00
C392   C     0.63445   0.01774   0.53945   0.00000  Uiso   1.00
C393   C     0.63019   0.48642   0.56838   0.00000  Uiso   1.00
C394   C     0.59290   0.48166   0.58883   0.00000  Uiso   1.00
C395   C     0.55686   0.00193   0.57619   0.00000  Uiso   1.00
C396   C     0.55923   0.02999   0.54515   0.00000  Uiso   1.00
C397   C     0.59809   0.04025   0.52912   0.00000  Uiso   1.00
C398   C     0.51844   0.36678   0.45979   0.00000  Uiso   1.00
C399   C     0.83005   0.41996   0.25000   0.00000  Uiso   1.00
C400   C     0.55581   0.37071   0.43835   0.00000  Uiso   1.00
C401   C     0.56594   0.40872   0.42038   0.00000  Uiso   1.00
C402   C     0.53925   0.44314   0.42428   0.00000  Uiso   1.00
C403   C     0.50261   0.43970   0.44633   0.00000  Uiso   1.00
C404   C     0.99195   0.40160   0.46364   0.00000  Uiso   1.00
C405   C     0.51602   0.13637   0.54549   0.00000  Uiso   1.00
C406   C     0.55782   0.13248   0.55821   0.00000  Uiso   1.00
C407   C     0.56712   0.11124   0.59281   0.00000  Uiso   1.00
C408   C     0.53490   0.09307   0.61462   0.00000  Uiso   1.00
C409   C     0.99350   0.09553   0.60150   0.00000  Uiso   1.00
C410   C     0.66995   0.08004   0.74999   0.00000  Uiso   1.00
C411   C     0.98406   0.11657   0.56672   0.00000  Uiso   1.00
C412   C     0.64708   0.05386   0.45639   0.00000  Uiso   1.00
C413   C     0.64865   0.09782   0.45545   0.00000  Uiso   1.00
C414   C     0.62241   0.12028   0.43033   0.00000  Uiso   1.00
C415   C     0.59526   0.09901   0.40533   0.00000  Uiso   1.00
C416   C     0.59366   0.05528   0.40601   0.00000  Uiso   1.00
C417   C     0.61904   0.03267   0.43182   0.00000  Uiso   1.00
C418   C     0.86246   0.48337   0.53542   0.00000  Uiso   1.00
C419   C     0.86625   0.02332   0.55243   0.00000  Uiso   1.00
C420   C     0.90506   0.03848   0.56392   0.00000  Uiso   1.00
C421   C     0.58004   0.33005   0.25000   0.00000  Uiso   1.00
C422   C     0.94103   0.01526   0.55639   0.00000  Uiso   1.00
C423   C     0.93817   0.47622   0.53878   0.00000  Uiso   1.00
C424   C     0.89894   0.45929   0.53002   0.00000  Uiso   1.00
C425   C     0.69126   0.39810   0.95879   0.00000  Uiso   1.00
C426   C     0.64898   0.40009   0.94757   0.00000  Uiso   1.00
C427   C     0.63038   0.36615   0.92859   0.00000  Uiso   1.00
C428   C     0.65386   0.33015   0.92079   0.00000  Uiso   1.00
C429   C     0.69596   0.32797   0.93205   0.00000  Uiso   1.00
C430   C     0.71467   0.36186   0.95100   0.00000  Uiso   1.00
C431   C     0.80881   0.10186   0.04121   0.00000  Uiso   1.00
C432   C     0.91996   0.16995   0.75000   0.00000  Uiso   1.00
C433   C     0.78527   0.13788   0.04952   0.00000  Uiso   1.00
C434   C     0.80400   0.17174   0.06848   0.00000  Uiso   1.00
C435   C     0.84627   0.16977   0.07922   0.00000  Uiso   1.00
C436   C     0.86988   0.13400   0.07089   0.00000  Uiso   1.00
C437   C     0.85124   0.10008   0.05191   0.00000  Uiso   1.00
C438   C     0.60216   0.19141   0.95861   0.00000  Uiso   1.00
C439   C     0.59970   0.14955   0.94657   0.00000  Uiso   1.00
C440   C     0.63366   0.13095   0.92747   0.00000  Uiso   1.00
C441   C     0.67015   0.15403   0.92035   0.00000  Uiso   1.00
C442   C     0.67279   0.19572   0.93242   0.00000  Uiso   1.00
C443   C     0.66994   0.42000   0.75002   0.00000  Uiso   1.00
C444   C     0.63889   0.21441   0.95150   0.00000  Uiso   1.00
C445   C     0.89788   0.30863   0.04142   0.00000  Uiso   1.00
C446   C     0.86120   0.28559   0.04868   0.00000  Uiso   1.00
C447   C     0.82737   0.30428   0.06787   0.00000  Uiso   1.00
C448   C     0.83002   0.34599   0.07988   0.00000  Uiso   1.00
C449   C     0.86644   0.36910   0.07258   0.00000  Uiso   1.00
C450   C     0.90034   0.35052   0.05338   0.00000  Uiso   1.00
C451   C     0.80902   0.10168   0.95806   0.00000  Uiso   1.00
C452   C     0.85101   0.09906   0.94608   0.00000  Uiso   1.00
C453   C     0.86976   0.13276   0.92666   0.00000  Uiso   1.00
C454   C     0.83005   0.08001   0.24997   0.00000  Uiso   1.00
C455   C     0.84670   0.16915   0.91917   0.00000  Uiso   1.00
C456   C     0.80489   0.17196   0.93121   0.00000  Uiso   1.00
C457   C     0.78604   0.13833   0.95061   0.00000  Uiso   1.00
C458   C     0.69092   0.39836   0.04193   0.00000  Uiso   1.00
C459   C     0.71403   0.36192   0.04990   0.00000  Uiso   1.00
C460   C     0.69514   0.32832   0.06931   0.00000  Uiso   1.00
C461   C     0.65315   0.33096   0.08085   0.00000  Uiso   1.00
C462   C     0.62996   0.36714   0.07283   0.00000  Uiso   1.00
C463   C     0.64875   0.40081   0.05341   0.00000  Uiso   1.00
C464   C     0.89783   0.30850   0.95827   0.00000  Uiso   1.00
C465   C     0.91996   0.33001   0.74997   0.00000  Uiso   1.00
C466   C     0.89948   0.35092   0.94766   0.00000  Uiso   1.00
C467   C     0.86554   0.36948   0.92841   0.00000  Uiso   1.00
C468   C     0.82988   0.34581   0.91972   0.00000  Uiso   1.00
C469   C     0.82803   0.30356   0.93038   0.00000  Uiso   1.00
C470   C     0.86191   0.28490   0.94961   0.00000  Uiso   1.00
C471   C     0.60215   0.19149   0.04176   0.00000  Uiso   1.00
C472   C     0.63799   0.21512   0.05059   0.00000  Uiso   1.00
C473   C     0.67181   0.19647   0.06992   0.00000  Uiso   1.00
C474   C     0.66996   0.15420   0.08052   0.00000  Uiso   1.00
C475   C     0.63438   0.13050   0.07164   0.00000  Uiso   1.00
C476   C     0.75030   0.00009   0.64393   0.00000  Uiso   1.00
C477   C     0.58004   0.16999   0.25003   0.00000  Uiso   1.00
C478   C     0.60051   0.14905   0.05228   0.00000  Uiso   1.00
C479   C     0.83004   0.08005   0.75000   0.00000  Uiso   1.00
C480   C     0.66996   0.41995   0.25000   0.00000  Uiso   1.00
C481   C     0.58003   0.16995   0.74999   0.00000  Uiso   1.00
C482   C     0.91996   0.33005   0.25001   0.00000  Uiso   1.00
C483   C     0.63832   0.38831   0.25000   0.00000  Uiso   1.00
C484   C     0.86169   0.11169   0.75000   0.00000  Uiso   1.00
C485   C     0.61170   0.13833   0.25005   0.00000  Uiso   1.00
C486   C     0.88830   0.36166   0.74997   0.00000  Uiso   1.00
C487   C     0.86171   0.11166   0.24996   0.00000  Uiso   1.00
C488   C     0.50000   0.24973   0.35605   0.00000  Uiso   1.00
C489   C     0.63828   0.38836   0.75002   0.00000  Uiso   1.00
C490   C     0.88832   0.36169   0.25001   0.00000  Uiso   1.00
C491   C     0.61167   0.13830   0.74998   0.00000  Uiso   1.00
C492   C     0.63830   0.11167   0.74998   0.00000  Uiso   1.00
C493   C     0.86169   0.38832   0.25001   0.00000  Uiso   1.00
C494   C     0.61170   0.36167   0.74995   0.00000  Uiso   1.00
C495   C     0.88829   0.13834   0.25003   0.00000  Uiso   1.00
C496   C     0.86171   0.38834   0.75004   0.00000  Uiso   1.00
C497   C     0.63828   0.11165   0.24998   0.00000  Uiso   1.00
C498   C     0.88832   0.13831   0.75001   0.00000  Uiso   1.00
C499   C     0.99999   0.25048   0.64433   0.00000  Uiso   1.00
C500   C     0.61169   0.36169   0.24999   0.00000  Uiso   1.00
C501   C     0.50283   0.28768   0.41848   0.00000  Uiso   1.00
C502   C     0.50321   0.21332   0.58289   0.00000  Uiso   1.00
C503   C     0.71807   0.01962   0.41776   0.00000  Uiso   1.00
C504   C     0.78391   0.48254   0.58097   0.00000  Uiso   1.00
C505   C     0.99851   0.21188   0.41905   0.00000  Uiso   1.00
C506   C     0.99842   0.28785   0.58236   0.00000  Uiso   1.00
C507   C     0.78026   0.47679   0.41763   0.00000  Uiso   1.00
C508   C     0.71664   0.01744   0.58092   0.00000  Uiso   1.00
C509   C     0.77029   0.03194   0.91801   0.00000  Uiso   1.00
C510   C     0.99999   0.24994   0.85586   0.00000  Uiso   1.00
C511   C     0.72968   0.46808   0.08198   0.00000  Uiso   1.00
C512   C     0.96782   0.27001   0.91806   0.00000  Uiso   1.00
C513   C     0.53217   0.22998   0.08194   0.00000  Uiso   1.00
C514   C     0.72975   0.46795   0.91823   0.00000  Uiso   1.00
C515   C     0.77028   0.03203   0.08177   0.00000  Uiso   1.00
C516   C     0.53205   0.22969   0.91817   0.00000  Uiso   1.00
C517   C     0.96796   0.27032   0.08183   0.00000  Uiso   1.00
C518   C     0.50007   0.24974   0.39860   0.00000  Uiso   1.00
C519   C     0.50000   0.25057   0.60243   0.00000  Uiso   1.00
C520   C     0.74970   0.49915   0.39778   0.00000  Uiso   1.00
C521   C     0.50001   0.25006   0.14414   0.00000  Uiso   1.00
C522   C     0.75042   0.00024   0.60129   0.00000  Uiso   1.00
C523   C     0.75000   0.49995   0.89811   0.00000  Uiso   1.00
C524   C     0.75000   0.00005   0.10189   0.00000  Uiso   1.00
C525   C     0.99993   0.24984   0.89810   0.00000  Uiso   1.00
C526   C     0.50007   0.25016   0.10190   0.00000  Uiso   1.00
C527   C     0.99930   0.21131   0.46004   0.00000  Uiso   1.00
C528   C     0.50102   0.28858   0.54139   0.00000  Uiso   1.00
C529   C     0.78198   0.47803   0.45841   0.00000  Uiso   1.00
C530   C     0.71366   0.01316   0.54017   0.00000  Uiso   1.00
C531   C     0.50430   0.28859   0.45940   0.00000  Uiso   1.00
C532   C     0.75000   0.49997   0.85588   0.00000  Uiso   1.00
C533   C     0.50332   0.21230   0.54193   0.00000  Uiso   1.00
C534   C     0.71511   0.01611   0.45847   0.00000  Uiso   1.00
C535   C     0.78437   0.48276   0.54001   0.00000  Uiso   1.00
C536   C     0.72999   0.46697   0.95907   0.00000  Uiso   1.00
C537   C     0.77002   0.03302   0.04092   0.00000  Uiso   1.00
C538   C     0.53306   0.22995   0.95902   0.00000  Uiso   1.00
C539   C     0.96695   0.27005   0.04098   0.00000  Uiso   1.00
C540   C     0.77009   0.03294   0.95885   0.00000  Uiso   1.00
C541   C     0.72991   0.46706   0.04114   0.00000  Uiso   1.00
C542   C     0.96683   0.26982   0.95891   0.00000  Uiso   1.00
C543   C     0.75000   0.00003   0.14412   0.00000  Uiso   1.00
C544   C     0.53316   0.23018   0.04110   0.00000  Uiso   1.00
C545   C     0.50180   0.25008   0.48012   0.00000  Uiso   1.00
C546   C     0.50156   0.25032   0.52101   0.00000  Uiso   1.00
C547   C     0.74838   0.49678   0.47891   0.00000  Uiso   1.00
C548   C     0.74860   0.49717   0.51968   0.00000  Uiso   1.00
C549   C     0.75002   0.49998   0.97952   0.00000  Uiso   1.00
C550   C     0.74999   0.00002   0.02047   0.00000  Uiso   1.00
C551   C     0.99997   0.24994   0.97952   0.00000  Uiso   1.00
C552   C     0.50003   0.25007   0.02048   0.00000  Uiso   1.00
C553   C     0.99914   0.17297   0.48139   0.00000  Uiso   1.00
C554   C     0.66995   0.08000   0.24998   0.00000  Uiso   1.00
C555   C     0.50555   0.32668   0.52113   0.00000  Uiso   1.00
C556   C     0.81756   0.46332   0.47872   0.00000  Uiso   1.00
C557   C     0.67630   0.02380   0.51966   0.00000  Uiso   1.00
C558   C     0.50841   0.32692   0.48010   0.00000  Uiso   1.00
C559   C     0.50540   0.17395   0.52209   0.00000  Uiso   1.00
C560   C     0.67933   0.03052   0.47872   0.00000  Uiso   1.00
C561   C     0.82090   0.47117   0.51913   0.00000  Uiso   1.00
C562   C     0.71086   0.43366   0.97972   0.00000  Uiso   1.00
C563   C     0.78915   0.06633   0.02028   0.00000  Uiso   1.00
C564   C     0.56653   0.21100   0.97960   0.00000  Uiso   1.00
H565   H     0.50347   0.31637   0.40161   0.00000  Uiso   1.00
H566   H     0.71447   0.44370   0.09883   0.00000  Uiso   1.00
H567   H     0.94335   0.28517   0.90126   0.00000  Uiso   1.00
H568   H     0.55663   0.21481   0.09875   0.00000  Uiso   1.00
H569   H     0.71453   0.44356   0.90154   0.00000  Uiso   1.00
H570   H     0.78553   0.05641   0.09845   0.00000  Uiso   1.00
H571   H     0.55655   0.21459   0.90145   0.00000  Uiso   1.00
H572   H     0.94347   0.28543   0.09856   0.00000  Uiso   1.00
H573   H     0.92621   0.15499   0.44447   0.00000  Uiso   1.00
H574   H     0.90463   0.08745   0.41602   0.00000  Uiso   1.00
H575   H     0.95243   0.02648   0.41879   0.00000  Uiso   1.00
H576   H     0.50484   0.18543   0.60064   0.00000  Uiso   1.00
H577   H     0.52192   0.03287   0.45079   0.00000  Uiso   1.00
H578   H     0.54484   0.10070   0.47719   0.00000  Uiso   1.00
H579   H     0.94728   0.37934   0.55072   0.00000  Uiso   1.00
H580   H     0.95675   0.42175   0.61008   0.00000  Uiso   1.00
H581   H     0.52647   0.42534   0.64166   0.00000  Uiso   1.00
H582   H     0.58771   0.39010   0.61117   0.00000  Uiso   1.00
H583   H     0.57957   0.35207   0.54968   0.00000  Uiso   1.00
H584   H     0.83162   0.37991   0.47481   0.00000  Uiso   1.00
H585   H     0.88292   0.34311   0.43311   0.00000  Uiso   1.00
H586   H     0.93032   0.38355   0.38990   0.00000  Uiso   1.00
H587   H     0.69489   0.03627   0.40071   0.00000  Uiso   1.00
H588   H     0.92771   0.46102   0.38962   0.00000  Uiso   1.00
H589   H     0.87789   0.49847   0.43256   0.00000  Uiso   1.00
H590   H     0.65594   0.46607   0.57630   0.00000  Uiso   1.00
H591   H     0.59212   0.46193   0.61432   0.00000  Uiso   1.00
H592   H     0.52757   0.49660   0.59121   0.00000  Uiso   1.00
H593   H     0.53160   0.04635   0.53528   0.00000  Uiso   1.00
H594   H     0.59890   0.06658   0.50979   0.00000  Uiso   1.00
H595   H     0.57703   0.34440   0.43564   0.00000  Uiso   1.00
H596   H     0.59456   0.41155   0.40361   0.00000  Uiso   1.00
H597   H     0.54692   0.47243   0.41021   0.00000  Uiso   1.00
H598   H     0.81025   0.46984   0.59713   0.00000  Uiso   1.00
H599   H     0.98221   0.46638   0.44991   0.00000  Uiso   1.00
H600   H     0.96306   0.39923   0.48004   0.00000  Uiso   1.00
H601   H     0.58271   0.14892   0.54308   0.00000  Uiso   1.00
H602   H     0.59920   0.10941   0.60298   0.00000  Uiso   1.00
H603   H     0.54203   0.07702   0.64162   0.00000  Uiso   1.00
H604   H     0.96860   0.08207   0.61890   0.00000  Uiso   1.00
H605   H     0.95166   0.12154   0.55856   0.00000  Uiso   1.00
H606   H     0.67064   0.11454   0.47373   0.00000  Uiso   1.00
H607   H     0.62361   0.15414   0.42979   0.00000  Uiso   1.00
H608   H     0.57531   0.11641   0.38557   0.00000  Uiso   1.00
H609   H     0.99770   0.18298   0.40264   0.00000  Uiso   1.00
H610   H     0.57277   0.03898   0.38640   0.00000  Uiso   1.00
H611   H     0.61829   0.49879   0.43157   0.00000  Uiso   1.00
H612   H     0.83919   0.04345   0.55610   0.00000  Uiso   1.00
H613   H     0.90702   0.06872   0.57774   0.00000  Uiso   1.00
H614   H     0.97109   0.02759   0.56399   0.00000  Uiso   1.00
H615   H     0.96653   0.45937   0.53183   0.00000  Uiso   1.00
H616   H     0.89745   0.42813   0.51806   0.00000  Uiso   1.00
H617   H     0.63053   0.42779   0.95366   0.00000  Uiso   1.00
H618   H     0.59775   0.36772   0.91998   0.00000  Uiso   1.00
H619   H     0.63939   0.30392   0.90611   0.00000  Uiso   1.00
H620   H     0.99643   0.31595   0.59965   0.00000  Uiso   1.00
H621   H     0.71406   0.30001   0.92618   0.00000  Uiso   1.00
H622   H     0.74718   0.35981   0.95992   0.00000  Uiso   1.00
H623   H     0.75263   0.13977   0.04098   0.00000  Uiso   1.00
H624   H     0.78580   0.19953   0.07475   0.00000  Uiso   1.00
H625   H     0.86075   0.19598   0.09392   0.00000  Uiso   1.00
H626   H     0.90263   0.13259   0.07909   0.00000  Uiso   1.00
H627   H     0.86979   0.07256   0.04540   0.00000  Uiso   1.00
H628   H     0.57162   0.13140   0.95212   0.00000  Uiso   1.00
H629   H     0.63173   0.09864   0.91823   0.00000  Uiso   1.00
H630   H     0.69638   0.13958   0.90555   0.00000  Uiso   1.00
H631   H     0.80388   0.46080   0.40061   0.00000  Uiso   1.00
H632   H     0.70111   0.21350   0.92706   0.00000  Uiso   1.00
H633   H     0.64129   0.24661   0.96102   0.00000  Uiso   1.00
H634   H     0.85880   0.25338   0.03923   0.00000  Uiso   1.00
H635   H     0.79908   0.28647   0.07337   0.00000  Uiso   1.00
H636   H     0.80384   0.36043   0.09477   0.00000  Uiso   1.00
H637   H     0.86838   0.40142   0.08177   0.00000  Uiso   1.00
H638   H     0.92838   0.36867   0.04771   0.00000  Uiso   1.00
H639   H     0.86912   0.07103   0.95188   0.00000  Uiso   1.00
H640   H     0.90216   0.13069   0.91744   0.00000  Uiso   1.00
H641   H     0.86127   0.19518   0.90411   0.00000  Uiso   1.00
H642   H     0.69170   0.03242   0.59722   0.00000  Uiso   1.00
H643   H     0.78712   0.20022   0.92556   0.00000  Uiso   1.00
H644   H     0.75374   0.14085   0.96007   0.00000  Uiso   1.00
H645   H     0.74647   0.35953   0.04081   0.00000  Uiso   1.00
H646   H     0.71301   0.30021   0.07535   0.00000  Uiso   1.00
H647   H     0.63855   0.30496   0.09592   0.00000  Uiso   1.00
H648   H     0.59741   0.36907   0.08165   0.00000  Uiso   1.00
H649   H     0.63054   0.42867   0.04720   0.00000  Uiso   1.00
H650   H     0.92692   0.36950   0.95443   0.00000  Uiso   1.00
H651   H     0.86685   0.40222   0.92027   0.00000  Uiso   1.00
H652   H     0.80366   0.36023   0.90480   0.00000  Uiso   1.00
H653   H     0.78547   0.05633   0.90116   0.00000  Uiso   1.00
H654   H     0.80032   0.28532   0.92383   0.00000  Uiso   1.00
H655   H     0.86012   0.25227   0.95806   0.00000  Uiso   1.00
H656   H     0.63977   0.24777   0.04220   0.00000  Uiso   1.00
H657   H     0.69946   0.21474   0.07662   0.00000  Uiso   1.00
H658   H     0.69612   0.13980   0.09554   0.00000  Uiso   1.00
H659   H     0.63308   0.09775   0.07972   0.00000  Uiso   1.00
H660   H     0.57312   0.13044   0.04539   0.00000  Uiso   1.00
O661   O     0.75000  -0.00000   0.25000   0.00000  Uiso   1.00
O662   O     0.75000   0.46538   0.66251   0.00000  Uiso   1.00
O663   O     0.96539   0.25000   0.33749   0.00000  Uiso   1.00
O664   O     0.53462   0.25000   0.66251   0.00000  Uiso   1.00
O665   O     0.50000   0.21538   0.83749   0.00000  Uiso   1.00
O666   O     0.50000   0.28461   0.16251   0.00000  Uiso   1.00
O667   O     0.78462  -0.00000   0.83749   0.00000  Uiso   1.00
O668   O     0.71539  -0.00000   0.16251   0.00000  Uiso   1.00
O669   O     0.50000   0.28461   0.83749   0.00000  Uiso   1.00
O670   O     0.50000   0.21538   0.16251   0.00000  Uiso   1.00
O671   O     0.71539  -0.00000   0.83749   0.00000  Uiso   1.00
O672   O     0.75000  -0.00000   0.75000   0.00000  Uiso   1.00
O673   O     0.78462  -0.00000   0.16251   0.00000  Uiso   1.00
O674   O     0.70127   0.08332   0.27298   0.00000  Uiso   1.00
O675   O     0.79874   0.41668   0.72702   0.00000  Uiso   1.00
O676   O     0.91668   0.20126   0.27298   0.00000  Uiso   1.00
O677   O     0.58332   0.29874   0.72702   0.00000  Uiso   1.00
O678   O     0.79874   0.41668   0.27298   0.00000  Uiso   1.00
O679   O     0.70127   0.08332   0.72702   0.00000  Uiso   1.00
O680   O     0.58332   0.29874   0.27298   0.00000  Uiso   1.00
O681   O     0.91668   0.20126   0.72702   0.00000  Uiso   1.00
O682   O     0.70127   0.41668   0.72702   0.00000  Uiso   1.00
O683   O     0.50000   0.25000   0.25000   0.00000  Uiso   1.00
O684   O     0.79874   0.08332   0.27298   0.00000  Uiso   1.00
O685   O     0.91668   0.29873   0.72702   0.00000  Uiso   1.00
O686   O     0.58332   0.20127   0.27298   0.00000  Uiso   1.00
O687   O     0.79874   0.08332   0.72702   0.00000  Uiso   1.00
O688   O     0.70127   0.41668   0.27298   0.00000  Uiso   1.00
O689   O     0.58332   0.20127   0.72702   0.00000  Uiso   1.00
O690   O     0.91668   0.29873   0.27298   0.00000  Uiso   1.00
O691   O     0.95127   0.33332   0.77298   0.00000  Uiso   1.00
O692   O     0.54874   0.16668   0.22702   0.00000  Uiso   1.00
O693   O     0.66668   0.45127   0.77298   0.00000  Uiso   1.00
O694   O     0.50000   0.25000   0.75000   0.00000  Uiso   1.00
O695   O     0.83332   0.04873   0.22702   0.00000  Uiso   1.00
O696   O     0.54874   0.16668   0.77298   0.00000  Uiso   1.00
O697   O     0.95127   0.33332   0.22702   0.00000  Uiso   1.00
O698   O     0.83332   0.04873   0.77298   0.00000  Uiso   1.00
O699   O     0.66668   0.45127   0.22702   0.00000  Uiso   1.00
O700   O     0.95127   0.16668   0.22702   0.00000  Uiso   1.00
O701   O     0.54874   0.33332   0.77298   0.00000  Uiso   1.00
O702   O     0.66668   0.04873   0.22702   0.00000  Uiso   1.00
O703   O     0.83332   0.45126   0.77298   0.00000  Uiso   1.00
O704   O     0.54874   0.33332   0.22702   0.00000  Uiso   1.00
O705   O     0.75000   0.46538   0.33749   0.00000  Uiso   1.00
O706   O     0.95127   0.16668   0.77298   0.00000  Uiso   1.00
O707   O     0.83332   0.45126   0.22702   0.00000  Uiso   1.00
O708   O     0.66668   0.04873   0.77298   0.00000  Uiso   1.00
O709   O     0.75000   0.03461   0.66251   0.00000  Uiso   1.00
O710   O     0.53462   0.25000   0.33749   0.00000  Uiso   1.00
O711   O     0.96539   0.25000   0.66251   0.00000  Uiso   1.00
O712   O     0.75000   0.03461   0.33749   0.00000  Uiso   1.00
Zn713  Zn    0.70053  -0.00000   0.21730   0.00000  Uiso   1.00
Zn714  Zn    0.54948   0.25000   0.28270   0.00000  Uiso   1.00
Zn715  Zn    0.75000   0.45052   0.71730   0.00000  Uiso   1.00
Zn716  Zn    0.75000   0.04947   0.28270   0.00000  Uiso   1.00
Zn717  Zn    0.54948   0.25000   0.71730   0.00000  Uiso   1.00
Zn718  Zn    0.95053   0.25000   0.28270   0.00000  Uiso   1.00
Zn719  Zn    0.75000   0.04947   0.71730   0.00000  Uiso   1.00
Zn720  Zn    0.75000   0.45052   0.28270   0.00000  Uiso   1.00
Zn721  Zn    0.79948  -0.00000   0.78270   0.00000  Uiso   1.00
Zn722  Zn    0.50000   0.20052   0.21730   0.00000  Uiso   1.00
Zn723  Zn    0.50000   0.29947   0.78270   0.00000  Uiso   1.00
Zn724  Zn    0.79948  -0.00000   0.21730   0.00000  Uiso   1.00
Zn725  Zn    0.70053  -0.00000   0.78270   0.00000  Uiso   1.00
Zn726  Zn    0.50000   0.29947   0.21730   0.00000  Uiso   1.00
Zn727  Zn    0.50000   0.20053   0.78270   0.00000  Uiso   1.00
Zn728  Zn    0.95053   0.25000   0.71730   0.00000  Uiso   1.00
C729   C     0.25004   0.99986   0.35574   0.00000  Uiso   1.00
C730   C     0.33005   0.91999   0.75003   0.00000  Uiso   1.00
C731   C     0.43348   0.78901   0.02040   0.00000  Uiso   1.00
C732   C     0.28922   0.56626   0.97926   0.00000  Uiso   1.00
C733   C     0.21078   0.93374   0.02073   0.00000  Uiso   1.00
C734   C     0.43343   0.78889   0.97939   0.00000  Uiso   1.00
C735   C     0.06657   0.71111   0.02062   0.00000  Uiso   1.00
C736   C     0.48741   0.63284   0.46263   0.00000  Uiso   1.00
C737   C     0.44764   0.62868   0.44535   0.00000  Uiso   1.00
C738   C     0.43519   0.59044   0.42945   0.00000  Uiso   1.00
C739   C     0.46206   0.55597   0.43119   0.00000  Uiso   1.00
C740   C     0.00131   0.55966   0.44890   0.00000  Uiso   1.00
C741   C     0.41995   0.66999   0.25002   0.00000  Uiso   1.00
C742   C     0.01416   0.59805   0.46412   0.00000  Uiso   1.00
C743   C     0.01313   0.86457   0.54470   0.00000  Uiso   1.00
C744   C     0.47857   0.88450   0.56197   0.00000  Uiso   1.00
C745   C     0.48363   0.90728   0.59635   0.00000  Uiso   1.00
C746   C     0.02290   0.90916   0.61422   0.00000  Uiso   1.00
C747   C     0.05750   0.88986   0.59681   0.00000  Uiso   1.00
C748   C     0.05301   0.86899   0.56148   0.00000  Uiso   1.00
C749   C     0.35153   0.94181   0.45701   0.00000  Uiso   1.00
C750   C     0.35306   0.89788   0.45689   0.00000  Uiso   1.00
C751   C     0.38176   0.87698   0.43307   0.00000  Uiso   1.00
C752   C     0.08004   0.83002   0.74996   0.00000  Uiso   1.00
C753   C     0.40843   0.89977   0.40865   0.00000  Uiso   1.00
C754   C     0.40711   0.94351   0.40868   0.00000  Uiso   1.00
C755   C     0.37918   0.96460   0.43317   0.00000  Uiso   1.00
C756   C     0.13445   0.51774   0.53945   0.00000  Uiso   1.00
C757   C     0.13019   0.98642   0.56838   0.00000  Uiso   1.00
C758   C     0.09290   0.98166   0.58883   0.00000  Uiso   1.00
C759   C     0.05686   0.50193   0.57619   0.00000  Uiso   1.00
C760   C     0.05923   0.52999   0.54515   0.00000  Uiso   1.00
C761   C     0.09809   0.54025   0.52912   0.00000  Uiso   1.00
C762   C     0.01844   0.86678   0.45979   0.00000  Uiso   1.00
C763   C     0.33005   0.91996   0.25000   0.00000  Uiso   1.00
C764   C     0.05581   0.87071   0.43835   0.00000  Uiso   1.00
C765   C     0.06594   0.90872   0.42038   0.00000  Uiso   1.00
C766   C     0.03925   0.94314   0.42428   0.00000  Uiso   1.00
C767   C     0.00261   0.93970   0.44633   0.00000  Uiso   1.00
C768   C     0.49195   0.90160   0.46364   0.00000  Uiso   1.00
C769   C     0.01602   0.63637   0.54549   0.00000  Uiso   1.00
C770   C     0.05782   0.63248   0.55821   0.00000  Uiso   1.00
C771   C     0.06712   0.61124   0.59281   0.00000  Uiso   1.00
C772   C     0.03490   0.59307   0.61462   0.00000  Uiso   1.00
C773   C     0.49350   0.59553   0.60150   0.00000  Uiso   1.00
C774   C     0.16995   0.58004   0.74999   0.00000  Uiso   1.00
C775   C     0.48406   0.61657   0.56672   0.00000  Uiso   1.00
C776   C     0.14708   0.55386   0.45639   0.00000  Uiso   1.00
C777   C     0.14865   0.59782   0.45545   0.00000  Uiso   1.00
C778   C     0.12241   0.62028   0.43033   0.00000  Uiso   1.00
C779   C     0.09526   0.59901   0.40533   0.00000  Uiso   1.00
C780   C     0.09366   0.55528   0.40601   0.00000  Uiso   1.00
C781   C     0.11904   0.53267   0.43182   0.00000  Uiso   1.00
C782   C     0.36246   0.98337   0.53542   0.00000  Uiso   1.00
C783   C     0.36625   0.52332   0.55243   0.00000  Uiso   1.00
C784   C     0.40506   0.53848   0.56392   0.00000  Uiso   1.00
C785   C     0.08004   0.83005   0.25000   0.00000  Uiso   1.00
C786   C     0.44103   0.51526   0.55639   0.00000  Uiso   1.00
C787   C     0.43817   0.97622   0.53878   0.00000  Uiso   1.00
C788   C     0.39894   0.95929   0.53002   0.00000  Uiso   1.00
C789   C     0.19126   0.89810   0.95879   0.00000  Uiso   1.00
C790   C     0.14898   0.90009   0.94757   0.00000  Uiso   1.00
C791   C     0.13038   0.86615   0.92859   0.00000  Uiso   1.00
C792   C     0.15386   0.83015   0.92079   0.00000  Uiso   1.00
C793   C     0.19596   0.82797   0.93205   0.00000  Uiso   1.00
C794   C     0.21467   0.86186   0.95100   0.00000  Uiso   1.00
C795   C     0.30881   0.60186   0.04121   0.00000  Uiso   1.00
C796   C     0.41996   0.66995   0.75000   0.00000  Uiso   1.00
C797   C     0.28527   0.63788   0.04952   0.00000  Uiso   1.00
C798   C     0.30400   0.67174   0.06848   0.00000  Uiso   1.00
C799   C     0.34627   0.66977   0.07922   0.00000  Uiso   1.00
C800   C     0.36988   0.63400   0.07089   0.00000  Uiso   1.00
C801   C     0.35124   0.60008   0.05191   0.00000  Uiso   1.00
C802   C     0.10216   0.69141   0.95861   0.00000  Uiso   1.00
C803   C     0.09970   0.64955   0.94657   0.00000  Uiso   1.00
C804   C     0.13366   0.63095   0.92747   0.00000  Uiso   1.00
C805   C     0.17015   0.65403   0.92035   0.00000  Uiso   1.00
C806   C     0.17279   0.69572   0.93242   0.00000  Uiso   1.00
C807   C     0.16994   0.92000   0.75002   0.00000  Uiso   1.00
C808   C     0.13889   0.71441   0.95150   0.00000  Uiso   1.00
C809   C     0.39788   0.80863   0.04142   0.00000  Uiso   1.00
C810   C     0.36120   0.78559   0.04868   0.00000  Uiso   1.00
C811   C     0.32737   0.80428   0.06787   0.00000  Uiso   1.00
C812   C     0.33002   0.84599   0.07988   0.00000  Uiso   1.00
C813   C     0.36644   0.86910   0.07258   0.00000  Uiso   1.00
C814   C     0.40034   0.85052   0.05338   0.00000  Uiso   1.00
C815   C     0.30902   0.60168   0.95806   0.00000  Uiso   1.00
C816   C     0.35101   0.59906   0.94608   0.00000  Uiso   1.00
C817   C     0.36976   0.63276   0.92666   0.00000  Uiso   1.00
C818   C     0.33005   0.58001   0.24997   0.00000  Uiso   1.00
C819   C     0.34670   0.66915   0.91917   0.00000  Uiso   1.00
C820   C     0.30489   0.67196   0.93121   0.00000  Uiso   1.00
C821   C     0.28604   0.63833   0.95061   0.00000  Uiso   1.00
C822   C     0.19092   0.89836   0.04193   0.00000  Uiso   1.00
C823   C     0.21403   0.86192   0.04990   0.00000  Uiso   1.00
C824   C     0.19514   0.82832   0.06931   0.00000  Uiso   1.00
C825   C     0.15315   0.83096   0.08085   0.00000  Uiso   1.00
C826   C     0.12996   0.86714   0.07283   0.00000  Uiso   1.00
C827   C     0.14875   0.90081   0.05341   0.00000  Uiso   1.00
C828   C     0.39783   0.80850   0.95827   0.00000  Uiso   1.00
C829   C     0.41996   0.83001   0.74997   0.00000  Uiso   1.00
C830   C     0.39948   0.85092   0.94766   0.00000  Uiso   1.00
C831   C     0.36554   0.86948   0.92841   0.00000  Uiso   1.00
C832   C     0.32988   0.84581   0.91972   0.00000  Uiso   1.00
C833   C     0.32803   0.80356   0.93038   0.00000  Uiso   1.00
C834   C     0.36191   0.78490   0.94961   0.00000  Uiso   1.00
C835   C     0.10215   0.69149   0.04176   0.00000  Uiso   1.00
C836   C     0.13799   0.71512   0.05059   0.00000  Uiso   1.00
C837   C     0.17181   0.69647   0.06992   0.00000  Uiso   1.00
C838   C     0.16996   0.65420   0.08052   0.00000  Uiso   1.00
C839   C     0.13438   0.63050   0.07164   0.00000  Uiso   1.00
C840   C     0.25030   0.50009   0.64393   0.00000  Uiso   1.00
C841   C     0.08004   0.66999   0.25003   0.00000  Uiso   1.00
C842   C     0.10051   0.64905   0.05228   0.00000  Uiso   1.00
C843   C     0.33004   0.58005   0.75000   0.00000  Uiso   1.00
C844   C     0.16996   0.91995   0.25000   0.00000  Uiso   1.00
C845   C     0.08003   0.66995   0.74999   0.00000  Uiso   1.00
C846   C     0.41996   0.83005   0.25001   0.00000  Uiso   1.00
C847   C     0.13832   0.88831   0.25000   0.00000  Uiso   1.00
C848   C     0.36169   0.61169   0.75000   0.00000  Uiso   1.00
C849   C     0.11170   0.63833   0.25005   0.00000  Uiso   1.00
C850   C     0.38830   0.86166   0.74997   0.00000  Uiso   1.00
C851   C     0.36171   0.61166   0.24996   0.00000  Uiso   1.00
C852   C    -0.00000   0.74973   0.35605   0.00000  Uiso   1.00
C853   C     0.13828   0.88836   0.75002   0.00000  Uiso   1.00
C854   C     0.38832   0.86169   0.25001   0.00000  Uiso   1.00
C855   C     0.11167   0.63830   0.74998   0.00000  Uiso   1.00
C856   C     0.13830   0.61167   0.74998   0.00000  Uiso   1.00
C857   C     0.36169   0.88832   0.25001   0.00000  Uiso   1.00
C858   C     0.11170   0.86167   0.74995   0.00000  Uiso   1.00
C859   C     0.38829   0.63834   0.25003   0.00000  Uiso   1.00
C860   C     0.36171   0.88834   0.75004   0.00000  Uiso   1.00
C861   C     0.13828   0.61165   0.24998   0.00000  Uiso   1.00
C862   C     0.38832   0.63831   0.75001   0.00000  Uiso   1.00
C863   C     0.49999   0.75048   0.64433   0.00000  Uiso   1.00
C864   C     0.11169   0.86169   0.24999   0.00000  Uiso   1.00
C865   C     0.00283   0.78768   0.41848   0.00000  Uiso   1.00
C866   C     0.00321   0.71332   0.58289   0.00000  Uiso   1.00
C867   C     0.21807   0.51962   0.41776   0.00000  Uiso   1.00
C868   C     0.28391   0.98254   0.58097   0.00000  Uiso   1.00
C869   C     0.49851   0.71188   0.41905   0.00000  Uiso   1.00
C870   C     0.49842   0.78785   0.58236   0.00000  Uiso   1.00
C871   C     0.28026   0.97679   0.41763   0.00000  Uiso   1.00
C872   C     0.21664   0.51744   0.58092   0.00000  Uiso   1.00
C873   C     0.27029   0.53194   0.91801   0.00000  Uiso   1.00
C874   C     0.49999   0.74994   0.85586   0.00000  Uiso   1.00
C875   C     0.22968   0.96808   0.08198   0.00000  Uiso   1.00
C876   C     0.46782   0.77001   0.91806   0.00000  Uiso   1.00
C877   C     0.03217   0.72998   0.08194   0.00000  Uiso   1.00
C878   C     0.22975   0.96795   0.91823   0.00000  Uiso   1.00
C879   C     0.27028   0.53203   0.08177   0.00000  Uiso   1.00
C880   C     0.03205   0.72969   0.91817   0.00000  Uiso   1.00
C881   C     0.46796   0.77032   0.08183   0.00000  Uiso   1.00
C882   C     0.00007   0.74974   0.39860   0.00000  Uiso   1.00
C883   C     0.00000   0.75057   0.60243   0.00000  Uiso   1.00
C884   C     0.24970   0.99915   0.39778   0.00000  Uiso   1.00
C885   C     0.00001   0.75006   0.14414   0.00000  Uiso   1.00
C886   C     0.25042   0.50024   0.60129   0.00000  Uiso   1.00
C887   C     0.25000   0.99995   0.89811   0.00000  Uiso   1.00
C888   C     0.25000   0.50005   0.10189   0.00000  Uiso   1.00
C889   C     0.49993   0.74984   0.89810   0.00000  Uiso   1.00
C890   C     0.00007   0.75016   0.10190   0.00000  Uiso   1.00
C891   C     0.49930   0.71131   0.46004   0.00000  Uiso   1.00
C892   C     0.00102   0.78858   0.54139   0.00000  Uiso   1.00
C893   C     0.28198   0.97803   0.45841   0.00000  Uiso   1.00
C894   C     0.21366   0.51316   0.54017   0.00000  Uiso   1.00
C895   C     0.00430   0.78859   0.45940   0.00000  Uiso   1.00
C896   C     0.25000   0.99997   0.85588   0.00000  Uiso   1.00
C897   C     0.00332   0.71230   0.54193   0.00000  Uiso   1.00
C898   C     0.21511   0.51611   0.45847   0.00000  Uiso   1.00
C899   C     0.28437   0.98276   0.54001   0.00000  Uiso   1.00
C900   C     0.22999   0.96697   0.95907   0.00000  Uiso   1.00
C901   C     0.27002   0.53302   0.04092   0.00000  Uiso   1.00
C902   C     0.03306   0.72995   0.95902   0.00000  Uiso   1.00
C903   C     0.46695   0.77005   0.04098   0.00000  Uiso   1.00
C904   C     0.27009   0.53294   0.95885   0.00000  Uiso   1.00
C905   C     0.22991   0.96706   0.04114   0.00000  Uiso   1.00
C906   C     0.46683   0.76982   0.95891   0.00000  Uiso   1.00
C907   C     0.25000   0.50003   0.14412   0.00000  Uiso   1.00
C908   C     0.03316   0.73018   0.04110   0.00000  Uiso   1.00
C909   C     0.00180   0.75008   0.48012   0.00000  Uiso   1.00
C910   C     0.00156   0.75032   0.52101   0.00000  Uiso   1.00
C911   C     0.24838   0.99678   0.47891   0.00000  Uiso   1.00
C912   C     0.24860   0.99717   0.51968   0.00000  Uiso   1.00
C913   C     0.25002   0.99998   0.97952   0.00000  Uiso   1.00
C914   C     0.24999   0.50002   0.02047   0.00000  Uiso   1.00
C915   C     0.49997   0.74994   0.97952   0.00000  Uiso   1.00
C916   C     0.00003   0.75007   0.02048   0.00000  Uiso   1.00
C917   C     0.49914   0.67297   0.48139   0.00000  Uiso   1.00
C918   C     0.16995   0.58000   0.24998   0.00000  Uiso   1.00
C919   C     0.00555   0.82668   0.52113   0.00000  Uiso   1.00
C920   C     0.31756   0.96332   0.47872   0.00000  Uiso   1.00
C921   C     0.17630   0.52380   0.51966   0.00000  Uiso   1.00
C922   C     0.00841   0.82692   0.48010   0.00000  Uiso   1.00
C923   C     0.00540   0.67395   0.52209   0.00000  Uiso   1.00
C924   C     0.17933   0.53052   0.47872   0.00000  Uiso   1.00
C925   C     0.32090   0.97117   0.51913   0.00000  Uiso   1.00
C926   C     0.21086   0.93366   0.97972   0.00000  Uiso   1.00
C927   C     0.28915   0.56633   0.02028   0.00000  Uiso   1.00
C928   C     0.06653   0.71100   0.97960   0.00000  Uiso   1.00
H929   H     0.00347   0.81637   0.40161   0.00000  Uiso   1.00
H930   H     0.21447   0.94370   0.09883   0.00000  Uiso   1.00
H931   H     0.44335   0.78517   0.90126   0.00000  Uiso   1.00
H932   H     0.05663   0.71481   0.09875   0.00000  Uiso   1.00
H933   H     0.21453   0.94356   0.90154   0.00000  Uiso   1.00
H934   H     0.28553   0.55641   0.09845   0.00000  Uiso   1.00
H935   H     0.05655   0.71459   0.90145   0.00000  Uiso   1.00
H936   H     0.44347   0.78543   0.09856   0.00000  Uiso   1.00
H937   H     0.42621   0.65499   0.44447   0.00000  Uiso   1.00
H938   H     0.40463   0.58745   0.41602   0.00000  Uiso   1.00
H939   H     0.45243   0.52648   0.41879   0.00000  Uiso   1.00
H940   H     0.00484   0.68543   0.60064   0.00000  Uiso   1.00
H941   H     0.02192   0.53287   0.45079   0.00000  Uiso   1.00
H942   H     0.04484   0.60070   0.47719   0.00000  Uiso   1.00
H943   H     0.44728   0.87934   0.55072   0.00000  Uiso   1.00
H944   H     0.45675   0.92175   0.61008   0.00000  Uiso   1.00
H945   H     0.02647   0.92534   0.64166   0.00000  Uiso   1.00
H946   H     0.08771   0.89010   0.61117   0.00000  Uiso   1.00
H947   H     0.07957   0.85207   0.54968   0.00000  Uiso   1.00
H948   H     0.33162   0.87991   0.47481   0.00000  Uiso   1.00
H949   H     0.38292   0.84311   0.43311   0.00000  Uiso   1.00
H950   H     0.43032   0.88355   0.38990   0.00000  Uiso   1.00
H951   H     0.19489   0.53627   0.40071   0.00000  Uiso   1.00
H952   H     0.42771   0.96102   0.38962   0.00000  Uiso   1.00
H953   H     0.37789   0.99847   0.43256   0.00000  Uiso   1.00
H954   H     0.15594   0.96607   0.57630   0.00000  Uiso   1.00
H955   H     0.09212   0.96193   0.61432   0.00000  Uiso   1.00
H956   H     0.02757   0.99660   0.59121   0.00000  Uiso   1.00
H957   H     0.03160   0.54635   0.53528   0.00000  Uiso   1.00
H958   H     0.09890   0.56658   0.50979   0.00000  Uiso   1.00
H959   H     0.07703   0.84440   0.43564   0.00000  Uiso   1.00
H960   H     0.09456   0.91155   0.40361   0.00000  Uiso   1.00
H961   H     0.04692   0.97243   0.41021   0.00000  Uiso   1.00
H962   H     0.31025   0.96984   0.59713   0.00000  Uiso   1.00
H963   H     0.48221   0.96638   0.44991   0.00000  Uiso   1.00
H964   H     0.46306   0.89923   0.48004   0.00000  Uiso   1.00
H965   H     0.08271   0.64892   0.54308   0.00000  Uiso   1.00
H966   H     0.09920   0.60941   0.60298   0.00000  Uiso   1.00
H967   H     0.04203   0.57702   0.64162   0.00000  Uiso   1.00
H968   H     0.46860   0.58207   0.61890   0.00000  Uiso   1.00
H969   H     0.45166   0.62154   0.55856   0.00000  Uiso   1.00
H970   H     0.17064   0.61454   0.47373   0.00000  Uiso   1.00
H971   H     0.12361   0.65414   0.42979   0.00000  Uiso   1.00
H972   H     0.07531   0.61641   0.38557   0.00000  Uiso   1.00
H973   H     0.49770   0.68298   0.40264   0.00000  Uiso   1.00
H974   H     0.07277   0.53898   0.38640   0.00000  Uiso   1.00
H975   H     0.11829   0.99879   0.43157   0.00000  Uiso   1.00
H976   H     0.33919   0.54345   0.55610   0.00000  Uiso   1.00
H977   H     0.40702   0.56872   0.57774   0.00000  Uiso   1.00
H978   H     0.47109   0.52759   0.56399   0.00000  Uiso   1.00
H979   H     0.46653   0.95937   0.53183   0.00000  Uiso   1.00
H980   H     0.39745   0.92813   0.51806   0.00000  Uiso   1.00
H981   H     0.13053   0.92779   0.95366   0.00000  Uiso   1.00
H982   H     0.09775   0.86772   0.91998   0.00000  Uiso   1.00
H983   H     0.13939   0.80392   0.90611   0.00000  Uiso   1.00
H984   H     0.49643   0.81595   0.59965   0.00000  Uiso   1.00
H985   H     0.21406   0.80001   0.92618   0.00000  Uiso   1.00
H986   H     0.24718   0.85981   0.95992   0.00000  Uiso   1.00
H987   H     0.25263   0.63977   0.04098   0.00000  Uiso   1.00
H988   H     0.28580   0.69953   0.07475   0.00000  Uiso   1.00
H989   H     0.36075   0.69598   0.09392   0.00000  Uiso   1.00
H990   H     0.40263   0.63259   0.07909   0.00000  Uiso   1.00
H991   H     0.36979   0.57256   0.04540   0.00000  Uiso   1.00
H992   H     0.07162   0.63140   0.95212   0.00000  Uiso   1.00
H993   H     0.13173   0.59864   0.91823   0.00000  Uiso   1.00
H994   H     0.19638   0.63958   0.90555   0.00000  Uiso   1.00
H995   H     0.30388   0.96080   0.40061   0.00000  Uiso   1.00
H996   H     0.20111   0.71350   0.92706   0.00000  Uiso   1.00
H997   H     0.14129   0.74661   0.96102   0.00000  Uiso   1.00
H998   H     0.35880   0.75338   0.03923   0.00000  Uiso   1.00
H999   H     0.29908   0.78647   0.07337   0.00000  Uiso   1.00
H1000  H     0.30384   0.86043   0.09477   0.00000  Uiso   1.00
H1001  H     0.36838   0.90142   0.08177   0.00000  Uiso   1.00
H1002  H     0.42838   0.86867   0.04771   0.00000  Uiso   1.00
H1003  H     0.36912   0.57103   0.95188   0.00000  Uiso   1.00
H1004  H     0.40216   0.63069   0.91744   0.00000  Uiso   1.00
H1005  H     0.36127   0.69518   0.90411   0.00000  Uiso   1.00
H1006  H     0.19170   0.53242   0.59722   0.00000  Uiso   1.00
H1007  H     0.28712   0.70022   0.92556   0.00000  Uiso   1.00
H1008  H     0.25374   0.64085   0.96007   0.00000  Uiso   1.00
H1009  H     0.24647   0.85953   0.04081   0.00000  Uiso   1.00
H1010  H     0.21301   0.80021   0.07535   0.00000  Uiso   1.00
H1011  H     0.13855   0.80496   0.09592   0.00000  Uiso   1.00
H1012  H     0.09741   0.86907   0.08165   0.00000  Uiso   1.00
H1013  H     0.13054   0.92867   0.04720   0.00000  Uiso   1.00
H1014  H     0.42692   0.86950   0.95443   0.00000  Uiso   1.00
H1015  H     0.36685   0.90222   0.92027   0.00000  Uiso   1.00
H1016  H     0.30366   0.86023   0.90480   0.00000  Uiso   1.00
H1017  H     0.28547   0.55633   0.90116   0.00000  Uiso   1.00
H1018  H     0.30032   0.78532   0.92383   0.00000  Uiso   1.00
H1019  H     0.36012   0.75227   0.95806   0.00000  Uiso   1.00
H1020  H     0.13977   0.74777   0.04220   0.00000  Uiso   1.00
H1021  H     0.19946   0.71474   0.07662   0.00000  Uiso   1.00
H1022  H     0.19612   0.63980   0.09554   0.00000  Uiso   1.00
H1023  H     0.13308   0.59775   0.07972   0.00000  Uiso   1.00
H1024  H     0.07312   0.63044   0.04539   0.00000  Uiso   1.00
O1025  O     0.25000   0.50000   0.25000   0.00000  Uiso   1.00
O1026  O     0.25000   0.96538   0.66251   0.00000  Uiso   1.00
O1027  O     0.46539   0.75000   0.33749   0.00000  Uiso   1.00
O1028  O     0.03462   0.75000   0.66251   0.00000  Uiso   1.00
O1029  O     0.00000   0.71538   0.83749   0.00000  Uiso   1.00
O1030  O     0.00000   0.78461   0.16251   0.00000  Uiso   1.00
O1031  O     0.28462   0.50000   0.83749   0.00000  Uiso   1.00
O1032  O     0.21539   0.50000   0.16251   0.00000  Uiso   1.00
O1033  O     0.00000   0.78461   0.83749   0.00000  Uiso   1.00
O1034  O     0.00000   0.71538   0.16251   0.00000  Uiso   1.00
O1035  O     0.21539   0.50000   0.83749   0.00000  Uiso   1.00
O1036  O     0.25000   0.50000   0.75000   0.00000  Uiso   1.00
O1037  O     0.28462   0.50000   0.16251   0.00000  Uiso   1.00
O1038  O     0.20127   0.58332   0.27298   0.00000  Uiso   1.00
O1039  O     0.29874   0.91668   0.72702   0.00000  Uiso   1.00
O1040  O     0.41668   0.70126   0.27298   0.00000  Uiso   1.00
O1041  O     0.08332   0.79874   0.72702   0.00000  Uiso   1.00
O1042  O     0.29874   0.91668   0.27298   0.00000  Uiso   1.00
O1043  O     0.20127   0.58332   0.72702   0.00000  Uiso   1.00
O1044  O     0.08332   0.79874   0.27298   0.00000  Uiso   1.00
O1045  O     0.41668   0.70126   0.72702   0.00000  Uiso   1.00
O1046  O     0.20127   0.91668   0.72702   0.00000  Uiso   1.00
O1047  O     0.00000   0.75000   0.25000   0.00000  Uiso   1.00
O1048  O     0.29874   0.58332   0.27298   0.00000  Uiso   1.00
O1049  O     0.41668   0.79873   0.72702   0.00000  Uiso   1.00
O1050  O     0.08332   0.70127   0.27298   0.00000  Uiso   1.00
O1051  O     0.29874   0.58332   0.72702   0.00000  Uiso   1.00
O1052  O     0.20127   0.91668   0.27298   0.00000  Uiso   1.00
O1053  O     0.08332   0.70127   0.72702   0.00000  Uiso   1.00
O1054  O     0.41668   0.79873   0.27298   0.00000  Uiso   1.00
O1055  O     0.45127   0.83332   0.77298   0.00000  Uiso   1.00
O1056  O     0.04874   0.66668   0.22702   0.00000  Uiso   1.00
O1057  O     0.16668   0.95127   0.77298   0.00000  Uiso   1.00
O1058  O     0.00000   0.75000   0.75000   0.00000  Uiso   1.00
O1059  O     0.33332   0.54873   0.22702   0.00000  Uiso   1.00
O1060  O     0.04874   0.66668   0.77298   0.00000  Uiso   1.00
O1061  O     0.45127   0.83332   0.22702   0.00000  Uiso   1.00
O1062  O     0.33332   0.54873   0.77298   0.00000  Uiso   1.00
O1063  O     0.16668   0.95127   0.22702   0.00000  Uiso   1.00
O1064  O     0.45127   0.66668   0.22702   0.00000  Uiso   1.00
O1065  O     0.04874   0.83332   0.77298   0.00000  Uiso   1.00
O1066  O     0.16668   0.54873   0.22702   0.00000  Uiso   1.00
O1067  O     0.33332   0.95126   0.77298   0.00000  Uiso   1.00
O1068  O     0.04874   0.83332   0.22702   0.00000  Uiso   1.00
O1069  O     0.25000   0.96538   0.33749   0.00000  Uiso   1.00
O1070  O     0.45127   0.66668   0.77298   0.00000  Uiso   1.00
O1071  O     0.33332   0.95126   0.22702   0.00000  Uiso   1.00
O1072  O     0.16668   0.54873   0.77298   0.00000  Uiso   1.00
O1073  O     0.25000   0.53461   0.66251   0.00000  Uiso   1.00
O1074  O     0.03462   0.75000   0.33749   0.00000  Uiso   1.00
O1075  O     0.46539   0.75000   0.66251   0.00000  Uiso   1.00
O1076  O     0.25000   0.53461   0.33749   0.00000  Uiso   1.00
Zn1077 Zn    0.20053   0.50000   0.21730   0.00000  Uiso   1.00
Zn1078 Zn    0.04948   0.75000   0.28270   0.00000  Uiso   1.00
Zn1079 Zn    0.25000   0.95052   0.71730   0.00000  Uiso   1.00
Zn1080 Zn    0.25000   0.54947   0.28270   0.00000  Uiso   1.00
Zn1081 Zn    0.04948   0.75000   0.71730   0.00000  Uiso   1.00
Zn1082 Zn    0.45053   0.75000   0.28270   0.00000  Uiso   1.00
Zn1083 Zn    0.25000   0.54947   0.71730   0.00000  Uiso   1.00
Zn1084 Zn    0.25000   0.95052   0.28270   0.00000  Uiso   1.00
Zn1085 Zn    0.29948   0.50000   0.78270   0.00000  Uiso   1.00
Zn1086 Zn    0.00000   0.70052   0.21730   0.00000  Uiso   1.00
Zn1087 Zn    0.00000   0.79947   0.78270   0.00000  Uiso   1.00
Zn1088 Zn    0.29948   0.50000   0.21730   0.00000  Uiso   1.00
Zn1089 Zn    0.20053   0.50000   0.78270   0.00000  Uiso   1.00
Zn1090 Zn    0.00000   0.79947   0.21730   0.00000  Uiso   1.00
Zn1091 Zn    0.00000   0.70053   0.78270   0.00000  Uiso   1.00
Zn1092 Zn    0.45053   0.75000   0.71730   0.00000  Uiso   1.00
C1093  C     0.75004   0.99986   0.35574   0.00000  Uiso   1.00
C1094  C     0.83005   0.91999   0.75003   0.00000  Uiso   1.00
C1095  C     0.93348   0.78901   0.02040   0.00000  Uiso   1.00
C1096  C     0.78922   0.56626   0.97926   0.00000  Uiso   1.00
C1097  C     0.71078   0.93374   0.02073   0.00000  Uiso   1.00
C1098  C     0.93343   0.78889   0.97939   0.00000  Uiso   1.00
C1099  C     0.56657   0.71111   0.02062   0.00000  Uiso   1.00
C1100  C     0.98741   0.63284   0.46263   0.00000  Uiso   1.00
C1101  C     0.94764   0.62868   0.44535   0.00000  Uiso   1.00
C1102  C     0.93519   0.59044   0.42945   0.00000  Uiso   1.00
C1103  C     0.96206   0.55597   0.43119   0.00000  Uiso   1.00
C1104  C     0.50131   0.55966   0.44890   0.00000  Uiso   1.00
C1105  C     0.91995   0.66999   0.25002   0.00000  Uiso   1.00
C1106  C     0.51416   0.59805   0.46412   0.00000  Uiso   1.00
C1107  C     0.51313   0.86457   0.54470   0.00000  Uiso   1.00
C1108  C     0.97857   0.88450   0.56197   0.00000  Uiso   1.00
C1109  C     0.98363   0.90728   0.59635   0.00000  Uiso   1.00
C1110  C     0.52290   0.90916   0.61422   0.00000  Uiso   1.00
C1111  C     0.55750   0.88986   0.59681   0.00000  Uiso   1.00
C1112  C     0.55301   0.86899   0.56148   0.00000  Uiso   1.00
C1113  C     0.85153   0.94181   0.45701   0.00000  Uiso   1.00
C1114  C     0.85306   0.89788   0.45689   0.00000  Uiso   1.00
C1115  C     0.88176   0.87698   0.43307   0.00000  Uiso   1.00
C1116  C     0.58004   0.83002   0.74996   0.00000  Uiso   1.00
C1117  C     0.90843   0.89977   0.40865   0.00000  Uiso   1.00
C1118  C     0.90711   0.94351   0.40868   0.00000  Uiso   1.00
C1119  C     0.87918   0.96460   0.43317   0.00000  Uiso   1.00
C1120  C     0.63445   0.51774   0.53945   0.00000  Uiso   1.00
C1121  C     0.63019   0.98642   0.56838   0.00000  Uiso   1.00
C1122  C     0.59290   0.98166   0.58883   0.00000  Uiso   1.00
C1123  C     0.55686   0.50193   0.57619   0.00000  Uiso   1.00
C1124  C     0.55923   0.52999   0.54515   0.00000  Uiso   1.00
C1125  C     0.59809   0.54025   0.52912   0.00000  Uiso   1.00
C1126  C     0.51844   0.86678   0.45979   0.00000  Uiso   1.00
C1127  C     0.83005   0.91996   0.25000   0.00000  Uiso   1.00
C1128  C     0.55581   0.87071   0.43835   0.00000  Uiso   1.00
C1129  C     0.56594   0.90872   0.42038   0.00000  Uiso   1.00
C1130  C     0.53925   0.94314   0.42428   0.00000  Uiso   1.00
C1131  C     0.50261   0.93970   0.44633   0.00000  Uiso   1.00
C1132  C     0.99195   0.90160   0.46364   0.00000  Uiso   1.00
C1133  C     0.51602   0.63637   0.54549   0.00000  Uiso   1.00
C1134  C     0.55782   0.63248   0.55821   0.00000  Uiso   1.00
C1135  C     0.56712   0.61124   0.59281   0.00000  Uiso   1.00
C1136  C     0.53490   0.59307   0.61462   0.00000  Uiso   1.00
C1137  C     0.99350   0.59553   0.60150   0.00000  Uiso   1.00
C1138  C     0.66995   0.58004   0.74999   0.00000  Uiso   1.00
C1139  C     0.98406   0.61657   0.56672   0.00000  Uiso   1.00
C1140  C     0.64708   0.55386   0.45639   0.00000  Uiso   1.00
C1141  C     0.64865   0.59782   0.45545   0.00000  Uiso   1.00
C1142  C     0.62241   0.62028   0.43033   0.00000  Uiso   1.00
C1143  C     0.59526   0.59901   0.40533   0.00000  Uiso   1.00
C1144  C     0.59366   0.55528   0.40601   0.00000  Uiso   1.00
C1145  C     0.61904   0.53267   0.43182   0.00000  Uiso   1.00
C1146  C     0.86246   0.98337   0.53542   0.00000  Uiso   1.00
C1147  C     0.86625   0.52332   0.55243   0.00000  Uiso   1.00
C1148  C     0.90506   0.53848   0.56392   0.00000  Uiso   1.00
C1149  C     0.58004   0.83005   0.25000   0.00000  Uiso   1.00
C1150  C     0.94103   0.51526   0.55639   0.00000  Uiso   1.00
C1151  C     0.93817   0.97622   0.53878   0.00000  Uiso   1.00
C1152  C     0.89894   0.95929   0.53002   0.00000  Uiso   1.00
C1153  C     0.69126   0.89810   0.95879   0.00000  Uiso   1.00
C1154  C     0.64898   0.90009   0.94757   0.00000  Uiso   1.00
C1155  C     0.63038   0.86615   0.92859   0.00000  Uiso   1.00
C1156  C     0.65386   0.83015   0.92079   0.00000  Uiso   1.00
C1157  C     0.69596   0.82797   0.93205   0.00000  Uiso   1.00
C1158  C     0.71467   0.86186   0.95100   0.00000  Uiso   1.00
C1159  C     0.80881   0.60186   0.04121   0.00000  Uiso   1.00
C1160  C     0.91996   0.66995   0.75000   0.00000  Uiso   1.00
C1161  C     0.78527   0.63788   0.04952   0.00000  Uiso   1.00
C1162  C     0.80400   0.67174   0.06848   0.00000  Uiso   1.00
C1163  C     0.84627   0.66977   0.07922   0.00000  Uiso   1.00
C1164  C     0.86988   0.63400   0.07089   0.00000  Uiso   1.00
C1165  C     0.85124   0.60008   0.05191   0.00000  Uiso   1.00
C1166  C     0.60216   0.69141   0.95861   0.00000  Uiso   1.00
C1167  C     0.59970   0.64955   0.94657   0.00000  Uiso   1.00
C1168  C     0.63366   0.63095   0.92747   0.00000  Uiso   1.00
C1169  C     0.67015   0.65403   0.92035   0.00000  Uiso   1.00
C1170  C     0.67279   0.69572   0.93242   0.00000  Uiso   1.00
C1171  C     0.66994   0.92000   0.75002   0.00000  Uiso   1.00
C1172  C     0.63889   0.71441   0.95150   0.00000  Uiso   1.00
C1173  C     0.89788   0.80863   0.04142   0.00000  Uiso   1.00
C1174  C     0.86120   0.78559   0.04868   0.00000  Uiso   1.00
C1175  C     0.82737   0.80428   0.06787   0.00000  Uiso   1.00
C1176  C     0.83002   0.84599   0.07988   0.00000  Uiso   1.00
C1177  C     0.86644   0.86910   0.07258   0.00000  Uiso   1.00
C1178  C     0.90034   0.85052   0.05338   0.00000  Uiso   1.00
C1179  C     0.80902   0.60168   0.95806   0.00000  Uiso   1.00
C1180  C     0.85101   0.59906   0.94608   0.00000  Uiso   1.00
C1181  C     0.86976   0.63276   0.92666   0.00000  Uiso   1.00
C1182  C     0.83005   0.58001   0.24997   0.00000  Uiso   1.00
C1183  C     0.84670   0.66915   0.91917   0.00000  Uiso   1.00
C1184  C     0.80489   0.67196   0.93121   0.00000  Uiso   1.00
C1185  C     0.78604   0.63833   0.95061   0.00000  Uiso   1.00
C1186  C     0.69092   0.89836   0.04193   0.00000  Uiso   1.00
C1187  C     0.71403   0.86192   0.04990   0.00000  Uiso   1.00
C1188  C     0.69514   0.82832   0.06931   0.00000  Uiso   1.00
C1189  C     0.65315   0.83096   0.08085   0.00000  Uiso   1.00
C1190  C     0.62996   0.86714   0.07283   0.00000  Uiso   1.00
C1191  C     0.64875   0.90081   0.05341   0.00000  Uiso   1.00
C1192  C     0.89783   0.80850   0.95827   0.00000  Uiso   1.00
C1193  C     0.91996   0.83001   0.74997   0.00000  Uiso   1.00
C1194  C     0.89948   0.85092   0.94766   0.00000  Uiso   1.00
C1195  C     0.86554   0.86948   0.92841   0.00000  Uiso   1.00
C1196  C     0.82988   0.84581   0.91972   0.00000  Uiso   1.00
C1197  C     0.82803   0.80356   0.93038   0.00000  Uiso   1.00
C1198  C     0.86191   0.78490   0.94961   0.00000  Uiso   1.00
C1199  C     0.60215   0.69149   0.04176   0.00000  Uiso   1.00
C1200  C     0.63799   0.71512   0.05059   0.00000  Uiso   1.00
C1201  C     0.67181   0.69647   0.06992   0.00000  Uiso   1.00
C1202  C     0.66996   0.65420   0.08052   0.00000  Uiso   1.00
C1203  C     0.63438   0.63050   0.07164   0.00000  Uiso   1.00
C1204  C     0.75030   0.50009   0.64393   0.00000  Uiso   1.00
C1205  C     0.58004   0.66999   0.25003   0.00000  Uiso   1.00
C1206  C     0.60051   0.64905   0.05228   0.00000  Uiso   1.00
C1207  C     0.83004   0.58005   0.75000   0.00000  Uiso   1.00
C1208  C     0.66996   0.91995   0.25000   0.00000  Uiso   1.00
C1209  C     0.58003   0.66995   0.74999   0.00000  Uiso   1.00
C1210  C     0.91996   0.83005   0.25001   0.00000  Uiso   1.00
C1211  C     0.63832   0.88831   0.25000   0.00000  Uiso   1.00
C1212  C     0.86169   0.61169   0.75000   0.00000  Uiso   1.00
C1213  C     0.61170   0.63833   0.25005   0.00000  Uiso   1.00
C1214  C     0.88830   0.86166   0.74997   0.00000  Uiso   1.00
C1215  C     0.86171   0.61166   0.24996   0.00000  Uiso   1.00
C1216  C     0.50000   0.74973   0.35605   0.00000  Uiso   1.00
C1217  C     0.63828   0.88836   0.75002   0.00000  Uiso   1.00
C1218  C     0.88832   0.86169   0.25001   0.00000  Uiso   1.00
C1219  C     0.61167   0.63830   0.74998   0.00000  Uiso   1.00
C1220  C     0.63830   0.61167   0.74998   0.00000  Uiso   1.00
C1221  C     0.86169   0.88832   0.25001   0.00000  Uiso   1.00
C1222  C     0.61170   0.86167   0.74995   0.00000  Uiso   1.00
C1223  C     0.88829   0.63834   0.25003   0.00000  Uiso   1.00
C1224  C     0.86171   0.88834   0.75004   0.00000  Uiso   1.00
C1225  C     0.63828   0.61165   0.24998   0.00000  Uiso   1.00
C1226  C     0.88832   0.63831   0.75001   0.00000  Uiso   1.00
C1227  C     0.99999   0.75048   0.64433   0.00000  Uiso   1.00
C1228  C     0.61169   0.86169   0.24999   0.00000  Uiso   1.00
C1229  C     0.50283   0.78768   0.41848   0.00000  Uiso   1.00
C1230  C     0.50321   0.71332   0.58289   0.00000  Uiso   1.00
C1231  C     0.71807   0.51962   0.41776   0.00000  Uiso   1.00
C1232  C     0.78391   0.98254   0.58097   0.00000  Uiso   1.00
C1233  C     0.99851   0.71188   0.41905   0.00000  Uiso   1.00
C1234  C     0.99842   0.78785   0.58236   0.00000  Uiso   1.00
C1235  C     0.78026   0.97679   0.41763   0.00000  Uiso   1.00
C1236  C     0.71664   0.51744   0.58092   0.00000  Uiso   1.00
C1237  C     0.77029   0.53194   0.91801   0.00000  Uiso   1.00
C1238  C     0.99999   0.74994   0.85586   0.00000  Uiso   1.00
C1239  C     0.72968   0.96808   0.08198   0.00000  Uiso   1.00
C1240  C     0.96782   0.77001   0.91806   0.00000  Uiso   1.00
C1241  C     0.53217   0.72998   0.08194   0.00000  Uiso   1.00
C1242  C     0.72975   0.96795   0.91823   0.00000  Uiso   1.00
C1243  C     0.77028   0.53203   0.08177   0.00000  Uiso   1.00
C1244  C     0.53205   0.72969   0.91817   0.00000  Uiso   1.00
C1245  C     0.96796   0.77032   0.08183   0.00000  Uiso   1.00
C1246  C     0.50007   0.74974   0.39860   0.00000  Uiso   1.00
C1247  C     0.50000   0.75057   0.60243   0.00000  Uiso   1.00
C1248  C     0.74970   0.99915   0.39778   0.00000  Uiso   1.00
C1249  C     0.50001   0.75006   0.14414   0.00000  Uiso   1.00
C1250  C     0.75042   0.50024   0.60129   0.00000  Uiso   1.00
C1251  C     0.75000   0.99995   0.89811   0.00000  Uiso   1.00
C1252  C     0.75000   0.50005   0.10189   0.00000  Uiso   1.00
C1253  C     0.99993   0.74984   0.89810   0.00000  Uiso   1.00
C1254  C     0.50007   0.75016   0.10190   0.00000  Uiso   1.00
C1255  C     0.99930   0.71131   0.46004   0.00000  Uiso   1.00
C1256  C     0.50102   0.78858   0.54139   0.00000  Uiso   1.00
C1257  C     0.78198   0.97803   0.45841   0.00000  Uiso   1.00
C1258  C     0.71366   0.51316   0.54017   0.00000  Uiso   1.00
C1259  C     0.50430   0.78859   0.45940   0.00000  Uiso   1.00
C1260  C     0.75000   0.99997   0.85588   0.00000  Uiso   1.00
C1261  C     0.50332   0.71230   0.54193   0.00000  Uiso   1.00
C1262  C     0.71511   0.51611   0.45847   0.00000  Uiso   1.00
C1263  C     0.78437   0.98276   0.54001   0.00000  Uiso   1.00
C1264  C     0.72999   0.96697   0.95907   0.00000  Uiso   1.00
C1265  C     0.77002   0.53302   0.04092   0.00000  Uiso   1.00
C1266  C     0.53306   0.72995   0.95902   0.00000  Uiso   1.00
C1267  C     0.96695   0.77005   0.04098   0.00000  Uiso   1.00
C1268  C     0.77009   0.53294   0.95885   0.00000  Uiso   1.00
C1269  C     0.72991   0.96706   0.04114   0.00000  Uiso   1.00
C1270  C     0.96683   0.76982   0.95891   0.00000  Uiso   1.00
C1271  C     0.75000   0.50003   0.14412   0.00000  Uiso   1.00
C1272  C     0.53316   0.73018   0.04110   0.00000  Uiso   1.00
C1273  C     0.50180   0.75008   0.48012   0.00000  Uiso   1.00
C1274  C     0.50156   0.75032   0.52101   0.00000  Uiso   1.00
C1275  C     0.74838   0.99678   0.47891   0.00000  Uiso   1.00
C1276  C     0.74860   0.99717   0.51968   0.00000  Uiso   1.00
C1277  C     0.75002   0.99998   0.97952   0.00000  Uiso   1.00
C1278  C     0.74999   0.50002   0.02047   0.00000  Uiso   1.00
C1279  C     0.99997   0.74994   0.97952   0.00000  Uiso   1.00
C1280  C     0.50003   0.75007   0.02048   0.00000  Uiso   1.00
C1281  C     0.99914   0.67297   0.48139   0.00000  Uiso   1.00
C1282  C     0.66995   0.58000   0.24998   0.00000  Uiso   1.00
C1283  C     0.50555   0.82668   0.52113   0.00000  Uiso   1.00
C1284  C     0.81756   0.96332   0.47872   0.00000  Uiso   1.00
C1285  C     0.67630   0.52380   0.51966   0.00000  Uiso   1.00
C1286  C     0.50841   0.82692   0.48010   0.00000  Uiso   1.00
C1287  C     0.50540   0.67395   0.52209   0.00000  Uiso   1.00
C1288  C     0.67933   0.53052   0.47872   0.00000  Uiso   1.00
C1289  C     0.82090   0.97117   0.51913   0.00000  Uiso   1.00
C1290  C     0.71086   0.93366   0.97972   0.00000  Uiso   1.00
C1291  C     0.78915   0.56633   0.02028   0.00000  Uiso   1.00
C1292  C     0.56653   0.71100   0.97960   0.00000  Uiso   1.00
H1293  H     0.50347   0.81637   0.40161   0.00000  Uiso   1.00
H1294  H     0.71447   0.94370   0.09883   0.00000  Uiso   1.00
H1295  H     0.94335   0.78517   0.90126   0.00000  Uiso   1.00
H1296  H     0.55663   0.71481   0.09875   0.00000  Uiso   1.00
H1297  H     0.71453   0.94356   0.90154   0.00000  Uiso   1.00
H1298  H     0.78553   0.55641   0.09845   0.00000  Uiso   1.00
H1299  H     0.55655   0.71459   0.90145   0.00000  Uiso   1.00
H1300  H     0.94347   0.78543   0.09856   0.00000  Uiso   1.00
H1301  H     0.92621   0.65499   0.44447   0.00000  Uiso   1.00
H1302  H     0.90463   0.58745   0.41602   0.00000  Uiso   1.00
H1303  H     0.95243   0.52648   0.41879   0.00000  Uiso   1.00
H1304  H     0.50484   0.68543   0.60064   0.00000  Uiso   1.00
H1305  H     0.52192   0.53287   0.45079   0.00000  Uiso   1.00
H1306  H     0.54484   0.60070   0.47719   0.00000  Uiso   1.00
H1307  H     0.94728   0.87934   0.55072   0.00000  Uiso   1.00
H1308  H     0.95675   0.92175   0.61008   0.00000  Uiso   1.00
H1309  H     0.52647   0.92534   0.64166   0.00000  Uiso   1.00
H1310  H     0.58771   0.89010   0.61117   0.00000  Uiso   1.00
H1311  H     0.57957   0.85207   0.54968   0.00000  Uiso   1.00
H1312  H     0.83162   0.87991   0.47481   0.00000  Uiso   1.00
H1313  H     0.88292   0.84311   0.43311   0.00000  Uiso   1.00
H1314  H     0.93032   0.88355   0.38990   0.00000  Uiso   1.00
H1315  H     0.69489   0.53627   0.40071   0.00000  Uiso   1.00
H1316  H     0.92771   0.96102   0.38962   0.00000  Uiso   1.00
H1317  H     0.87789   0.99847   0.43256   0.00000  Uiso   1.00
H1318  H     0.65594   0.96607   0.57630   0.00000  Uiso   1.00
H1319  H     0.59212   0.96193   0.61432   0.00000  Uiso   1.00
H1320  H     0.52757   0.99660   0.59121   0.00000  Uiso   1.00
H1321  H     0.53160   0.54635   0.53528   0.00000  Uiso   1.00
H1322  H     0.59890   0.56658   0.50979   0.00000  Uiso   1.00
H1323  H     0.57703   0.84440   0.43564   0.00000  Uiso   1.00
H1324  H     0.59456   0.91155   0.40361   0.00000  Uiso   1.00
H1325  H     0.54692   0.97243   0.41021   0.00000  Uiso   1.00
H1326  H     0.81025   0.96984   0.59713   0.00000  Uiso   1.00
H1327  H     0.98221   0.96638   0.44991   0.00000  Uiso   1.00
H1328  H     0.96306   0.89923   0.48004   0.00000  Uiso   1.00
H1329  H     0.58271   0.64892   0.54308   0.00000  Uiso   1.00
H1330  H     0.59920   0.60941   0.60298   0.00000  Uiso   1.00
H1331  H     0.54203   0.57702   0.64162   0.00000  Uiso   1.00
H1332  H     0.96860   0.58207   0.61890   0.00000  Uiso   1.00
H1333  H     0.95166   0.62154   0.55856   0.00000  Uiso   1.00
H1334  H     0.67064   0.61454   0.47373   0.00000  Uiso   1.00
H1335  H     0.62361   0.65414   0.42979   0.00000  Uiso   1.00
H1336  H     0.57531   0.61641   0.38557   0.00000  Uiso   1.00
H1337  H     0.99770   0.68298   0.40264   0.00000  Uiso   1.00
H1338  H     0.57277   0.53898   0.38640   0.00000  Uiso   1.00
H1339  H     0.61829   0.99879   0.43157   0.00000  Uiso   1.00
H1340  H     0.83919   0.54345   0.55610   0.00000  Uiso   1.00
H1341  H     0.90702   0.56872   0.57774   0.00000  Uiso   1.00
H1342  H     0.97109   0.52759   0.56399   0.00000  Uiso   1.00
H1343  H     0.96653   0.95937   0.53183   0.00000  Uiso   1.00
H1344  H     0.89745   0.92813   0.51806   0.00000  Uiso   1.00
H1345  H     0.63053   0.92779   0.95366   0.00000  Uiso   1.00
H1346  H     0.59775   0.86772   0.91998   0.00000  Uiso   1.00
H1347  H     0.63939   0.80392   0.90611   0.00000  Uiso   1.00
H1348  H     0.99643   0.81595   0.59965   0.00000  Uiso   1.00
H1349  H     0.71406   0.80001   0.92618   0.00000  Uiso   1.00
H1350  H     0.74718   0.85981   0.95992   0.00000  Uiso   1.00
H1351  H     0.75263   0.63977   0.04098   0.00000  Uiso   1.00
H1352  H     0.78580   0.69953   0.07475   0.00000  Uiso   1.00
H1353  H     0.86075   0.69598   0.09392   0.00000  Uiso   1.00
H1354  H     0.90263   0.63259   0.07909   0.00000  Uiso   1.00
H1355  H     0.86979   0.57256   0.04540   0.00000  Uiso   1.00
H1356  H     0.57162   0.63140   0.95212   0.00000  Uiso   1.00
H1357  H     0.63173   0.59864   0.91823   0.00000  Uiso   1.00
H1358  H     0.69638   0.63958   0.90555   0.00000  Uiso   1.00
H1359  H     0.80388   0.96080   0.40061   0.00000  Uiso   1.00
H1360  H     0.70111   0.71350   0.92706   0.00000  Uiso   1.00
H1361  H     0.64129   0.74661   0.96102   0.00000  Uiso   1.00
H1362  H     0.85880   0.75338   0.03923   0.00000  Uiso   1.00
H1363  H     0.79908   0.78647   0.07337   0.00000  Uiso   1.00
H1364  H     0.80384   0.86043   0.09477   0.00000  Uiso   1.00
H1365  H     0.86838   0.90142   0.08177   0.00000  Uiso   1.00
H1366  H     0.92838   0.86867   0.04771   0.00000  Uiso   1.00
H1367  H     0.86912   0.57103   0.95188   0.00000  Uiso   1.00
H1368  H     0.90216   0.63069   0.91744   0.00000  Uiso   1.00
H1369  H     0.86127   0.69518   0.90411   0.00000  Uiso   1.00
H1370  H     0.69170   0.53242   0.59722   0.00000  Uiso   1.00
H1371  H     0.78712   0.70022   0.92556   0.00000  Uiso   1.00
H1372  H     0.75374   0.64085   0.96007   0.00000  Uiso   1.00
H1373  H     0.74647   0.85953   0.04081   0.00000  Uiso   1.00
H1374  H     0.71301   0.80021   0.07535   0.00000  Uiso   1.00
H1375  H     0.63855   0.80496   0.09592   0.00000  Uiso   1.00
H1376  H     0.59741   0.86907   0.08165   0.00000  Uiso   1.00
H1377  H     0.63054   0.92867   0.04720   0.00000  Uiso   1.00
H1378  H     0.92692   0.86950   0.95443   0.00000  Uiso   1.00
H1379  H     0.86685   0.90222   0.92027   0.00000  Uiso   1.00
H1380  H     0.80366   0.86023   0.90480   0.00000  Uiso   1.00
H1381  H     0.78547   0.55633   0.90116   0.00000  Uiso   1.00
H1382  H     0.80032   0.78532   0.92383   0.00000  Uiso   1.00
H1383  H     0.86012   0.75227   0.95806   0.00000  Uiso   1.00
H1384  H     0.63977   0.74777   0.04220   0.00000  Uiso   1.00
H1385  H     0.69946   0.71474   0.07662   0.00000  Uiso   1.00
H1386  H     0.69612   0.63980   0.09554   0.00000  Uiso   1.00
H1387  H     0.63308   0.59775   0.07972   0.00000  Uiso   1.00
H1388  H     0.57312   0.63044   0.04539   0.00000  Uiso   1.00
O1389  O     0.75000   0.50000   0.25000   0.00000  Uiso   1.00
O1390  O     0.75000   0.96538   0.66251   0.00000  Uiso   1.00
O1391  O     0.96539   0.75000   0.33749   0.00000  Uiso   1.00
O1392  O     0.53462   0.75000   0.66251   0.00000  Uiso   1.00
O1393  O     0.50000   0.71538   0.83749   0.00000  Uiso   1.00
O1394  O     0.50000   0.78461   0.16251   0.00000  Uiso   1.00
O1395  O     0.78462   0.50000   0.83749   0.00000  Uiso   1.00
O1396  O     0.71539   0.50000   0.16251   0.00000  Uiso   1.00
O1397  O     0.50000   0.78461   0.83749   0.00000  Uiso   1.00
O1398  O     0.50000   0.71538   0.16251   0.00000  Uiso   1.00
O1399  O     0.71539   0.50000   0.83749   0.00000  Uiso   1.00
O1400  O     0.75000   0.50000   0.75000   0.00000  Uiso   1.00
O1401  O     0.78462   0.50000   0.16251   0.00000  Uiso   1.00
O1402  O     0.70127   0.58332   0.27298   0.00000  Uiso   1.00
O1403  O     0.79874   0.91668   0.72702   0.00000  Uiso   1.00
O1404  O     0.91668   0.70126   0.27298   0.00000  Uiso   1.00
O1405  O     0.58332   0.79874   0.72702   0.00000  Uiso   1.00
O1406  O     0.79874   0.91668   0.27298   0.00000  Uiso   1.00
O1407  O     0.70127   0.58332   0.72702   0.00000  Uiso   1.00
O1408  O     0.58332   0.79874   0.27298   0.00000  Uiso   1.00
O1409  O     0.91668   0.70126   0.72702   0.00000  Uiso   1.00
O1410  O     0.70127   0.91668   0.72702   0.00000  Uiso   1.00
O1411  O     0.50000   0.75000   0.25000   0.00000  Uiso   1.00
O1412  O     0.79874   0.58332   0.27298   0.00000  Uiso   1.00
O1413  O     0.91668   0.79873   0.72702   0.00000  Uiso   1.00
O1414  O     0.58332   0.70127   0.27298   0.00000  Uiso   1.00
O1415  O     0.79874   0.58332   0.72702   0.00000  Uiso   1.00
O1416  O     0.70127   0.91668   0.27298   0.00000  Uiso   1.00
O1417  O     0.58332   0.70127   0.72702   0.00000  Uiso   1.00
O1418  O     0.91668   0.79873   0.27298   0.00000  Uiso   1.00
O1419  O     0.95127   0.83332   0.77298   0.00000  Uiso   1.00
O1420  O     0.54874   0.66668   0.22702   0.00000  Uiso   1.00
O1421  O     0.66668   0.95127   0.77298   0.00000  Uiso   1.00
O1422  O     0.50000   0.75000   0.75000   0.00000  Uiso   1.00
O1423  O     0.83332   0.54873   0.22702   0.00000  Uiso   1.00
O1424  O     0.54874   0.66668   0.77298   0.00000  Uiso   1.00
O1425  O     0.95127   0.83332   0.22702   0.00000  Uiso   1.00
O1426  O     0.83332   0.54873   0.77298   0.00000  Uiso   1.00
O1427  O     0.66668   0.95127   0.22702   0.00000  Uiso   1.00
O1428  O     0.95127   0.66668   0.22702   0.00000  Uiso   1.00
O1429  O     0.54874   0.83332   0.77298   0.00000  Uiso   1.00
O1430  O     0.66668   0.54873   0.22702   0.00000  Uiso   1.00
O1431  O     0.83332   0.95126   0.77298   0.00000  Uiso   1.00
O1432  O     0.54874   0.83332   0.22702   0.00000  Uiso   1.00
O1433  O     0.75000   0.96538   0.33749   0.00000  Uiso   1.00
O1434  O     0.95127   0.66668   0.77298   0.00000  Uiso   1.00
O1435  O     0.83332   0.95126   0.22702   0.00000  Uiso   1.00
O1436  O     0.66668   0.54873   0.77298   0.00000  Uiso   1.00
O1437  O     0.75000   0.53461   0.66251   0.00000  Uiso   1.00
O1438  O     0.53462   0.75000   0.33749   0.00000  Uiso   1.00
O1439  O     0.96539   0.75000   0.66251   0.00000  Uiso   1.00
O1440  O     0.75000   0.53461   0.33749   0.00000  Uiso   1.00
Zn1441 Zn    0.70053   0.50000   0.21730   0.00000  Uiso   1.00
Zn1442 Zn    0.54948   0.75000   0.28270   0.00000  Uiso   1.00
Zn1443 Zn    0.75000   0.95052   0.71730   0.00000  Uiso   1.00
Zn1444 Zn    0.75000   0.54947   0.28270   0.00000  Uiso   1.00
Zn1445 Zn    0.54948   0.75000   0.71730   0.00000  Uiso   1.00
Zn1446 Zn    0.95053   0.75000   0.28270   0.00000  Uiso   1.00
Zn1447 Zn    0.75000   0.54947   0.71730   0.00000  Uiso   1.00
Zn1448 Zn    0.75000   0.95052   0.28270   0.00000  Uiso   1.00
Zn1449 Zn    0.79948   0.50000   0.78270   0.00000  Uiso   1.00
Zn1450 Zn    0.50000   0.70052   0.21730   0.00000  Uiso   1.00
Zn1451 Zn    0.50000   0.79947   0.78270   0.00000  Uiso   1.00
Zn1452 Zn    0.79948   0.50000   0.21730   0.00000  Uiso   1.00
Zn1453 Zn    0.70053   0.50000   0.78270   0.00000  Uiso   1.00
Zn1454 Zn    0.50000   0.79947   0.21730   0.00000  Uiso   1.00
Zn1455 Zn    0.50000   0.70053   0.78270   0.00000  Uiso   1.00
Zn1456 Zn    0.95053   0.75000   0.71730   0.00000  Uiso   1.00
loop_
_geom_bond_atom_site_label_1
_geom_bond_atom_site_label_2
_geom_bond_distance
_geom_bond_site_symmetry_2
_ccdc_geom_bond_type
C1     O341    1.269   .     A
C1     C156    1.444   .     S
C1     O1076   1.273   .     S
C2     O311    1.278   .     A
C2     O339    1.279   .     A
C2     C132    1.428   .     S
C3     C81     1.484   .     S
C3     C175    1.415   .     A
C3     C6      1.409   1_554 S
C4     C87     1.484   .     S
C4     C176    1.415   .     A
C4     C199    1.409   1_556 S
C5     C94     1.484   .     S
C5     C177    1.415   .     A
C5     C198    1.408   1_554 S
C6     C100    1.484   .     S
C6     C178    1.415   .     A
C6     C3      1.409   1_556 S
C7     C107    1.484   .     S
C7     C180    1.415   .     A
C7     C200    1.409   1_554 S
C8     C189    1.485   .     S
C8     C9      1.406   .     A
C8     C378    1.401   .     S
C9     C10     1.397   .     A
C9     H209    1.083   .     S
C10    H210    1.082   .     S
C10    C11     1.396   .     A
C11    H211    1.079   .     S
C11    C376    1.396   .     S
C12    H213    1.080   .     S
C12    C14     1.396   .     A
C12    C375    1.396   1_455 S
C13    O336    1.277   .     A
C13    C131    1.429   .     S
C13    O312    1.279   .     A
C14    H214    1.080   .     S
C14    C372    1.401   1_455 S
C15    C20     1.403   .     A
C15    C191    1.478   .     S
C15    C380    1.404   1_455 S
C16    H215    1.082   .     S
C16    C17     1.398   .     A
C16    C379    1.404   .     S
C17    H216    1.082   .     S
C17    C382    1.395   .     S
C18    C19     1.398   .     A
C18    H217    1.082   .     S
C18    C381    1.395   1_455 S
C19    C20     1.394   .     A
C19    H218    1.082   .     S
C20    H219    1.083   .     S
C21    C22     1.404   .     A
C21    C192    1.484   .     S
C21    C27     1.405   .     A
C22    H220    1.083   .     S
C22    C23     1.398   .     A
C23    H221    1.082   .     S
C23    C25     1.397   .     A
C24    C130    1.429   .     S
C24    O313    1.279   .     A
C24    O337    1.277   .     A
C25    C26     1.398   .     A
C25    H222    1.082   .     S
C26    H224    1.082   .     S
C26    C27     1.399   .     A
C27    H225    1.083   .     S
C28    C33     1.409   .     A
C28    C193    1.509   .     S
C28    C757    1.414   1_545 S
C29    H226    1.081   .     S
C29    C30     1.388   .     A
C29    C756    1.414   .     S
C30    H227    1.077   .     S
C30    C759    1.388   .     S
C31    C32     1.393   .     A
C31    C758    1.388   1_545 S
C31    H956    1.080   1_545 S
C32    H229    1.078   .     S
C32    C33     1.394   .     A
C33    H230    1.070   .     S
C34    C194    1.485   .     S
C34    C36     1.406   .     A
C34    C404    1.403   1_455 S
C35    O314    1.276   .     A
C35    O343    1.276   .     A
C35    C129    1.428   .     S
C36    C37     1.398   .     A
C36    H231    1.083   .     S
C37    H232    1.082   .     S
C37    C38     1.397   .     A
C38    H233    1.080   .     S
C38    C39     1.396   .     A
C39    C404    1.395   1_455 S
C39    H599    1.079   1_455 S
C40    H236    1.082   .     S
C40    C398    1.403   .     S
C40    C403    1.395   .     S
C41    C195    1.481   .     S
C41    C42     1.408   .     A
C41    C411    1.402   1_455 S
C42    C43     1.398   .     A
C42    H237    1.083   .     S
C43    C44     1.396   .     A
C43    H238    1.082   .     S
C44    H239    1.082   .     S
C44    C409    1.397   1_455 S
C45    C47     1.401   .     A
C45    H240    1.082   .     S
C45    C408    1.397   .     S
C46    O315    1.276   .     A
C46    C128    1.428   .     S
C46    O344    1.276   .     A
C47    H241    1.082   .     S
C47    C405    1.402   .     S
C48    C53     1.405   .     A
C48    C49     1.405   .     A
C48    C196    1.482   .     S
C49    C50     1.398   .     A
C49    H242    1.083   .     S
C50    H243    1.082   .     S
C50    C51     1.397   .     A
C51    H244    1.082   .     S
C51    C52     1.398   .     A
C52    C53     1.399   .     A
C52    H246    1.082   .     S
C53    H975    1.083   1_545 S
C54    C197    1.491   .     S
C54    C60     1.406   .     A
C54    C783    1.410   .     S
C55    C56     1.387   .     A
C55    H248    1.083   .     S
C55    C782    1.410   1_545 S
C56    H249    1.079   .     S
C56    C58     1.390   .     A
C57    O316    1.276   .     A
C57    O340    1.276   .     A
C57    C136    1.428   .     S
C58    H250    1.069   .     S
C58    C787    1.391   1_545 S
C59    C60     1.396   .     A
C59    H251    1.079   .     S
C59    C786    1.391   .     S
C60    H252    1.079   .     S
C61    C198    1.484   .     S
C61    C66     1.403   .     A
C61    C62     1.403   .     A
C62    H253    1.083   .     S
C62    C63     1.399   .     A
C63    C64     1.398   .     A
C63    H254    1.082   .     S
C64    C65     1.398   .     A
C64    H255    1.082   .     S
C65    H257    1.082   .     S
C65    C66     1.398   .     A
C66    H258    1.083   .     S
C67    C199    1.484   .     S
C67    C73     1.403   .     A
C67    C69     1.403   .     A
C68    O342    1.276   .     A
C68    C134    1.428   .     S
C68    O317    1.276   .     A
C69    C70     1.398   .     A
C69    H259    1.083   .     S
C70    C71     1.398   .     A
C70    H260    1.082   .     S
C71    C72     1.398   .     A
C71    H261    1.082   .     S
C72    C73     1.399   .     A
C72    H262    1.082   .     S
C73    H263    1.083   .     S
C74    C80     1.403   .     A
C74    C75     1.403   .     A
C74    C200    1.484   .     S
C75    C76     1.399   .     A
C75    H264    1.083   .     S
C76    H265    1.082   .     S
C76    C77     1.398   .     A
C77    H266    1.082   .     S
C77    C78     1.398   .     A
C78    C80     1.398   .     A
C78    H268    1.082   .     S
C79    O329    1.279   .     A
C79    C125    1.429   .     S
C79    O318    1.277   .     A
C80    H269    1.083   .     S
C81    C86     1.403   .     A
C81    C82     1.403   .     A
C82    C83     1.398   .     A
C82    H270    1.083   .     S
C83    C84     1.398   .     A
C83    H271    1.082   .     S
C84    C85     1.398   .     A
C84    H272    1.082   .     S
C85    C86     1.399   .     A
C85    H273    1.082   .     S
C86    H274    1.083   .     S
C87    C93     1.403   .     A
C87    C88     1.403   .     A
C88    C89     1.399   .     A
C88    H275    1.083   .     S
C89    C91     1.398   .     A
C89    H276    1.082   .     S
C90    O331    1.279   .     A
C90    C123    1.429   .     S
C90    O320    1.277   .     A
C91    C92     1.398   .     A
C91    H277    1.082   .     S
C92    C93     1.398   .     A
C92    H279    1.082   .     S
C93    H280    1.083   .     S
C94    C95     1.403   .     A
C94    C99     1.403   .     A
C95    H281    1.083   .     S
C95    C96     1.398   .     A
C96    H282    1.082   .     S
C96    C97     1.398   .     A
C97    C98     1.398   .     A
C97    H283    1.082   .     S
C98    C99     1.399   .     A
C98    H284    1.082   .     S
C99    H285    1.083   .     S
C100   C106    1.403   .     A
C100   C102    1.403   .     A
C101   O327    1.278   .     A
C101   O321    1.279   .     A
C101   C122    1.428   .     S
C102   H286    1.083   .     S
C102   C103    1.399   .     A
C103   H287    1.082   .     S
C103   C104    1.398   .     A
C104   C105    1.398   .     A
C104   H288    1.082   .     S
C105   C106    1.398   .     A
C105   H290    1.082   .     S
C106   H291    1.083   .     S
C107   C108    1.403   .     A
C107   C114    1.403   .     A
C108   C109    1.398   .     A
C108   H292    1.083   .     S
C109   H293    1.082   .     S
C109   C110    1.398   .     A
C110   C111    1.398   .     A
C110   H294    1.082   .     S
C111   H295    1.082   .     S
C111   C114    1.399   .     A
C112   C158    1.464   .     S
C112   O345    1.276   .     A
C112   O1026   1.277   1_545 S
C113   O322    1.279   .     A
C113   O328    1.278   .     A
C113   C121    1.428   .     S
C114   H296    1.083   .     S
C115   O323    1.276   .     A
C115   C120    1.428   .     S
C115   O334    1.276   .     A
C116   O335    1.276   .     A
C116   O324    1.276   .     A
C116   C119    1.428   .     S
C117   O332    1.276   .     A
C117   O325    1.276   .     A
C117   C127    1.428   .     S
C118   O333    1.276   .     A
C118   O326    1.276   .     A
C118   C126    1.428   .     S
C119   C136    1.202   .     T
C120   C134    1.202   .     T
C121   C133    1.202   .     T
C122   C132    1.202   .     T
C123   C131    1.202   .     T
C124   O663    1.274   1_455 A
C124   C154    1.461   .     S
C124   O346    1.274   .     S
C125   C130    1.202   .     T
C126   C129    1.201   .     T
C127   C128    1.201   .     T
C133   C190    1.428   .     S
C135   O347    1.267   .     A
C135   C519    1.439   .     S
C135   O664    1.268   .     S
C137   H201    1.083   .     S
C137   C167    1.406   .     A
C137   C154    1.396   .     A
C138   H212    1.079   .     S
C138   C169    1.407   .     A
C138   C155    1.372   .     A
C139   H223    1.082   .     S
C139   C170    1.405   .     A
C139   C884    1.384   1_545 S
C140   C171    1.407   .     A
C140   H234    1.084   .     S
C140   C886    1.396   .     S
C141   H245    1.083   .     S
C141   C163    1.408   .     A
C141   C518    1.398   .     S
C142   H256    1.080   .     S
C142   C519    1.375   .     S
C142   C528    1.409   .     S
C143   C165    1.402   .     A
C143   C156    1.386   .     A
C143   H267    1.082   .     S
C144   C166    1.410   .     A
C144   H278    1.084   .     S
C144   C158    1.396   .     A
C145   C176    1.403   .     A
C145   H289    1.083   .     S
C145   C887    1.391   1_545 S
C146   C161    1.451   .     S
C146   O665    1.273   .     A
C146   O669    1.273   .     A
C147   C177    1.403   .     A
C147   H202    1.083   .     S
C147   C888    1.391   .     S
C148   C178    1.403   .     A
C148   C161    1.391   .     A
C148   H203    1.083   .     S
C149   C162    1.391   .     A
C149   C180    1.403   .     A
C149   H204    1.083   .     S
C150   C172    1.403   .     A
C150   C159    1.391   .     A
C150   H205    1.083   .     S
C151   C173    1.403   .     A
C151   C160    1.391   .     A
C151   H206    1.083   .     S
C152   H207    1.083   .     S
C152   C174    1.403   .     A
C152   C525    1.391   1_455 S
C153   C175    1.403   .     A
C153   H208    1.083   .     S
C153   C526    1.391   .     S
C154   C505    1.398   1_455 S
C155   C499    1.439   1_455 S
C155   C506    1.375   1_455 S
C156   C867    1.384   .     S
C157   C162    1.451   .     S
C157   O302    1.273   .     S
C157   O306    1.273   .     S
C158   C868    1.396   1_545 S
C159   C168    1.450   .     S
C159   C873    1.391   .     S
C160   C179    1.450   .     S
C160   C875    1.391   1_545 S
C161   C516    1.391   .     S
C162   C517    1.391   1_455 S
C163   C189    1.425   .     A
C163   C545    1.422   .     S
C164   C191    1.407   .     A
C164   C182    1.410   .     A
C164   C506    1.409   1_455 S
C165   C183    1.415   .     A
C165   C192    1.411   .     A
C166   C193    1.424   .     A
C166   C912    1.414   1_545 S
C167   C194    1.424   .     A
C167   C181    1.421   .     A
C168   O1031   1.271   .     S
C168   O1035   1.271   .     S
C169   C182    1.410   .     A
C169   C195    1.405   .     A
C170   C196    1.414   .     A
C170   C911    1.413   1_545 S
C171   C184    1.413   .     A
C171   C197    1.417   .     A
C172   C198    1.415   .     A
C172   C185    1.420   .     A
C173   C199    1.415   .     A
C173   C186    1.420   .     A
C174   C200    1.415   .     A
C174   C551    1.420   1_455 S
C175   C552    1.420   .     S
C176   C913    1.420   1_545 S
C177   C914    1.420   .     S
C178   C187    1.420   .     A
C179   O304    1.271   .     A
C179   O309    1.271   .     A
C180   C188    1.420   .     A
C181   C182    1.404   .     A
C181   C527    1.422   1_455 S
C183   C184    1.400   .     A
C183   C898    1.413   .     S
C184   C894    1.414   .     S
C185   C904    1.420   .     S
C185   C914    1.406   1_556 S
C186   C905    1.420   1_545 S
C186   C913    1.406   1_544 S
C187   C538    1.420   .     S
C187   C552    1.406   1_556 S
C188   C539    1.420   1_455 S
C188   C551    1.406   1_454 S
C189   C559    1.412   .     S
C190   O338    1.279   .     A
C190   O310    1.278   .     A
C191   C194    1.412   .     A
C192   C197    1.415   .     A
C193   C196    1.425   .     A
C195   C553    1.412   1_455 S
C198   C5      1.408   1_556 S
C199   C4      1.409   1_554 S
C200   C7      1.409   1_556 S
H228   C759    1.080   .     S
H235   C403    1.079   .     S
H247   C781    1.083   .     S
O297   Zn352   1.941   .     S
O297   Zn360   1.936   .     S
O297   Zn349   1.936   .     S
O297   Zn1084  1.936   1_545 S
O298   Zn351   1.939   .     S
O298   C840    1.277   .     S
O299   C488    1.274   .     A
O299   Zn354   1.940   .     S
O300   Zn353   1.940   .     S
O300   C499    1.268   1_455 S
O301   C510    1.273   1_455 A
O301   Zn363   1.942   .     S
O302   Zn362   1.942   .     S
O303   Zn357   1.940   .     S
O303   C896    1.271   1_545 S
O304   Zn349   1.940   .     S
O305   C510    1.273   1_455 A
O305   Zn359   1.939   .     S
O306   Zn358   1.939   .     S
O307   Zn361   1.940   .     S
O307   C896    1.271   1_545 S
O308   Zn355   1.936   .     S
O308   Zn357   1.936   .     S
O308   Zn361   1.936   .     S
O308   Zn1079  1.941   1_545 S
O309   Zn360   1.940   .     S
O310   Zn352   1.921   .     S
O311   Zn351   1.921   .     S
O312   Zn354   1.924   .     S
O313   Zn353   1.924   .     S
O314   Zn356   1.922   .     S
O315   Zn355   1.922   .     S
O316   Zn350   1.923   .     S
O317   Zn364   1.923   .     S
O318   Zn351   1.921   .     S
O319   Zn350   1.936   .     S
O319   Zn718   1.936   1_455 S
O319   Zn358   1.941   .     S
O319   Zn362   1.936   .     S
O320   Zn352   1.921   .     S
O321   Zn364   1.924   .     S
O322   Zn350   1.924   .     S
O323   Zn355   1.923   .     S
O324   Zn356   1.923   .     S
O325   Zn353   1.922   .     S
O326   Zn354   1.922   .     S
O327   Zn723   1.921   .     S
O328   Zn358   1.921   .     S
O329   Zn1089  1.924   .     S
O330   Zn359   1.941   .     S
O330   Zn728   1.936   1_455 S
O330   Zn353   1.936   .     S
O330   Zn363   1.936   .     S
O331   Zn360   1.924   .     S
O332   Zn363   1.922   .     S
O333   Zn726   1.922   .     S
O334   Zn357   1.923   .     S
O335   Zn1077  1.923   .     S
O336   Zn722   1.921   .     S
O337   Zn359   1.921   .     S
O338   Zn349   1.924   .     S
O339   Zn1085  1.924   .     S
O340   Zn362   1.923   .     S
O341   Zn356   1.942   .     S
O342   Zn727   1.923   .     S
O343   Zn1088  1.922   .     S
O344   Zn361   1.922   .     S
O345   Zn355   1.942   .     S
O346   Zn350   1.940   .     S
O347   Zn364   1.940   .     S
O348   Zn352   1.939   .     S
O348   C729    1.273   1_545 S
Zn349  O1063   1.923   1_545 S
Zn351  O1036   1.941   .     S
Zn354  O683    1.936   .     S
Zn356  O1025   1.936   .     S
Zn357  O1067   1.924   1_545 S
Zn358  O700    1.921   1_455 S
Zn359  O691    1.921   1_455 S
Zn360  O1071   1.922   1_545 S
Zn361  O1057   1.924   1_545 S
Zn362  O697    1.922   1_455 S
Zn363  O706    1.923   1_455 S
Zn364  O694    1.936   .     S
C365   O705    1.269   .     A
C365   C520    1.444   .     S
C365   O1440   1.273   .     S
C366   O675    1.278   .     A
C366   O703    1.279   .     A
C366   C496    1.428   .     S
C367   C445    1.484   .     S
C367   C539    1.415   .     A
C367   C370    1.409   1_554 S
C368   C451    1.484   .     S
C368   C540    1.415   .     A
C368   C563    1.409   1_556 S
C369   C458    1.484   .     S
C369   C541    1.415   .     A
C369   C562    1.408   1_554 S
C370   C464    1.484   .     S
C370   C542    1.415   .     A
C370   C367    1.409   1_556 S
C371   C471    1.484   .     S
C371   C544    1.415   .     A
C371   C564    1.409   1_554 S
C372   C553    1.485   .     S
C372   C373    1.406   .     A
C372   C14     1.401   1_655 S
C373   C374    1.397   .     A
C373   H573    1.083   .     S
C374   H574    1.082   .     S
C374   C375    1.396   .     A
C375   H575    1.079   .     S
C375   C12     1.396   1_655 S
C376   H577    1.080   .     S
C376   C378    1.396   .     A
C377   O700    1.277   .     A
C377   C495    1.429   .     S
C377   O676    1.279   .     A
C378   H578    1.080   .     S
C379   C384    1.403   .     A
C379   C555    1.478   .     S
C380   H579    1.082   .     S
C380   C381    1.398   .     A
C380   C15     1.404   1_655 S
C381   H580    1.082   .     S
C381   C18     1.395   1_655 S
C382   C383    1.398   .     A
C382   H581    1.082   .     S
C383   C384    1.394   .     A
C383   H582    1.082   .     S
C384   H583    1.083   .     S
C385   C386    1.404   .     A
C385   C556    1.484   .     S
C385   C391    1.405   .     A
C386   H584    1.083   .     S
C386   C387    1.398   .     A
C387   H585    1.082   .     S
C387   C389    1.397   .     A
C388   C494    1.429   .     S
C388   O677    1.279   .     A
C388   O701    1.277   .     A
C389   C390    1.398   .     A
C389   H586    1.082   .     S
C390   H588    1.082   .     S
C390   C391    1.399   .     A
C391   H589    1.083   .     S
C392   C397    1.409   .     A
C392   C557    1.509   .     S
C392   C1121   1.414   1_545 S
C393   H590    1.081   .     S
C393   C394    1.388   .     A
C393   C1120   1.414   .     S
C394   H591    1.077   .     S
C394   C1123   1.388   .     S
C395   C396    1.393   .     A
C395   C1122   1.388   1_545 S
C395   H1320   1.080   1_545 S
C396   H593    1.078   .     S
C396   C397    1.394   .     A
C397   H594    1.070   .     S
C398   C558    1.485   .     S
C398   C400    1.406   .     A
C399   O678    1.276   .     A
C399   O707    1.276   .     A
C399   C493    1.428   .     S
C400   C401    1.398   .     A
C400   H595    1.083   .     S
C401   H596    1.082   .     S
C401   C402    1.397   .     A
C402   H597    1.080   .     S
C402   C403    1.396   .     A
C404   H600    1.082   .     S
C404   C34     1.403   1_655 S
C404   C39     1.395   1_655 S
C405   C559    1.481   .     S
C405   C406    1.408   .     A
C406   C407    1.398   .     A
C406   H601    1.083   .     S
C407   C408    1.396   .     A
C407   H602    1.082   .     S
C408   H603    1.082   .     S
C409   C411    1.401   .     A
C409   H604    1.082   .     S
C409   C44     1.397   1_655 S
C410   O679    1.276   .     A
C410   C492    1.428   .     S
C410   O708    1.276   .     A
C411   H605    1.082   .     S
C411   C41     1.402   1_655 S
C412   C417    1.405   .     A
C412   C413    1.405   .     A
C412   C560    1.482   .     S
C413   C414    1.398   .     A
C413   H606    1.083   .     S
C414   H607    1.082   .     S
C414   C415    1.397   .     A
C415   H608    1.082   .     S
C415   C416    1.398   .     A
C416   C417    1.399   .     A
C416   H610    1.082   .     S
C417   H1339   1.083   1_545 S
C418   C561    1.491   .     S
C418   C424    1.406   .     A
C418   C1147   1.410   .     S
C419   C420    1.387   .     A
C419   H612    1.083   .     S
C419   C1146   1.410   1_545 S
C420   H613    1.079   .     S
C420   C422    1.390   .     A
C421   O680    1.276   .     A
C421   O704    1.276   .     A
C421   C500    1.428   .     S
C422   H614    1.069   .     S
C422   C1151   1.391   1_545 S
C423   C424    1.396   .     A
C423   H615    1.079   .     S
C423   C1150   1.391   .     S
C424   H616    1.079   .     S
C425   C562    1.484   .     S
C425   C430    1.403   .     A
C425   C426    1.403   .     A
C426   H617    1.083   .     S
C426   C427    1.399   .     A
C427   C428    1.398   .     A
C427   H618    1.082   .     S
C428   C429    1.398   .     A
C428   H619    1.082   .     S
C429   H621    1.082   .     S
C429   C430    1.398   .     A
C430   H622    1.083   .     S
C431   C563    1.484   .     S
C431   C437    1.403   .     A
C431   C433    1.403   .     A
C432   O706    1.276   .     A
C432   C498    1.428   .     S
C432   O681    1.276   .     A
C433   C434    1.398   .     A
C433   H623    1.083   .     S
C434   C435    1.398   .     A
C434   H624    1.082   .     S
C435   C436    1.398   .     A
C435   H625    1.082   .     S
C436   C437    1.399   .     A
C436   H626    1.082   .     S
C437   H627    1.083   .     S
C438   C444    1.403   .     A
C438   C439    1.403   .     A
C438   C564    1.484   .     S
C439   C440    1.399   .     A
C439   H628    1.083   .     S
C440   H629    1.082   .     S
C440   C441    1.398   .     A
C441   H630    1.082   .     S
C441   C442    1.398   .     A
C442   C444    1.398   .     A
C442   H632    1.082   .     S
C443   O693    1.279   .     A
C443   C489    1.429   .     S
C443   O682    1.277   .     A
C444   H633    1.083   .     S
C445   C450    1.403   .     A
C445   C446    1.403   .     A
C446   C447    1.398   .     A
C446   H634    1.083   .     S
C447   C448    1.398   .     A
C447   H635    1.082   .     S
C448   C449    1.398   .     A
C448   H636    1.082   .     S
C449   C450    1.399   .     A
C449   H637    1.082   .     S
C450   H638    1.083   .     S
C451   C457    1.403   .     A
C451   C452    1.403   .     A
C452   C453    1.399   .     A
C452   H639    1.083   .     S
C453   C455    1.398   .     A
C453   H640    1.082   .     S
C454   O695    1.279   .     A
C454   C487    1.429   .     S
C454   O684    1.277   .     A
C455   C456    1.398   .     A
C455   H641    1.082   .     S
C456   C457    1.398   .     A
C456   H643    1.082   .     S
C457   H644    1.083   .     S
C458   C459    1.403   .     A
C458   C463    1.403   .     A
C459   H645    1.083   .     S
C459   C460    1.398   .     A
C460   H646    1.082   .     S
C460   C461    1.398   .     A
C461   C462    1.398   .     A
C461   H647    1.082   .     S
C462   C463    1.399   .     A
C462   H648    1.082   .     S
C463   H649    1.083   .     S
C464   C470    1.403   .     A
C464   C466    1.403   .     A
C465   O691    1.278   .     A
C465   O685    1.279   .     A
C465   C486    1.428   .     S
C466   H650    1.083   .     S
C466   C467    1.399   .     A
C467   H651    1.082   .     S
C467   C468    1.398   .     A
C468   C469    1.398   .     A
C468   H652    1.082   .     S
C469   C470    1.398   .     A
C469   H654    1.082   .     S
C470   H655    1.083   .     S
C471   C472    1.403   .     A
C471   C478    1.403   .     A
C472   C473    1.398   .     A
C472   H656    1.083   .     S
C473   H657    1.082   .     S
C473   C474    1.398   .     A
C474   C475    1.398   .     A
C474   H658    1.082   .     S
C475   H659    1.082   .     S
C475   C478    1.399   .     A
C476   C522    1.464   .     S
C476   O709    1.276   .     A
C476   O1390   1.277   1_545 S
C477   O686    1.279   .     A
C477   O692    1.278   .     A
C477   C485    1.428   .     S
C478   H660    1.083   .     S
C479   O687    1.276   .     A
C479   C484    1.428   .     S
C479   O698    1.276   .     A
C480   O699    1.276   .     A
C480   O688    1.276   .     A
C480   C483    1.428   .     S
C481   O696    1.276   .     A
C481   O689    1.276   .     A
C481   C491    1.428   .     S
C482   O697    1.276   .     A
C482   O690    1.276   .     A
C482   C490    1.428   .     S
C483   C500    1.202   .     T
C484   C498    1.202   .     T
C485   C497    1.202   .     T
C486   C496    1.202   .     T
C487   C495    1.202   .     T
C488   C518    1.461   .     S
C488   O710    1.274   .     S
C489   C494    1.202   .     T
C490   C493    1.201   .     T
C491   C492    1.201   .     T
C497   C554    1.428   .     S
C499   O711    1.267   .     A
C499   C155    1.439   1_655 S
C499   O300    1.268   1_655 S
C501   H565    1.083   .     S
C501   C531    1.406   .     A
C501   C518    1.396   .     A
C502   H576    1.079   .     S
C502   C533    1.407   .     A
C502   C519    1.372   .     A
C503   H587    1.082   .     S
C503   C534    1.405   .     A
C503   C1248   1.384   1_545 S
C504   C535    1.407   .     A
C504   H598    1.084   .     S
C504   C1250   1.396   .     S
C505   H609    1.083   .     S
C505   C527    1.408   .     A
C505   C154    1.398   1_655 S
C506   H620    1.080   .     S
C506   C155    1.375   1_655 S
C506   C164    1.409   1_655 S
C507   C529    1.402   .     A
C507   C520    1.386   .     A
C507   H631    1.082   .     S
C508   C530    1.410   .     A
C508   H642    1.084   .     S
C508   C522    1.396   .     A
C509   C540    1.403   .     A
C509   H653    1.083   .     S
C509   C1251   1.391   1_545 S
C510   C525    1.451   .     S
C510   O301    1.273   1_655 A
C510   O305    1.273   1_655 A
C511   C541    1.403   .     A
C511   H566    1.083   .     S
C511   C1252   1.391   .     S
C512   C542    1.403   .     A
C512   C525    1.391   .     A
C512   H567    1.083   .     S
C513   C526    1.391   .     A
C513   C544    1.403   .     A
C513   H568    1.083   .     S
C514   C536    1.403   .     A
C514   C523    1.391   .     A
C514   H569    1.083   .     S
C515   C537    1.403   .     A
C515   C524    1.391   .     A
C515   H570    1.083   .     S
C516   H571    1.083   .     S
C516   C538    1.403   .     A
C517   C539    1.403   .     A
C517   H572    1.083   .     S
C517   C162    1.391   1_655 S
C520   C1231   1.384   .     S
C521   C526    1.451   .     S
C521   O666    1.273   .     S
C521   O670    1.273   .     S
C522   C1232   1.396   1_545 S
C523   C532    1.450   .     S
C523   C1237   1.391   .     S
C524   C543    1.450   .     S
C524   C1239   1.391   1_545 S
C525   C152    1.391   1_655 S
C527   C553    1.425   .     A
C527   C181    1.422   1_655 S
C528   C555    1.407   .     A
C528   C546    1.410   .     A
C529   C547    1.415   .     A
C529   C556    1.411   .     A
C530   C557    1.424   .     A
C530   C1276   1.414   1_545 S
C531   C558    1.424   .     A
C531   C545    1.421   .     A
C532   O1395   1.271   .     S
C532   O1399   1.271   .     S
C533   C546    1.410   .     A
C533   C559    1.405   .     A
C534   C560    1.414   .     A
C534   C1275   1.413   1_545 S
C535   C548    1.413   .     A
C535   C561    1.417   .     A
C536   C562    1.415   .     A
C536   C549    1.420   .     A
C537   C563    1.415   .     A
C537   C550    1.420   .     A
C538   C564    1.415   .     A
C539   C188    1.420   1_655 S
C540   C1277   1.420   1_545 S
C541   C1278   1.420   .     S
C542   C551    1.420   .     A
C543   O668    1.271   .     A
C543   O673    1.271   .     A
C544   C552    1.420   .     A
C545   C546    1.404   .     A
C547   C548    1.400   .     A
C547   C1262   1.413   .     S
C548   C1258   1.414   .     S
C549   C1268   1.420   .     S
C549   C1278   1.406   1_556 S
C550   C1269   1.420   1_545 S
C550   C1277   1.406   1_544 S
C551   C174    1.420   1_655 S
C551   C188    1.406   1_656 S
C552   C187    1.406   1_554 S
C553   C195    1.412   1_655 S
C554   O702    1.279   .     A
C554   O674    1.278   .     A
C555   C558    1.412   .     A
C556   C561    1.415   .     A
C557   C560    1.425   .     A
C562   C369    1.408   1_556 S
C563   C368    1.409   1_554 S
C564   C371    1.409   1_556 S
H592   C1123   1.080   .     S
H599   C39     1.079   1_655 S
H611   C1145   1.083   .     S
O661   Zn716   1.941   .     S
O661   Zn724   1.936   .     S
O661   Zn713   1.936   .     S
O661   Zn1448  1.936   1_545 S
O662   Zn715   1.939   .     S
O662   C1204   1.277   .     S
O663   C124    1.274   1_655 A
O663   Zn718   1.940   .     S
O664   Zn717   1.940   .     S
O665   Zn727   1.942   .     S
O666   Zn726   1.942   .     S
O667   Zn721   1.940   .     S
O667   C1260   1.271   1_545 S
O668   Zn713   1.940   .     S
O669   Zn723   1.939   .     S
O670   Zn722   1.939   .     S
O671   Zn725   1.940   .     S
O671   C1260   1.271   1_545 S
O672   Zn719   1.936   .     S
O672   Zn721   1.936   .     S
O672   Zn725   1.936   .     S
O672   Zn1443  1.941   1_545 S
O673   Zn724   1.940   .     S
O674   Zn716   1.921   .     S
O675   Zn715   1.921   .     S
O676   Zn718   1.924   .     S
O677   Zn717   1.924   .     S
O678   Zn720   1.922   .     S
O679   Zn719   1.922   .     S
O680   Zn714   1.923   .     S
O681   Zn728   1.923   .     S
O682   Zn715   1.921   .     S
O683   Zn714   1.936   .     S
O683   Zn722   1.941   .     S
O683   Zn726   1.936   .     S
O684   Zn716   1.921   .     S
O685   Zn728   1.924   .     S
O686   Zn714   1.924   .     S
O687   Zn719   1.923   .     S
O688   Zn720   1.923   .     S
O689   Zn717   1.922   .     S
O690   Zn718   1.922   .     S
O691   Zn359   1.921   1_655 S
O692   Zn722   1.921   .     S
O693   Zn1453  1.924   .     S
O694   Zn723   1.941   .     S
O694   Zn717   1.936   .     S
O694   Zn727   1.936   .     S
O695   Zn724   1.924   .     S
O696   Zn727   1.922   .     S
O697   Zn362   1.922   1_655 S
O698   Zn721   1.923   .     S
O699   Zn1441  1.923   .     S
O700   Zn358   1.921   1_655 S
O701   Zn723   1.921   .     S
O702   Zn713   1.924   .     S
O703   Zn1449  1.924   .     S
O704   Zn726   1.923   .     S
O705   Zn720   1.942   .     S
O706   Zn363   1.923   1_655 S
O707   Zn1452  1.922   .     S
O708   Zn725   1.922   .     S
O709   Zn719   1.942   .     S
O710   Zn714   1.940   .     S
O711   Zn728   1.940   .     S
O712   Zn716   1.939   .     S
O712   C1093   1.273   1_545 S
Zn713  O1427   1.923   1_545 S
Zn715  O1400   1.941   .     S
Zn718  O319    1.936   1_655 S
Zn720  O1389   1.936   .     S
Zn721  O1431   1.924   1_545 S
Zn724  O1435   1.922   1_545 S
Zn725  O1421   1.924   1_545 S
Zn728  O330    1.936   1_655 S
C729   O1069   1.269   .     A
C729   C884    1.444   .     S
C729   O348    1.273   1_565 S
C730   O1039   1.278   .     A
C730   O1067   1.279   .     A
C730   C860    1.428   .     S
C731   C809    1.484   .     S
C731   C903    1.415   .     A
C731   C734    1.409   1_554 S
C732   C815    1.484   .     S
C732   C904    1.415   .     A
C732   C927    1.409   1_556 S
C733   C822    1.484   .     S
C733   C905    1.415   .     A
C733   C926    1.408   1_554 S
C734   C828    1.484   .     S
C734   C906    1.415   .     A
C734   C731    1.409   1_556 S
C735   C835    1.484   .     S
C735   C908    1.415   .     A
C735   C928    1.409   1_554 S
C736   C917    1.485   .     S
C736   C737    1.406   .     A
C736   C1106   1.401   .     S
C737   C738    1.397   .     A
C737   H937    1.083   .     S
C738   H938    1.082   .     S
C738   C739    1.396   .     A
C739   H939    1.079   .     S
C739   C1104   1.396   .     S
C740   H941    1.080   .     S
C740   C742    1.396   .     A
C740   C1103   1.396   1_455 S
C741   O1064   1.277   .     A
C741   C859    1.429   .     S
C741   O1040   1.279   .     A
C742   H942    1.080   .     S
C742   C1100   1.401   1_455 S
C743   C748    1.403   .     A
C743   C919    1.478   .     S
C743   C1108   1.404   1_455 S
C744   H943    1.082   .     S
C744   C745    1.398   .     A
C744   C1107   1.404   .     S
C745   H944    1.082   .     S
C745   C1110   1.395   .     S
C746   C747    1.398   .     A
C746   H945    1.082   .     S
C746   C1109   1.395   1_455 S
C747   C748    1.394   .     A
C747   H946    1.082   .     S
C748   H947    1.083   .     S
C749   C750    1.404   .     A
C749   C920    1.484   .     S
C749   C755    1.405   .     A
C750   H948    1.083   .     S
C750   C751    1.398   .     A
C751   H949    1.082   .     S
C751   C753    1.397   .     A
C752   C858    1.429   .     S
C752   O1041   1.279   .     A
C752   O1065   1.277   .     A
C753   C754    1.398   .     A
C753   H950    1.082   .     S
C754   H952    1.082   .     S
C754   C755    1.399   .     A
C755   H953    1.083   .     S
C756   C761    1.409   .     A
C756   C921    1.509   .     S
C757   H954    1.081   .     S
C757   C758    1.388   .     A
C757   C28     1.414   1_565 S
C758   H955    1.077   .     S
C758   C31     1.388   1_565 S
C759   C760    1.393   .     A
C760   H957    1.078   .     S
C760   C761    1.394   .     A
C761   H958    1.070   .     S
C762   C922    1.485   .     S
C762   C764    1.406   .     A
C762   C1132   1.403   1_455 S
C763   O1042   1.276   .     A
C763   O1071   1.276   .     A
C763   C857    1.428   .     S
C764   C765    1.398   .     A
C764   H959    1.083   .     S
C765   H960    1.082   .     S
C765   C766    1.397   .     A
C766   H961    1.080   .     S
C766   C767    1.396   .     A
C767   C1132   1.395   1_455 S
C767   H1327   1.079   1_455 S
C768   H964    1.082   .     S
C768   C1126   1.403   .     S
C768   C1131   1.395   .     S
C769   C923    1.481   .     S
C769   C770    1.408   .     A
C769   C1139   1.402   1_455 S
C770   C771    1.398   .     A
C770   H965    1.083   .     S
C771   C772    1.396   .     A
C771   H966    1.082   .     S
C772   H967    1.082   .     S
C772   C1137   1.397   1_455 S
C773   C775    1.401   .     A
C773   H968    1.082   .     S
C773   C1136   1.397   .     S
C774   O1043   1.276   .     A
C774   C856    1.428   .     S
C774   O1072   1.276   .     A
C775   H969    1.082   .     S
C775   C1133   1.402   .     S
C776   C781    1.405   .     A
C776   C777    1.405   .     A
C776   C924    1.482   .     S
C777   C778    1.398   .     A
C777   H970    1.083   .     S
C778   H971    1.082   .     S
C778   C779    1.397   .     A
C779   H972    1.082   .     S
C779   C780    1.398   .     A
C780   C781    1.399   .     A
C780   H974    1.082   .     S
C782   C925    1.491   .     S
C782   C788    1.406   .     A
C782   C55     1.410   1_565 S
C783   C784    1.387   .     A
C783   H976    1.083   .     S
C784   H977    1.079   .     S
C784   C786    1.390   .     A
C785   O1044   1.276   .     A
C785   O1068   1.276   .     A
C785   C864    1.428   .     S
C786   H978    1.069   .     S
C787   C788    1.396   .     A
C787   H979    1.079   .     S
C787   C58     1.391   1_565 S
C788   H980    1.079   .     S
C789   C926    1.484   .     S
C789   C794    1.403   .     A
C789   C790    1.403   .     A
C790   H981    1.083   .     S
C790   C791    1.399   .     A
C791   C792    1.398   .     A
C791   H982    1.082   .     S
C792   C793    1.398   .     A
C792   H983    1.082   .     S
C793   H985    1.082   .     S
C793   C794    1.398   .     A
C794   H986    1.083   .     S
C795   C927    1.484   .     S
C795   C801    1.403   .     A
C795   C797    1.403   .     A
C796   O1070   1.276   .     A
C796   C862    1.428   .     S
C796   O1045   1.276   .     A
C797   C798    1.398   .     A
C797   H987    1.083   .     S
C798   C799    1.398   .     A
C798   H988    1.082   .     S
C799   C800    1.398   .     A
C799   H989    1.082   .     S
C800   C801    1.399   .     A
C800   H990    1.082   .     S
C801   H991    1.083   .     S
C802   C808    1.403   .     A
C802   C803    1.403   .     A
C802   C928    1.484   .     S
C803   C804    1.399   .     A
C803   H992    1.083   .     S
C804   H993    1.082   .     S
C804   C805    1.398   .     A
C805   H994    1.082   .     S
C805   C806    1.398   .     A
C806   C808    1.398   .     A
C806   H996    1.082   .     S
C807   O1057   1.279   .     A
C807   C853    1.429   .     S
C807   O1046   1.277   .     A
C808   H997    1.083   .     S
C809   C814    1.403   .     A
C809   C810    1.403   .     A
C810   C811    1.398   .     A
C810   H998    1.083   .     S
C811   C812    1.398   .     A
C811   H999    1.082   .     S
C812   C813    1.398   .     A
C812   H1000   1.082   .     S
C813   C814    1.399   .     A
C813   H1001   1.082   .     S
C814   H1002   1.083   .     S
C815   C821    1.403   .     A
C815   C816    1.403   .     A
C816   C817    1.399   .     A
C816   H1003   1.083   .     S
C817   C819    1.398   .     A
C817   H1004   1.082   .     S
C818   O1059   1.279   .     A
C818   C851    1.429   .     S
C818   O1048   1.277   .     A
C819   C820    1.398   .     A
C819   H1005   1.082   .     S
C820   C821    1.398   .     A
C820   H1007   1.082   .     S
C821   H1008   1.083   .     S
C822   C823    1.403   .     A
C822   C827    1.403   .     A
C823   H1009   1.083   .     S
C823   C824    1.398   .     A
C824   H1010   1.082   .     S
C824   C825    1.398   .     A
C825   C826    1.398   .     A
C825   H1011   1.082   .     S
C826   C827    1.399   .     A
C826   H1012   1.082   .     S
C827   H1013   1.083   .     S
C828   C834    1.403   .     A
C828   C830    1.403   .     A
C829   O1055   1.278   .     A
C829   O1049   1.279   .     A
C829   C850    1.428   .     S
C830   H1014   1.083   .     S
C830   C831    1.399   .     A
C831   H1015   1.082   .     S
C831   C832    1.398   .     A
C832   C833    1.398   .     A
C832   H1016   1.082   .     S
C833   C834    1.398   .     A
C833   H1018   1.082   .     S
C834   H1019   1.083   .     S
C835   C836    1.403   .     A
C835   C842    1.403   .     A
C836   C837    1.398   .     A
C836   H1020   1.083   .     S
C837   H1021   1.082   .     S
C837   C838    1.398   .     A
C838   C839    1.398   .     A
C838   H1022   1.082   .     S
C839   H1023   1.082   .     S
C839   C842    1.399   .     A
C840   C886    1.464   .     S
C840   O1073   1.276   .     A
C841   O1050   1.279   .     A
C841   O1056   1.278   .     A
C841   C849    1.428   .     S
C842   H1024   1.083   .     S
C843   O1051   1.276   .     A
C843   C848    1.428   .     S
C843   O1062   1.276   .     A
C844   O1063   1.276   .     A
C844   O1052   1.276   .     A
C844   C847    1.428   .     S
C845   O1060   1.276   .     A
C845   O1053   1.276   .     A
C845   C855    1.428   .     S
C846   O1061   1.276   .     A
C846   O1054   1.276   .     A
C846   C854    1.428   .     S
C847   C864    1.202   .     T
C848   C862    1.202   .     T
C849   C861    1.202   .     T
C850   C860    1.202   .     T
C851   C859    1.202   .     T
C852   O1391   1.274   1_455 A
C852   C882    1.461   .     S
C852   O1074   1.274   .     S
C853   C858    1.202   .     T
C854   C857    1.201   .     T
C855   C856    1.201   .     T
C861   C918    1.428   .     S
C863   O1075   1.267   .     A
C863   C1247   1.439   .     S
C863   O1392   1.268   .     S
C865   H929    1.083   .     S
C865   C895    1.406   .     A
C865   C882    1.396   .     A
C866   H940    1.079   .     S
C866   C897    1.407   .     A
C866   C883    1.372   .     A
C867   H951    1.082   .     S
C867   C898    1.405   .     A
C868   C899    1.407   .     A
C868   H962    1.084   .     S
C868   C158    1.396   1_565 S
C869   H973    1.083   .     S
C869   C891    1.408   .     A
C869   C1246   1.398   .     S
C870   H984    1.080   .     S
C870   C1247   1.375   .     S
C870   C1256   1.409   .     S
C871   C893    1.402   .     A
C871   C884    1.386   .     A
C871   H995    1.082   .     S
C872   C894    1.410   .     A
C872   H1006   1.084   .     S
C872   C886    1.396   .     A
C873   C904    1.403   .     A
C873   H1017   1.083   .     S
C874   C889    1.451   .     S
C874   O1393   1.273   .     A
C874   O1397   1.273   .     A
C875   C905    1.403   .     A
C875   H930    1.083   .     S
C875   C160    1.391   1_565 S
C876   C906    1.403   .     A
C876   C889    1.391   .     A
C876   H931    1.083   .     S
C877   C890    1.391   .     A
C877   C908    1.403   .     A
C877   H932    1.083   .     S
C878   C900    1.403   .     A
C878   C887    1.391   .     A
C878   H933    1.083   .     S
C879   C901    1.403   .     A
C879   C888    1.391   .     A
C879   H934    1.083   .     S
C880   H935    1.083   .     S
C880   C902    1.403   .     A
C880   C1253   1.391   1_455 S
C881   C903    1.403   .     A
C881   H936    1.083   .     S
C881   C1254   1.391   .     S
C882   C1233   1.398   1_455 S
C883   C1227   1.439   1_455 S
C883   C1234   1.375   1_455 S
C884   C139    1.384   1_565 S
C885   C890    1.451   .     S
C885   O1030   1.273   .     S
C885   O1034   1.273   .     S
C887   C896    1.450   .     S
C887   C145    1.391   1_565 S
C888   C907    1.450   .     S
C889   C1244   1.391   .     S
C890   C1245   1.391   1_455 S
C891   C917    1.425   .     A
C891   C1273   1.422   .     S
C892   C919    1.407   .     A
C892   C910    1.410   .     A
C892   C1234   1.409   1_455 S
C893   C911    1.415   .     A
C893   C920    1.411   .     A
C894   C921    1.424   .     A
C895   C922    1.424   .     A
C895   C909    1.421   .     A
C896   O303    1.271   1_565 S
C896   O307    1.271   1_565 S
C897   C910    1.410   .     A
C897   C923    1.405   .     A
C898   C924    1.414   .     A
C899   C912    1.413   .     A
C899   C925    1.417   .     A
C900   C926    1.415   .     A
C900   C913    1.420   .     A
C901   C927    1.415   .     A
C901   C914    1.420   .     A
C902   C928    1.415   .     A
C902   C1279   1.420   1_455 S
C903   C1280   1.420   .     S
C905   C186    1.420   1_565 S
C906   C915    1.420   .     A
C907   O1032   1.271   .     A
C907   O1037   1.271   .     A
C908   C916    1.420   .     A
C909   C910    1.404   .     A
C909   C1255   1.422   1_455 S
C911   C912    1.400   .     A
C911   C170    1.413   1_565 S
C912   C166    1.414   1_565 S
C913   C176    1.420   1_565 S
C913   C186    1.406   1_566 S
C914   C185    1.406   1_554 S
C915   C1266   1.420   .     S
C915   C1280   1.406   1_556 S
C916   C1267   1.420   1_455 S
C916   C1279   1.406   1_454 S
C917   C1287   1.412   .     S
C918   O1066   1.279   .     A
C918   O1038   1.278   .     A
C919   C922    1.412   .     A
C920   C925    1.415   .     A
C921   C924    1.425   .     A
C923   C1281   1.412   1_455 S
C926   C733    1.408   1_556 S
C927   C732    1.409   1_554 S
C928   C735    1.409   1_556 S
H956   C31     1.080   1_565 S
H963   C1131   1.079   .     S
H975   C53     1.083   1_565 S
O1025  Zn1080  1.941   .     S
O1025  Zn1088  1.936   .     S
O1025  Zn1077  1.936   .     S
O1026  Zn1079  1.939   .     S
O1026  C112    1.277   1_565 S
O1027  C1216   1.274   .     A
O1027  Zn1082  1.940   .     S
O1028  Zn1081  1.940   .     S
O1028  C1227   1.268   1_455 S
O1029  C1238   1.273   1_455 A
O1029  Zn1091  1.942   .     S
O1030  Zn1090  1.942   .     S
O1031  Zn1085  1.940   .     S
O1032  Zn1077  1.940   .     S
O1033  C1238   1.273   1_455 A
O1033  Zn1087  1.939   .     S
O1034  Zn1086  1.939   .     S
O1035  Zn1089  1.940   .     S
O1036  Zn1083  1.936   .     S
O1036  Zn1085  1.936   .     S
O1036  Zn1089  1.936   .     S
O1037  Zn1088  1.940   .     S
O1038  Zn1080  1.921   .     S
O1039  Zn1079  1.921   .     S
O1040  Zn1082  1.924   .     S
O1041  Zn1081  1.924   .     S
O1042  Zn1084  1.922   .     S
O1043  Zn1083  1.922   .     S
O1044  Zn1078  1.923   .     S
O1045  Zn1092  1.923   .     S
O1046  Zn1079  1.921   .     S
O1047  Zn1078  1.936   .     S
O1047  Zn1446  1.936   1_455 S
O1047  Zn1086  1.941   .     S
O1047  Zn1090  1.936   .     S
O1048  Zn1080  1.921   .     S
O1049  Zn1092  1.924   .     S
O1050  Zn1078  1.924   .     S
O1051  Zn1083  1.923   .     S
O1052  Zn1084  1.923   .     S
O1053  Zn1081  1.922   .     S
O1054  Zn1082  1.922   .     S
O1055  Zn1451  1.921   .     S
O1056  Zn1086  1.921   .     S
O1057  Zn361   1.924   1_565 S
O1058  Zn1087  1.941   .     S
O1058  Zn1456  1.936   1_455 S
O1058  Zn1081  1.936   .     S
O1058  Zn1091  1.936   .     S
O1059  Zn1088  1.924   .     S
O1060  Zn1091  1.922   .     S
O1061  Zn1454  1.922   .     S
O1062  Zn1085  1.923   .     S
O1063  Zn349   1.923   1_565 S
O1064  Zn1450  1.921   .     S
O1065  Zn1087  1.921   .     S
O1066  Zn1077  1.924   .     S
O1067  Zn357   1.924   1_565 S
O1068  Zn1090  1.923   .     S
O1069  Zn1084  1.942   .     S
O1070  Zn1455  1.923   .     S
O1071  Zn360   1.922   1_565 S
O1072  Zn1089  1.922   .     S
O1073  Zn1083  1.942   .     S
O1074  Zn1078  1.940   .     S
O1075  Zn1092  1.940   .     S
O1076  Zn1080  1.939   .     S
Zn1079 O308    1.941   1_565 S
Zn1082 O1411   1.936   .     S
Zn1084 O297    1.936   1_565 S
Zn1086 O1428   1.921   1_455 S
Zn1087 O1419   1.921   1_455 S
Zn1090 O1425   1.922   1_455 S
Zn1091 O1434   1.923   1_455 S
Zn1092 O1422   1.936   .     S
C1093  O1433   1.269   .     A
C1093  C1248   1.444   .     S
C1093  O712    1.273   1_565 S
C1094  O1403   1.278   .     A
C1094  O1431   1.279   .     A
C1094  C1224   1.428   .     S
C1095  C1173   1.484   .     S
C1095  C1267   1.415   .     A
C1095  C1098   1.409   1_554 S
C1096  C1179   1.484   .     S
C1096  C1268   1.415   .     A
C1096  C1291   1.409   1_556 S
C1097  C1186   1.484   .     S
C1097  C1269   1.415   .     A
C1097  C1290   1.408   1_554 S
C1098  C1192   1.484   .     S
C1098  C1270   1.415   .     A
C1098  C1095   1.409   1_556 S
C1099  C1199   1.484   .     S
C1099  C1272   1.415   .     A
C1099  C1292   1.409   1_554 S
C1100  C1281   1.485   .     S
C1100  C1101   1.406   .     A
C1100  C742    1.401   1_655 S
C1101  C1102   1.397   .     A
C1101  H1301   1.083   .     S
C1102  H1302   1.082   .     S
C1102  C1103   1.396   .     A
C1103  H1303   1.079   .     S
C1103  C740    1.396   1_655 S
C1104  H1305   1.080   .     S
C1104  C1106   1.396   .     A
C1105  O1428   1.277   .     A
C1105  C1223   1.429   .     S
C1105  O1404   1.279   .     A
C1106  H1306   1.080   .     S
C1107  C1112   1.403   .     A
C1107  C1283   1.478   .     S
C1108  H1307   1.082   .     S
C1108  C1109   1.398   .     A
C1108  C743    1.404   1_655 S
C1109  H1308   1.082   .     S
C1109  C746    1.395   1_655 S
C1110  C1111   1.398   .     A
C1110  H1309   1.082   .     S
C1111  C1112   1.394   .     A
C1111  H1310   1.082   .     S
C1112  H1311   1.083   .     S
C1113  C1114   1.404   .     A
C1113  C1284   1.484   .     S
C1113  C1119   1.405   .     A
C1114  H1312   1.083   .     S
C1114  C1115   1.398   .     A
C1115  H1313   1.082   .     S
C1115  C1117   1.397   .     A
C1116  C1222   1.429   .     S
C1116  O1405   1.279   .     A
C1116  O1429   1.277   .     A
C1117  C1118   1.398   .     A
C1117  H1314   1.082   .     S
C1118  H1316   1.082   .     S
C1118  C1119   1.399   .     A
C1119  H1317   1.083   .     S
C1120  C1125   1.409   .     A
C1120  C1285   1.509   .     S
C1121  H1318   1.081   .     S
C1121  C1122   1.388   .     A
C1121  C392    1.414   1_565 S
C1122  H1319   1.077   .     S
C1122  C395    1.388   1_565 S
C1123  C1124   1.393   .     A
C1124  H1321   1.078   .     S
C1124  C1125   1.394   .     A
C1125  H1322   1.070   .     S
C1126  C1286   1.485   .     S
C1126  C1128   1.406   .     A
C1127  O1406   1.276   .     A
C1127  O1435   1.276   .     A
C1127  C1221   1.428   .     S
C1128  C1129   1.398   .     A
C1128  H1323   1.083   .     S
C1129  H1324   1.082   .     S
C1129  C1130   1.397   .     A
C1130  H1325   1.080   .     S
C1130  C1131   1.396   .     A
C1132  H1328   1.082   .     S
C1132  C762    1.403   1_655 S
C1132  C767    1.395   1_655 S
C1133  C1287   1.481   .     S
C1133  C1134   1.408   .     A
C1134  C1135   1.398   .     A
C1134  H1329   1.083   .     S
C1135  C1136   1.396   .     A
C1135  H1330   1.082   .     S
C1136  H1331   1.082   .     S
C1137  C1139   1.401   .     A
C1137  H1332   1.082   .     S
C1137  C772    1.397   1_655 S
C1138  O1407   1.276   .     A
C1138  C1220   1.428   .     S
C1138  O1436   1.276   .     A
C1139  H1333   1.082   .     S
C1139  C769    1.402   1_655 S
C1140  C1145   1.405   .     A
C1140  C1141   1.405   .     A
C1140  C1288   1.482   .     S
C1141  C1142   1.398   .     A
C1141  H1334   1.083   .     S
C1142  H1335   1.082   .     S
C1142  C1143   1.397   .     A
C1143  H1336   1.082   .     S
C1143  C1144   1.398   .     A
C1144  C1145   1.399   .     A
C1144  H1338   1.082   .     S
C1146  C1289   1.491   .     S
C1146  C1152   1.406   .     A
C1146  C419    1.410   1_565 S
C1147  C1148   1.387   .     A
C1147  H1340   1.083   .     S
C1148  H1341   1.079   .     S
C1148  C1150   1.390   .     A
C1149  O1408   1.276   .     A
C1149  O1432   1.276   .     A
C1149  C1228   1.428   .     S
C1150  H1342   1.069   .     S
C1151  C1152   1.396   .     A
C1151  H1343   1.079   .     S
C1151  C422    1.391   1_565 S
C1152  H1344   1.079   .     S
C1153  C1290   1.484   .     S
C1153  C1158   1.403   .     A
C1153  C1154   1.403   .     A
C1154  H1345   1.083   .     S
C1154  C1155   1.399   .     A
C1155  C1156   1.398   .     A
C1155  H1346   1.082   .     S
C1156  C1157   1.398   .     A
C1156  H1347   1.082   .     S
C1157  H1349   1.082   .     S
C1157  C1158   1.398   .     A
C1158  H1350   1.083   .     S
C1159  C1291   1.484   .     S
C1159  C1165   1.403   .     A
C1159  C1161   1.403   .     A
C1160  O1434   1.276   .     A
C1160  C1226   1.428   .     S
C1160  O1409   1.276   .     A
C1161  C1162   1.398   .     A
C1161  H1351   1.083   .     S
C1162  C1163   1.398   .     A
C1162  H1352   1.082   .     S
C1163  C1164   1.398   .     A
C1163  H1353   1.082   .     S
C1164  C1165   1.399   .     A
C1164  H1354   1.082   .     S
C1165  H1355   1.083   .     S
C1166  C1172   1.403   .     A
C1166  C1167   1.403   .     A
C1166  C1292   1.484   .     S
C1167  C1168   1.399   .     A
C1167  H1356   1.083   .     S
C1168  H1357   1.082   .     S
C1168  C1169   1.398   .     A
C1169  H1358   1.082   .     S
C1169  C1170   1.398   .     A
C1170  C1172   1.398   .     A
C1170  H1360   1.082   .     S
C1171  O1421   1.279   .     A
C1171  C1217   1.429   .     S
C1171  O1410   1.277   .     A
C1172  H1361   1.083   .     S
C1173  C1178   1.403   .     A
C1173  C1174   1.403   .     A
C1174  C1175   1.398   .     A
C1174  H1362   1.083   .     S
C1175  C1176   1.398   .     A
C1175  H1363   1.082   .     S
C1176  C1177   1.398   .     A
C1176  H1364   1.082   .     S
C1177  C1178   1.399   .     A
C1177  H1365   1.082   .     S
C1178  H1366   1.083   .     S
C1179  C1185   1.403   .     A
C1179  C1180   1.403   .     A
C1180  C1181   1.399   .     A
C1180  H1367   1.083   .     S
C1181  C1183   1.398   .     A
C1181  H1368   1.082   .     S
C1182  O1423   1.279   .     A
C1182  C1215   1.429   .     S
C1182  O1412   1.277   .     A
C1183  C1184   1.398   .     A
C1183  H1369   1.082   .     S
C1184  C1185   1.398   .     A
C1184  H1371   1.082   .     S
C1185  H1372   1.083   .     S
C1186  C1187   1.403   .     A
C1186  C1191   1.403   .     A
C1187  H1373   1.083   .     S
C1187  C1188   1.398   .     A
C1188  H1374   1.082   .     S
C1188  C1189   1.398   .     A
C1189  C1190   1.398   .     A
C1189  H1375   1.082   .     S
C1190  C1191   1.399   .     A
C1190  H1376   1.082   .     S
C1191  H1377   1.083   .     S
C1192  C1198   1.403   .     A
C1192  C1194   1.403   .     A
C1193  O1419   1.278   .     A
C1193  O1413   1.279   .     A
C1193  C1214   1.428   .     S
C1194  H1378   1.083   .     S
C1194  C1195   1.399   .     A
C1195  H1379   1.082   .     S
C1195  C1196   1.398   .     A
C1196  C1197   1.398   .     A
C1196  H1380   1.082   .     S
C1197  C1198   1.398   .     A
C1197  H1382   1.082   .     S
C1198  H1383   1.083   .     S
C1199  C1200   1.403   .     A
C1199  C1206   1.403   .     A
C1200  C1201   1.398   .     A
C1200  H1384   1.083   .     S
C1201  H1385   1.082   .     S
C1201  C1202   1.398   .     A
C1202  C1203   1.398   .     A
C1202  H1386   1.082   .     S
C1203  H1387   1.082   .     S
C1203  C1206   1.399   .     A
C1204  C1250   1.464   .     S
C1204  O1437   1.276   .     A
C1205  O1414   1.279   .     A
C1205  O1420   1.278   .     A
C1205  C1213   1.428   .     S
C1206  H1388   1.083   .     S
C1207  O1415   1.276   .     A
C1207  C1212   1.428   .     S
C1207  O1426   1.276   .     A
C1208  O1427   1.276   .     A
C1208  O1416   1.276   .     A
C1208  C1211   1.428   .     S
C1209  O1424   1.276   .     A
C1209  O1417   1.276   .     A
C1209  C1219   1.428   .     S
C1210  O1425   1.276   .     A
C1210  O1418   1.276   .     A
C1210  C1218   1.428   .     S
C1211  C1228   1.202   .     T
C1212  C1226   1.202   .     T
C1213  C1225   1.202   .     T
C1214  C1224   1.202   .     T
C1215  C1223   1.202   .     T
C1216  C1246   1.461   .     S
C1216  O1438   1.274   .     S
C1217  C1222   1.202   .     T
C1218  C1221   1.201   .     T
C1219  C1220   1.201   .     T
C1225  C1282   1.428   .     S
C1227  O1439   1.267   .     A
C1227  C883    1.439   1_655 S
C1227  O1028   1.268   1_655 S
C1229  H1293   1.083   .     S
C1229  C1259   1.406   .     A
C1229  C1246   1.396   .     A
C1230  H1304   1.079   .     S
C1230  C1261   1.407   .     A
C1230  C1247   1.372   .     A
C1231  H1315   1.082   .     S
C1231  C1262   1.405   .     A
C1232  C1263   1.407   .     A
C1232  H1326   1.084   .     S
C1232  C522    1.396   1_565 S
C1233  H1337   1.083   .     S
C1233  C1255   1.408   .     A
C1233  C882    1.398   1_655 S
C1234  H1348   1.080   .     S
C1234  C883    1.375   1_655 S
C1234  C892    1.409   1_655 S
C1235  C1257   1.402   .     A
C1235  C1248   1.386   .     A
C1235  H1359   1.082   .     S
C1236  C1258   1.410   .     A
C1236  H1370   1.084   .     S
C1236  C1250   1.396   .     A
C1237  C1268   1.403   .     A
C1237  H1381   1.083   .     S
C1238  C1253   1.451   .     S
C1238  O1029   1.273   1_655 A
C1238  O1033   1.273   1_655 A
C1239  C1269   1.403   .     A
C1239  H1294   1.083   .     S
C1239  C524    1.391   1_565 S
C1240  C1270   1.403   .     A
C1240  C1253   1.391   .     A
C1240  H1295   1.083   .     S
C1241  C1254   1.391   .     A
C1241  C1272   1.403   .     A
C1241  H1296   1.083   .     S
C1242  C1264   1.403   .     A
C1242  C1251   1.391   .     A
C1242  H1297   1.083   .     S
C1243  C1265   1.403   .     A
C1243  C1252   1.391   .     A
C1243  H1298   1.083   .     S
C1244  H1299   1.083   .     S
C1244  C1266   1.403   .     A
C1245  C1267   1.403   .     A
C1245  H1300   1.083   .     S
C1245  C890    1.391   1_655 S
C1248  C503    1.384   1_565 S
C1249  C1254   1.451   .     S
C1249  O1394   1.273   .     S
C1249  O1398   1.273   .     S
C1251  C1260   1.450   .     S
C1251  C509    1.391   1_565 S
C1252  C1271   1.450   .     S
C1253  C880    1.391   1_655 S
C1255  C1281   1.425   .     A
C1255  C909    1.422   1_655 S
C1256  C1283   1.407   .     A
C1256  C1274   1.410   .     A
C1257  C1275   1.415   .     A
C1257  C1284   1.411   .     A
C1258  C1285   1.424   .     A
C1259  C1286   1.424   .     A
C1259  C1273   1.421   .     A
C1260  O667    1.271   1_565 S
C1260  O671    1.271   1_565 S
C1261  C1274   1.410   .     A
C1261  C1287   1.405   .     A
C1262  C1288   1.414   .     A
C1263  C1276   1.413   .     A
C1263  C1289   1.417   .     A
C1264  C1290   1.415   .     A
C1264  C1277   1.420   .     A
C1265  C1291   1.415   .     A
C1265  C1278   1.420   .     A
C1266  C1292   1.415   .     A
C1267  C916    1.420   1_655 S
C1269  C550    1.420   1_565 S
C1270  C1279   1.420   .     A
C1271  O1396   1.271   .     A
C1271  O1401   1.271   .     A
C1272  C1280   1.420   .     A
C1273  C1274   1.404   .     A
C1275  C1276   1.400   .     A
C1275  C534    1.413   1_565 S
C1276  C530    1.414   1_565 S
C1277  C540    1.420   1_565 S
C1277  C550    1.406   1_566 S
C1278  C549    1.406   1_554 S
C1279  C902    1.420   1_655 S
C1279  C916    1.406   1_656 S
C1280  C915    1.406   1_554 S
C1281  C923    1.412   1_655 S
C1282  O1430   1.279   .     A
C1282  O1402   1.278   .     A
C1283  C1286   1.412   .     A
C1284  C1289   1.415   .     A
C1285  C1288   1.425   .     A
C1290  C1097   1.408   1_556 S
C1291  C1096   1.409   1_554 S
C1292  C1099   1.409   1_556 S
H1320  C395    1.080   1_565 S
H1327  C767    1.079   1_655 S
H1339  C417    1.083   1_565 S
O1389  Zn1444  1.941   .     S
O1389  Zn1452  1.936   .     S
O1389  Zn1441  1.936   .     S
O1390  Zn1443  1.939   .     S
O1390  C476    1.277   1_565 S
O1391  C852    1.274   1_655 A
O1391  Zn1446  1.940   .     S
O1392  Zn1445  1.940   .     S
O1393  Zn1455  1.942   .     S
O1394  Zn1454  1.942   .     S
O1395  Zn1449  1.940   .     S
O1396  Zn1441  1.940   .     S
O1397  Zn1451  1.939   .     S
O1398  Zn1450  1.939   .     S
O1399  Zn1453  1.940   .     S
O1400  Zn1447  1.936   .     S
O1400  Zn1449  1.936   .     S
O1400  Zn1453  1.936   .     S
O1401  Zn1452  1.940   .     S
O1402  Zn1444  1.921   .     S
O1403  Zn1443  1.921   .     S
O1404  Zn1446  1.924   .     S
O1405  Zn1445  1.924   .     S
O1406  Zn1448  1.922   .     S
O1407  Zn1447  1.922   .     S
O1408  Zn1442  1.923   .     S
O1409  Zn1456  1.923   .     S
O1410  Zn1443  1.921   .     S
O1411  Zn1442  1.936   .     S
O1411  Zn1450  1.941   .     S
O1411  Zn1454  1.936   .     S
O1412  Zn1444  1.921   .     S
O1413  Zn1456  1.924   .     S
O1414  Zn1442  1.924   .     S
O1415  Zn1447  1.923   .     S
O1416  Zn1448  1.923   .     S
O1417  Zn1445  1.922   .     S
O1418  Zn1446  1.922   .     S
O1419  Zn1087  1.921   1_655 S
O1420  Zn1450  1.921   .     S
O1421  Zn725   1.924   1_565 S
O1422  Zn1451  1.941   .     S
O1422  Zn1445  1.936   .     S
O1422  Zn1455  1.936   .     S
O1423  Zn1452  1.924   .     S
O1424  Zn1455  1.922   .     S
O1425  Zn1090  1.922   1_655 S
O1426  Zn1449  1.923   .     S
O1427  Zn713   1.923   1_565 S
O1428  Zn1086  1.921   1_655 S
O1429  Zn1451  1.921   .     S
O1430  Zn1441  1.924   .     S
O1431  Zn721   1.924   1_565 S
O1432  Zn1454  1.923   .     S
O1433  Zn1448  1.942   .     S
O1434  Zn1091  1.923   1_655 S
O1435  Zn724   1.922   1_565 S
O1436  Zn1453  1.922   .     S
O1437  Zn1447  1.942   .     S
O1438  Zn1442  1.940   .     S
O1439  Zn1456  1.940   .     S
O1440  Zn1444  1.939   .     S
Zn1443 O672    1.941   1_565 S
Zn1446 O1047   1.936   1_655 S
Zn1448 O661    1.936   1_565 S
Zn1456 O1058   1.936   1_655 S
