data_str_m1_o1_o17_pcu_sym.62
_audit_creation_date              2020-01-03
_audit_creation_method            'Materials Studio'
_symmetry_space_group_name_H-M    'P1'
_symmetry_Int_Tables_number       1
_symmetry_cell_setting            triclinic
loop_
_symmetry_equiv_pos_as_xyz
  x,y,z
_cell_length_a                    36.5290
_cell_length_b                    36.5293
_cell_length_c                    34.4719
_cell_angle_alpha                 90.0000
_cell_angle_beta                  90.0000
_cell_angle_gamma                 89.9920
loop_
_atom_site_label
_atom_site_type_symbol
_atom_site_fract_x
_atom_site_fract_y
_atom_site_fract_z
_atom_site_U_iso_or_equiv
_atom_site_adp_type
_atom_site_occupancy
Br1    Br    0.10801   0.21472   0.45239   0.00000  Uiso   1.00
Br2    Br    0.35892   0.46764   0.04761   0.00000  Uiso   1.00
Br3    Br    0.03458   0.14176   0.95239   0.00000  Uiso   1.00
Br4    Br    0.46542   0.35824   0.04761   0.00000  Uiso   1.00
Br5    Br    0.35892   0.46763   0.95239   0.00000  Uiso   1.00
Br6    Br    0.14108   0.03236   0.04761   0.00000  Uiso   1.00
Br7    Br    0.46542   0.35824   0.95239   0.00000  Uiso   1.00
Br8    Br    0.03458   0.14176   0.04761   0.00000  Uiso   1.00
Br9    Br    0.10289   0.46147   0.27149   0.00000  Uiso   1.00
Br10   Br    0.39711   0.03853   0.72851   0.00000  Uiso   1.00
Br11   Br    0.10686   0.17117   0.16848   0.00000  Uiso   1.00
Br12   Br    0.39199   0.28528   0.54761   0.00000  Uiso   1.00
Br13   Br    0.39315   0.32883   0.83152   0.00000  Uiso   1.00
Br14   Br    0.39712   0.03853   0.27148   0.00000  Uiso   1.00
Br15   Br    0.10289   0.46147   0.72851   0.00000  Uiso   1.00
Br16   Br    0.39314   0.32883   0.16848   0.00000  Uiso   1.00
Br17   Br    0.10686   0.17117   0.83152   0.00000  Uiso   1.00
Br18   Br    0.17118   0.10686   0.83151   0.00000  Uiso   1.00
Br19   Br    0.32882   0.39314   0.16848   0.00000  Uiso   1.00
Br20   Br    0.03853   0.39711   0.72851   0.00000  Uiso   1.00
Br21   Br    0.46147   0.10289   0.27148   0.00000  Uiso   1.00
Br22   Br    0.32883   0.39314   0.83152   0.00000  Uiso   1.00
Br23   Br    0.28510   0.39193   0.45239   0.00000  Uiso   1.00
Br24   Br    0.17118   0.10686   0.16848   0.00000  Uiso   1.00
Br25   Br    0.46147   0.10289   0.72850   0.00000  Uiso   1.00
Br26   Br    0.03853   0.39711   0.27149   0.00000  Uiso   1.00
Br27   Br    0.35289   0.21147   0.77149   0.00000  Uiso   1.00
Br28   Br    0.14711   0.28853   0.22851   0.00000  Uiso   1.00
Br29   Br    0.35685   0.42116   0.66848   0.00000  Uiso   1.00
Br30   Br    0.14315   0.07883   0.33152   0.00000  Uiso   1.00
Br31   Br    0.14711   0.28853   0.77149   0.00000  Uiso   1.00
Br32   Br    0.35289   0.21147   0.22851   0.00000  Uiso   1.00
Br33   Br    0.14315   0.07883   0.66848   0.00000  Uiso   1.00
Br34   Br    0.21490   0.10807   0.54761   0.00000  Uiso   1.00
Br35   Br    0.35685   0.42117   0.33152   0.00000  Uiso   1.00
Br36   Br    0.42117   0.35685   0.33152   0.00000  Uiso   1.00
Br37   Br    0.07883   0.14315   0.66848   0.00000  Uiso   1.00
Br38   Br    0.28853   0.14711   0.22851   0.00000  Uiso   1.00
Br39   Br    0.21147   0.35289   0.77149   0.00000  Uiso   1.00
Br40   Br    0.07883   0.14315   0.33152   0.00000  Uiso   1.00
Br41   Br    0.42116   0.35685   0.66848   0.00000  Uiso   1.00
Br42   Br    0.21147   0.35289   0.22850   0.00000  Uiso   1.00
Br43   Br    0.28853   0.14711   0.77149   0.00000  Uiso   1.00
Br44   Br    0.39199   0.28528   0.45239   0.00000  Uiso   1.00
Br45   Br    0.10801   0.21472   0.54761   0.00000  Uiso   1.00
Br46   Br    0.21490   0.10807   0.45239   0.00000  Uiso   1.00
Br47   Br    0.28510   0.39193   0.54761   0.00000  Uiso   1.00
Br48   Br    0.14108   0.03237   0.95239   0.00000  Uiso   1.00
C49    C     0.46840   0.25987   0.41859   0.00000  Uiso   1.00
C50    C     0.21816   0.00908   0.08140   0.00000  Uiso   1.00
C51    C     0.23981   0.03214   0.54080   0.00000  Uiso   1.00
C52    C     0.46787   0.26025   0.45920   0.00000  Uiso   1.00
C53    C     0.03213   0.23975   0.54080   0.00000  Uiso   1.00
C54    C     0.23981   0.03214   0.45920   0.00000  Uiso   1.00
C55    C     0.26019   0.46786   0.54080   0.00000  Uiso   1.00
C56    C     0.21762   0.00941   0.95920   0.00000  Uiso   1.00
C57    C     0.28238   0.49059   0.04080   0.00000  Uiso   1.00
C58    C     0.01005   0.21781   0.95920   0.00000  Uiso   1.00
C59    C     0.48996   0.28219   0.04080   0.00000  Uiso   1.00
C60    C     0.28238   0.49059   0.95920   0.00000  Uiso   1.00
C61    C     0.49032   0.28165   0.91859   0.00000  Uiso   1.00
C62    C     0.21762   0.00941   0.04080   0.00000  Uiso   1.00
C63    C     0.48996   0.28219   0.95920   0.00000  Uiso   1.00
C64    C     0.01004   0.21781   0.04080   0.00000  Uiso   1.00
C65    C     0.09808   0.34808   0.25000   0.00000  Uiso   1.00
C66    C     0.40192   0.15192   0.75000   0.00000  Uiso   1.00
C67    C     0.15193   0.09807   0.25000   0.00000  Uiso   1.00
C68    C     0.34807   0.40193   0.75000   0.00000  Uiso   1.00
C69    C     0.40192   0.15192   0.25000   0.00000  Uiso   1.00
C70    C     0.09808   0.34808   0.75000   0.00000  Uiso   1.00
C71    C     0.34807   0.40193   0.25000   0.00000  Uiso   1.00
C72    C     0.00968   0.21835   0.08140   0.00000  Uiso   1.00
C73    C     0.15193   0.09807   0.75000   0.00000  Uiso   1.00
C74    C     0.09807   0.15193   0.75000   0.00000  Uiso   1.00
C75    C     0.40193   0.34807   0.25000   0.00000  Uiso   1.00
C76    C     0.15192   0.40192   0.75000   0.00000  Uiso   1.00
C77    C     0.34808   0.09808   0.25000   0.00000  Uiso   1.00
C78    C     0.40193   0.34807   0.75000   0.00000  Uiso   1.00
C79    C     0.09807   0.15193   0.25000   0.00000  Uiso   1.00
C80    C     0.34808   0.09808   0.75000   0.00000  Uiso   1.00
C81    C     0.15192   0.40192   0.25000   0.00000  Uiso   1.00
C82    C     0.00000   0.25000   0.47963   0.00000  Uiso   1.00
C83    C     0.21816   0.00908   0.91860   0.00000  Uiso   1.00
C84    C     0.00000   0.25000   0.52037   0.00000  Uiso   1.00
C85    C     0.25000  -0.00000   0.47963   0.00000  Uiso   1.00
C86    C     0.25000   0.00000   0.52037   0.00000  Uiso   1.00
C87    C     0.25000   0.00000   0.97963   0.00000  Uiso   1.00
C88    C     0.25000   0.00000   0.02037   0.00000  Uiso   1.00
C89    C     0.00000   0.25000   0.97963   0.00000  Uiso   1.00
C90    C     0.00000   0.25000   0.02037   0.00000  Uiso   1.00
C91    C     0.28184   0.49093   0.08140   0.00000  Uiso   1.00
C92    C     0.00968   0.21835   0.91859   0.00000  Uiso   1.00
C93    C     0.49032   0.28165   0.08140   0.00000  Uiso   1.00
C94    C     0.00000   0.25000   0.39842   0.00000  Uiso   1.00
C95    C     0.00000   0.25000   0.60158   0.00000  Uiso   1.00
C96    C     0.25000  -0.00000   0.39842   0.00000  Uiso   1.00
C97    C     0.03160   0.24013   0.58141   0.00000  Uiso   1.00
C98    C     0.25000   0.00000   0.60158   0.00000  Uiso   1.00
C99    C     0.25000  -0.00000   0.89842   0.00000  Uiso   1.00
C100   C     0.25000   0.00000   0.10158   0.00000  Uiso   1.00
C101   C     0.00000   0.25000   0.89842   0.00000  Uiso   1.00
C102   C     0.00000   0.25000   0.10158   0.00000  Uiso   1.00
C103   C     0.06399   0.22932   0.47963   0.00000  Uiso   1.00
C104   C     0.43601   0.27068   0.52037   0.00000  Uiso   1.00
C105   C     0.27057   0.43597   0.47963   0.00000  Uiso   1.00
C106   C     0.22943   0.06403   0.52037   0.00000  Uiso   1.00
C107   C     0.43601   0.27068   0.47963   0.00000  Uiso   1.00
C108   C     0.24018   0.03161   0.41859   0.00000  Uiso   1.00
C109   C     0.06399   0.22932   0.52037   0.00000  Uiso   1.00
C110   C     0.22943   0.06403   0.47963   0.00000  Uiso   1.00
C111   C     0.27057   0.43597   0.52037   0.00000  Uiso   1.00
C112   C     0.18549   0.01898   0.97963   0.00000  Uiso   1.00
C113   C     0.31451   0.48102   0.02037   0.00000  Uiso   1.00
C114   C     0.02027   0.18588   0.97963   0.00000  Uiso   1.00
C115   C     0.47973   0.31412   0.02037   0.00000  Uiso   1.00
C116   C     0.31451   0.48102   0.97963   0.00000  Uiso   1.00
C117   C     0.18549   0.01898   0.02037   0.00000  Uiso   1.00
C118   C     0.47973   0.31412   0.97963   0.00000  Uiso   1.00
C119   C     0.25982   0.46839   0.58141   0.00000  Uiso   1.00
C120   C     0.02027   0.18588   0.02037   0.00000  Uiso   1.00
C121   C     0.25000  -0.00000   0.35599   0.00000  Uiso   1.00
C122   C     0.25000   0.00000   0.64401   0.00000  Uiso   1.00
C123   C     0.00000   0.25000   0.35599   0.00000  Uiso   1.00
C124   C     0.00000   0.25000   0.64401   0.00000  Uiso   1.00
C125   C     0.00000   0.25000   0.85599   0.00000  Uiso   1.00
C126   C     0.00000   0.25000   0.14401   0.00000  Uiso   1.00
C127   C     0.25000   0.00000   0.85599   0.00000  Uiso   1.00
C128   C     0.25000  -0.00000   0.14401   0.00000  Uiso   1.00
C129   C     0.17999   0.07001   0.25000   0.00000  Uiso   1.00
C130   C     0.03160   0.24013   0.41859   0.00000  Uiso   1.00
C131   C     0.32001   0.42999   0.75000   0.00000  Uiso   1.00
C132   C     0.42999   0.17999   0.25000   0.00000  Uiso   1.00
C133   C     0.07001   0.32001   0.75000   0.00000  Uiso   1.00
C134   C     0.32001   0.42999   0.25000   0.00000  Uiso   1.00
C135   C     0.17999   0.07001   0.75000   0.00000  Uiso   1.00
C136   C     0.07001   0.32001   0.25000   0.00000  Uiso   1.00
C137   C     0.42999   0.17999   0.75000   0.00000  Uiso   1.00
C138   C     0.17999   0.42999   0.75000   0.00000  Uiso   1.00
C139   C     0.32001   0.07001   0.25000   0.00000  Uiso   1.00
C140   C     0.42999   0.32001   0.75000   0.00000  Uiso   1.00
C141   C     0.46840   0.25987   0.58141   0.00000  Uiso   1.00
C142   C     0.07001   0.17999   0.25000   0.00000  Uiso   1.00
C143   C     0.32001   0.07001   0.75000   0.00000  Uiso   1.00
C144   C     0.17999   0.42999   0.25000   0.00000  Uiso   1.00
C145   C     0.07001   0.17999   0.75000   0.00000  Uiso   1.00
C146   C     0.42999   0.32001   0.25000   0.00000  Uiso   1.00
C147   C     0.11547   0.41159   0.25830   0.00000  Uiso   1.00
C148   C     0.38453   0.08841   0.74170   0.00000  Uiso   1.00
C149   C     0.11686   0.14392   0.21539   0.00000  Uiso   1.00
C150   C     0.38314   0.35608   0.78461   0.00000  Uiso   1.00
C151   C     0.38453   0.08841   0.25829   0.00000  Uiso   1.00
C152   C     0.25982   0.46839   0.41859   0.00000  Uiso   1.00
C153   C     0.11547   0.41159   0.74170   0.00000  Uiso   1.00
C154   C     0.38314   0.35608   0.21539   0.00000  Uiso   1.00
C155   C     0.11686   0.14392   0.78461   0.00000  Uiso   1.00
C156   C     0.14392   0.11686   0.78461   0.00000  Uiso   1.00
C157   C     0.35608   0.38313   0.21539   0.00000  Uiso   1.00
C158   C     0.08841   0.38453   0.74170   0.00000  Uiso   1.00
C159   C     0.41159   0.11547   0.25829   0.00000  Uiso   1.00
C160   C     0.35608   0.38314   0.78461   0.00000  Uiso   1.00
C161   C     0.14392   0.11686   0.21539   0.00000  Uiso   1.00
C162   C     0.41159   0.11547   0.74170   0.00000  Uiso   1.00
C163   C     0.24018   0.03161   0.58141   0.00000  Uiso   1.00
C164   C     0.08841   0.38453   0.25830   0.00000  Uiso   1.00
C165   C     0.36547   0.16159   0.75830   0.00000  Uiso   1.00
C166   C     0.13453   0.33841   0.24170   0.00000  Uiso   1.00
C167   C     0.36686   0.39392   0.71539   0.00000  Uiso   1.00
C168   C     0.13314   0.10608   0.28461   0.00000  Uiso   1.00
C169   C     0.13453   0.33841   0.75830   0.00000  Uiso   1.00
C170   C     0.36547   0.16159   0.24170   0.00000  Uiso   1.00
C171   C     0.13314   0.10608   0.71539   0.00000  Uiso   1.00
C172   C     0.36686   0.39392   0.28461   0.00000  Uiso   1.00
C173   C     0.39392   0.36686   0.28461   0.00000  Uiso   1.00
C174   C     0.28184   0.49092   0.91860   0.00000  Uiso   1.00
C175   C     0.10608   0.13314   0.71539   0.00000  Uiso   1.00
C176   C     0.33841   0.13453   0.24170   0.00000  Uiso   1.00
C177   C     0.16159   0.36547   0.75830   0.00000  Uiso   1.00
C178   C     0.10608   0.13314   0.28461   0.00000  Uiso   1.00
C179   C     0.39392   0.36686   0.71539   0.00000  Uiso   1.00
C180   C     0.16159   0.36547   0.24170   0.00000  Uiso   1.00
C181   C     0.33841   0.13453   0.75830   0.00000  Uiso   1.00
C182   C     0.03213   0.23976   0.45920   0.00000  Uiso   1.00
C183   C     0.46787   0.26024   0.54080   0.00000  Uiso   1.00
C184   C     0.26019   0.46786   0.45920   0.00000  Uiso   1.00
H185   H     0.44447   0.26759   0.40209   0.00000  Uiso   1.00
H186   H     0.19403   0.01618   0.09788   0.00000  Uiso   1.00
H187   H     0.48275   0.30563   0.90210   0.00000  Uiso   1.00
H188   H     0.01725   0.19437   0.09790   0.00000  Uiso   1.00
H189   H     0.19403   0.01618   0.90212   0.00000  Uiso   1.00
H190   H     0.30597   0.48382   0.09788   0.00000  Uiso   1.00
H191   H     0.01725   0.19437   0.90210   0.00000  Uiso   1.00
H192   H     0.48275   0.30563   0.09790   0.00000  Uiso   1.00
H193   H     0.05553   0.23241   0.59791   0.00000  Uiso   1.00
H194   H     0.23250   0.05556   0.40210   0.00000  Uiso   1.00
H195   H     0.26750   0.44444   0.59790   0.00000  Uiso   1.00
H196   H     0.05553   0.23241   0.40209   0.00000  Uiso   1.00
H197   H     0.44447   0.26759   0.59791   0.00000  Uiso   1.00
H198   H     0.26750   0.44444   0.40210   0.00000  Uiso   1.00
H199   H     0.23250   0.05556   0.59790   0.00000  Uiso   1.00
H200   H     0.30597   0.48382   0.90212   0.00000  Uiso   1.00
O201   O     0.25000  -0.00000   0.25000   0.00000  Uiso   1.00
O202   O     0.25000   0.46964   0.66245   0.00000  Uiso   1.00
O203   O     0.46964   0.25000   0.33755   0.00000  Uiso   1.00
O204   O     0.03037   0.25000   0.66245   0.00000  Uiso   1.00
O205   O     0.00000   0.21963   0.83755   0.00000  Uiso   1.00
O206   O     0.00000   0.28036   0.16245   0.00000  Uiso   1.00
O207   O     0.28037  -0.00000   0.83755   0.00000  Uiso   1.00
O208   O     0.21964   0.00000   0.16245   0.00000  Uiso   1.00
O209   O     0.00000   0.28036   0.83755   0.00000  Uiso   1.00
O210   O     0.00000   0.21963   0.16245   0.00000  Uiso   1.00
O211   O     0.21964  -0.00000   0.83755   0.00000  Uiso   1.00
O212   O     0.25000   0.00000   0.75000   0.00000  Uiso   1.00
O213   O     0.28037   0.00000   0.16245   0.00000  Uiso   1.00
O214   O     0.20725   0.07307   0.27302   0.00000  Uiso   1.00
O215   O     0.29276   0.42693   0.72698   0.00000  Uiso   1.00
O216   O     0.42693   0.20724   0.27302   0.00000  Uiso   1.00
O217   O     0.07308   0.29276   0.72698   0.00000  Uiso   1.00
O218   O     0.29276   0.42693   0.27302   0.00000  Uiso   1.00
O219   O     0.20725   0.07307   0.72698   0.00000  Uiso   1.00
O220   O     0.07308   0.29276   0.27302   0.00000  Uiso   1.00
O221   O     0.42693   0.20724   0.72698   0.00000  Uiso   1.00
O222   O     0.20725   0.42693   0.72698   0.00000  Uiso   1.00
O223   O     0.00000   0.25000   0.25000   0.00000  Uiso   1.00
O224   O     0.29276   0.07307   0.27302   0.00000  Uiso   1.00
O225   O     0.42693   0.29275   0.72698   0.00000  Uiso   1.00
O226   O     0.07308   0.20725   0.27302   0.00000  Uiso   1.00
O227   O     0.29276   0.07307   0.72698   0.00000  Uiso   1.00
O228   O     0.20725   0.42693   0.27302   0.00000  Uiso   1.00
O229   O     0.07308   0.20725   0.72698   0.00000  Uiso   1.00
O230   O     0.42693   0.29275   0.27302   0.00000  Uiso   1.00
O231   O     0.45725   0.32307   0.77302   0.00000  Uiso   1.00
O232   O     0.04276   0.17693   0.22698   0.00000  Uiso   1.00
O233   O     0.17693   0.45725   0.77302   0.00000  Uiso   1.00
O234   O     0.00000   0.25000   0.75000   0.00000  Uiso   1.00
O235   O     0.32308   0.04275   0.22698   0.00000  Uiso   1.00
O236   O     0.04276   0.17693   0.77302   0.00000  Uiso   1.00
O237   O     0.45725   0.32307   0.22698   0.00000  Uiso   1.00
O238   O     0.32308   0.04275   0.77302   0.00000  Uiso   1.00
O239   O     0.17693   0.45725   0.22698   0.00000  Uiso   1.00
O240   O     0.45725   0.17692   0.22698   0.00000  Uiso   1.00
O241   O     0.04276   0.32308   0.77302   0.00000  Uiso   1.00
O242   O     0.17693   0.04275   0.22698   0.00000  Uiso   1.00
O243   O     0.32308   0.45725   0.77302   0.00000  Uiso   1.00
O244   O     0.04276   0.32308   0.22698   0.00000  Uiso   1.00
O245   O     0.25000   0.46964   0.33755   0.00000  Uiso   1.00
O246   O     0.45725   0.17692   0.77302   0.00000  Uiso   1.00
O247   O     0.32308   0.45725   0.22698   0.00000  Uiso   1.00
O248   O     0.17693   0.04275   0.77302   0.00000  Uiso   1.00
O249   O     0.25000   0.03036   0.66245   0.00000  Uiso   1.00
O250   O     0.03037   0.25000   0.33755   0.00000  Uiso   1.00
O251   O     0.46964   0.25000   0.66245   0.00000  Uiso   1.00
O252   O     0.25000   0.03036   0.33755   0.00000  Uiso   1.00
Zn253  Zn    0.20660  -0.00000   0.21735   0.00000  Uiso   1.00
Zn254  Zn    0.04341   0.25000   0.28265   0.00000  Uiso   1.00
Zn255  Zn    0.25000   0.45660   0.71735   0.00000  Uiso   1.00
Zn256  Zn    0.25000   0.04340   0.28265   0.00000  Uiso   1.00
Zn257  Zn    0.04341   0.25000   0.71735   0.00000  Uiso   1.00
Zn258  Zn    0.45660   0.25000   0.28265   0.00000  Uiso   1.00
Zn259  Zn    0.25000   0.04340   0.71735   0.00000  Uiso   1.00
Zn260  Zn    0.25000   0.45660   0.28265   0.00000  Uiso   1.00
Zn261  Zn    0.29341  -0.00000   0.78265   0.00000  Uiso   1.00
Zn262  Zn    0.00000   0.20659   0.21735   0.00000  Uiso   1.00
Zn263  Zn    0.00000   0.29340   0.78265   0.00000  Uiso   1.00
Zn264  Zn    0.29341  -0.00000   0.21735   0.00000  Uiso   1.00
Zn265  Zn    0.20660  -0.00000   0.78265   0.00000  Uiso   1.00
Zn266  Zn    0.00000   0.29340   0.21735   0.00000  Uiso   1.00
Zn267  Zn    0.00000   0.20659   0.78265   0.00000  Uiso   1.00
Zn268  Zn    0.45660   0.25000   0.71735   0.00000  Uiso   1.00
Br269  Br    0.60801   0.21472   0.45239   0.00000  Uiso   1.00
Br270  Br    0.85892   0.46764   0.04761   0.00000  Uiso   1.00
Br271  Br    0.53458   0.14176   0.95239   0.00000  Uiso   1.00
Br272  Br    0.96542   0.35824   0.04761   0.00000  Uiso   1.00
Br273  Br    0.85892   0.46763   0.95239   0.00000  Uiso   1.00
Br274  Br    0.64108   0.03236   0.04761   0.00000  Uiso   1.00
Br275  Br    0.96542   0.35824   0.95239   0.00000  Uiso   1.00
Br276  Br    0.53458   0.14176   0.04761   0.00000  Uiso   1.00
Br277  Br    0.60289   0.46147   0.27149   0.00000  Uiso   1.00
Br278  Br    0.89711   0.03853   0.72851   0.00000  Uiso   1.00
Br279  Br    0.60686   0.17117   0.16848   0.00000  Uiso   1.00
Br280  Br    0.89199   0.28528   0.54761   0.00000  Uiso   1.00
Br281  Br    0.89315   0.32883   0.83152   0.00000  Uiso   1.00
Br282  Br    0.89712   0.03853   0.27148   0.00000  Uiso   1.00
Br283  Br    0.60289   0.46147   0.72851   0.00000  Uiso   1.00
Br284  Br    0.89314   0.32883   0.16848   0.00000  Uiso   1.00
Br285  Br    0.60686   0.17117   0.83152   0.00000  Uiso   1.00
Br286  Br    0.67118   0.10686   0.83151   0.00000  Uiso   1.00
Br287  Br    0.82882   0.39314   0.16848   0.00000  Uiso   1.00
Br288  Br    0.53853   0.39711   0.72851   0.00000  Uiso   1.00
Br289  Br    0.96147   0.10289   0.27148   0.00000  Uiso   1.00
Br290  Br    0.82883   0.39314   0.83152   0.00000  Uiso   1.00
Br291  Br    0.78510   0.39193   0.45239   0.00000  Uiso   1.00
Br292  Br    0.67118   0.10686   0.16848   0.00000  Uiso   1.00
Br293  Br    0.96147   0.10289   0.72850   0.00000  Uiso   1.00
Br294  Br    0.53853   0.39711   0.27149   0.00000  Uiso   1.00
Br295  Br    0.85289   0.21147   0.77149   0.00000  Uiso   1.00
Br296  Br    0.64711   0.28853   0.22851   0.00000  Uiso   1.00
Br297  Br    0.85685   0.42116   0.66848   0.00000  Uiso   1.00
Br298  Br    0.64315   0.07883   0.33152   0.00000  Uiso   1.00
Br299  Br    0.64711   0.28853   0.77149   0.00000  Uiso   1.00
Br300  Br    0.85289   0.21147   0.22851   0.00000  Uiso   1.00
Br301  Br    0.64315   0.07883   0.66848   0.00000  Uiso   1.00
Br302  Br    0.71490   0.10807   0.54761   0.00000  Uiso   1.00
Br303  Br    0.85685   0.42117   0.33152   0.00000  Uiso   1.00
Br304  Br    0.92117   0.35685   0.33152   0.00000  Uiso   1.00
Br305  Br    0.57883   0.14315   0.66848   0.00000  Uiso   1.00
Br306  Br    0.78853   0.14711   0.22851   0.00000  Uiso   1.00
Br307  Br    0.71147   0.35289   0.77149   0.00000  Uiso   1.00
Br308  Br    0.57883   0.14315   0.33152   0.00000  Uiso   1.00
Br309  Br    0.92116   0.35685   0.66848   0.00000  Uiso   1.00
Br310  Br    0.71147   0.35289   0.22850   0.00000  Uiso   1.00
Br311  Br    0.78853   0.14711   0.77149   0.00000  Uiso   1.00
Br312  Br    0.89199   0.28528   0.45239   0.00000  Uiso   1.00
Br313  Br    0.60801   0.21472   0.54761   0.00000  Uiso   1.00
Br314  Br    0.71490   0.10807   0.45239   0.00000  Uiso   1.00
Br315  Br    0.78510   0.39193   0.54761   0.00000  Uiso   1.00
Br316  Br    0.64108   0.03237   0.95239   0.00000  Uiso   1.00
C317   C     0.96840   0.25987   0.41859   0.00000  Uiso   1.00
C318   C     0.71816   0.00908   0.08140   0.00000  Uiso   1.00
C319   C     0.73981   0.03214   0.54080   0.00000  Uiso   1.00
C320   C     0.96787   0.26025   0.45920   0.00000  Uiso   1.00
C321   C     0.53213   0.23975   0.54080   0.00000  Uiso   1.00
C322   C     0.73981   0.03214   0.45920   0.00000  Uiso   1.00
C323   C     0.76019   0.46786   0.54080   0.00000  Uiso   1.00
C324   C     0.71762   0.00941   0.95920   0.00000  Uiso   1.00
C325   C     0.78238   0.49059   0.04080   0.00000  Uiso   1.00
C326   C     0.51005   0.21781   0.95920   0.00000  Uiso   1.00
C327   C     0.98996   0.28219   0.04080   0.00000  Uiso   1.00
C328   C     0.78238   0.49059   0.95920   0.00000  Uiso   1.00
C329   C     0.99032   0.28165   0.91859   0.00000  Uiso   1.00
C330   C     0.71762   0.00941   0.04080   0.00000  Uiso   1.00
C331   C     0.98996   0.28219   0.95920   0.00000  Uiso   1.00
C332   C     0.51004   0.21781   0.04080   0.00000  Uiso   1.00
C333   C     0.59808   0.34808   0.25000   0.00000  Uiso   1.00
C334   C     0.90192   0.15192   0.75000   0.00000  Uiso   1.00
C335   C     0.65193   0.09807   0.25000   0.00000  Uiso   1.00
C336   C     0.84807   0.40193   0.75000   0.00000  Uiso   1.00
C337   C     0.90192   0.15192   0.25000   0.00000  Uiso   1.00
C338   C     0.59808   0.34808   0.75000   0.00000  Uiso   1.00
C339   C     0.84807   0.40193   0.25000   0.00000  Uiso   1.00
C340   C     0.50968   0.21835   0.08140   0.00000  Uiso   1.00
C341   C     0.65193   0.09807   0.75000   0.00000  Uiso   1.00
C342   C     0.59807   0.15193   0.75000   0.00000  Uiso   1.00
C343   C     0.90193   0.34807   0.25000   0.00000  Uiso   1.00
C344   C     0.65192   0.40192   0.75000   0.00000  Uiso   1.00
C345   C     0.84808   0.09808   0.25000   0.00000  Uiso   1.00
C346   C     0.90193   0.34807   0.75000   0.00000  Uiso   1.00
C347   C     0.59807   0.15193   0.25000   0.00000  Uiso   1.00
C348   C     0.84808   0.09808   0.75000   0.00000  Uiso   1.00
C349   C     0.65192   0.40192   0.25000   0.00000  Uiso   1.00
C350   C     0.50000   0.25000   0.47963   0.00000  Uiso   1.00
C351   C     0.71816   0.00908   0.91860   0.00000  Uiso   1.00
C352   C     0.50000   0.25000   0.52037   0.00000  Uiso   1.00
C353   C     0.75000  -0.00000   0.47963   0.00000  Uiso   1.00
C354   C     0.75000   0.00000   0.52037   0.00000  Uiso   1.00
C355   C     0.75000   0.00000   0.97963   0.00000  Uiso   1.00
C356   C     0.75000   0.00000   0.02037   0.00000  Uiso   1.00
C357   C     0.50000   0.25000   0.97963   0.00000  Uiso   1.00
C358   C     0.50000   0.25000   0.02037   0.00000  Uiso   1.00
C359   C     0.78184   0.49093   0.08140   0.00000  Uiso   1.00
C360   C     0.50968   0.21835   0.91859   0.00000  Uiso   1.00
C361   C     0.99032   0.28165   0.08140   0.00000  Uiso   1.00
C362   C     0.50000   0.25000   0.39842   0.00000  Uiso   1.00
C363   C     0.50000   0.25000   0.60158   0.00000  Uiso   1.00
C364   C     0.75000  -0.00000   0.39842   0.00000  Uiso   1.00
C365   C     0.53160   0.24013   0.58141   0.00000  Uiso   1.00
C366   C     0.75000   0.00000   0.60158   0.00000  Uiso   1.00
C367   C     0.75000  -0.00000   0.89842   0.00000  Uiso   1.00
C368   C     0.75000   0.00000   0.10158   0.00000  Uiso   1.00
C369   C     0.50000   0.25000   0.89842   0.00000  Uiso   1.00
C370   C     0.50000   0.25000   0.10158   0.00000  Uiso   1.00
C371   C     0.56399   0.22932   0.47963   0.00000  Uiso   1.00
C372   C     0.93601   0.27068   0.52037   0.00000  Uiso   1.00
C373   C     0.77057   0.43597   0.47963   0.00000  Uiso   1.00
C374   C     0.72943   0.06403   0.52037   0.00000  Uiso   1.00
C375   C     0.93601   0.27068   0.47963   0.00000  Uiso   1.00
C376   C     0.74018   0.03161   0.41859   0.00000  Uiso   1.00
C377   C     0.56399   0.22932   0.52037   0.00000  Uiso   1.00
C378   C     0.72943   0.06403   0.47963   0.00000  Uiso   1.00
C379   C     0.77057   0.43597   0.52037   0.00000  Uiso   1.00
C380   C     0.68549   0.01898   0.97963   0.00000  Uiso   1.00
C381   C     0.81451   0.48102   0.02037   0.00000  Uiso   1.00
C382   C     0.52027   0.18588   0.97963   0.00000  Uiso   1.00
C383   C     0.97973   0.31412   0.02037   0.00000  Uiso   1.00
C384   C     0.81451   0.48102   0.97963   0.00000  Uiso   1.00
C385   C     0.68549   0.01898   0.02037   0.00000  Uiso   1.00
C386   C     0.97973   0.31412   0.97963   0.00000  Uiso   1.00
C387   C     0.75982   0.46839   0.58141   0.00000  Uiso   1.00
C388   C     0.52027   0.18588   0.02037   0.00000  Uiso   1.00
C389   C     0.75000  -0.00000   0.35599   0.00000  Uiso   1.00
C390   C     0.75000   0.00000   0.64401   0.00000  Uiso   1.00
C391   C     0.50000   0.25000   0.35599   0.00000  Uiso   1.00
C392   C     0.50000   0.25000   0.64401   0.00000  Uiso   1.00
C393   C     0.50000   0.25000   0.85599   0.00000  Uiso   1.00
C394   C     0.50000   0.25000   0.14401   0.00000  Uiso   1.00
C395   C     0.75000   0.00000   0.85599   0.00000  Uiso   1.00
C396   C     0.75000  -0.00000   0.14401   0.00000  Uiso   1.00
C397   C     0.67999   0.07001   0.25000   0.00000  Uiso   1.00
C398   C     0.53160   0.24013   0.41859   0.00000  Uiso   1.00
C399   C     0.82001   0.42999   0.75000   0.00000  Uiso   1.00
C400   C     0.92999   0.17999   0.25000   0.00000  Uiso   1.00
C401   C     0.57001   0.32001   0.75000   0.00000  Uiso   1.00
C402   C     0.82001   0.42999   0.25000   0.00000  Uiso   1.00
C403   C     0.67999   0.07001   0.75000   0.00000  Uiso   1.00
C404   C     0.57001   0.32001   0.25000   0.00000  Uiso   1.00
C405   C     0.92999   0.17999   0.75000   0.00000  Uiso   1.00
C406   C     0.67999   0.42999   0.75000   0.00000  Uiso   1.00
C407   C     0.82001   0.07001   0.25000   0.00000  Uiso   1.00
C408   C     0.92999   0.32001   0.75000   0.00000  Uiso   1.00
C409   C     0.96840   0.25987   0.58141   0.00000  Uiso   1.00
C410   C     0.57001   0.17999   0.25000   0.00000  Uiso   1.00
C411   C     0.82001   0.07001   0.75000   0.00000  Uiso   1.00
C412   C     0.67999   0.42999   0.25000   0.00000  Uiso   1.00
C413   C     0.57001   0.17999   0.75000   0.00000  Uiso   1.00
C414   C     0.92999   0.32001   0.25000   0.00000  Uiso   1.00
C415   C     0.61547   0.41159   0.25830   0.00000  Uiso   1.00
C416   C     0.88453   0.08841   0.74170   0.00000  Uiso   1.00
C417   C     0.61686   0.14392   0.21539   0.00000  Uiso   1.00
C418   C     0.88314   0.35608   0.78461   0.00000  Uiso   1.00
C419   C     0.88453   0.08841   0.25829   0.00000  Uiso   1.00
C420   C     0.75982   0.46839   0.41859   0.00000  Uiso   1.00
C421   C     0.61547   0.41159   0.74170   0.00000  Uiso   1.00
C422   C     0.88314   0.35608   0.21539   0.00000  Uiso   1.00
C423   C     0.61686   0.14392   0.78461   0.00000  Uiso   1.00
C424   C     0.64392   0.11686   0.78461   0.00000  Uiso   1.00
C425   C     0.85608   0.38313   0.21539   0.00000  Uiso   1.00
C426   C     0.58841   0.38453   0.74170   0.00000  Uiso   1.00
C427   C     0.91159   0.11547   0.25829   0.00000  Uiso   1.00
C428   C     0.85608   0.38314   0.78461   0.00000  Uiso   1.00
C429   C     0.64392   0.11686   0.21539   0.00000  Uiso   1.00
C430   C     0.91159   0.11547   0.74170   0.00000  Uiso   1.00
C431   C     0.74018   0.03161   0.58141   0.00000  Uiso   1.00
C432   C     0.58841   0.38453   0.25830   0.00000  Uiso   1.00
C433   C     0.86547   0.16159   0.75830   0.00000  Uiso   1.00
C434   C     0.63453   0.33841   0.24170   0.00000  Uiso   1.00
C435   C     0.86686   0.39392   0.71539   0.00000  Uiso   1.00
C436   C     0.63314   0.10608   0.28461   0.00000  Uiso   1.00
C437   C     0.63453   0.33841   0.75830   0.00000  Uiso   1.00
C438   C     0.86547   0.16159   0.24170   0.00000  Uiso   1.00
C439   C     0.63314   0.10608   0.71539   0.00000  Uiso   1.00
C440   C     0.86686   0.39392   0.28461   0.00000  Uiso   1.00
C441   C     0.89392   0.36686   0.28461   0.00000  Uiso   1.00
C442   C     0.78184   0.49092   0.91860   0.00000  Uiso   1.00
C443   C     0.60608   0.13314   0.71539   0.00000  Uiso   1.00
C444   C     0.83841   0.13453   0.24170   0.00000  Uiso   1.00
C445   C     0.66159   0.36547   0.75830   0.00000  Uiso   1.00
C446   C     0.60608   0.13314   0.28461   0.00000  Uiso   1.00
C447   C     0.89392   0.36686   0.71539   0.00000  Uiso   1.00
C448   C     0.66159   0.36547   0.24170   0.00000  Uiso   1.00
C449   C     0.83841   0.13453   0.75830   0.00000  Uiso   1.00
C450   C     0.53213   0.23976   0.45920   0.00000  Uiso   1.00
C451   C     0.96787   0.26024   0.54080   0.00000  Uiso   1.00
C452   C     0.76019   0.46786   0.45920   0.00000  Uiso   1.00
H453   H     0.94447   0.26759   0.40209   0.00000  Uiso   1.00
H454   H     0.69403   0.01618   0.09788   0.00000  Uiso   1.00
H455   H     0.98275   0.30563   0.90210   0.00000  Uiso   1.00
H456   H     0.51725   0.19437   0.09790   0.00000  Uiso   1.00
H457   H     0.69403   0.01618   0.90212   0.00000  Uiso   1.00
H458   H     0.80597   0.48382   0.09788   0.00000  Uiso   1.00
H459   H     0.51725   0.19437   0.90210   0.00000  Uiso   1.00
H460   H     0.98275   0.30563   0.09790   0.00000  Uiso   1.00
H461   H     0.55553   0.23241   0.59791   0.00000  Uiso   1.00
H462   H     0.73250   0.05556   0.40210   0.00000  Uiso   1.00
H463   H     0.76750   0.44444   0.59790   0.00000  Uiso   1.00
H464   H     0.55553   0.23241   0.40209   0.00000  Uiso   1.00
H465   H     0.94447   0.26759   0.59791   0.00000  Uiso   1.00
H466   H     0.76750   0.44444   0.40210   0.00000  Uiso   1.00
H467   H     0.73250   0.05556   0.59790   0.00000  Uiso   1.00
H468   H     0.80597   0.48382   0.90212   0.00000  Uiso   1.00
O469   O     0.75000  -0.00000   0.25000   0.00000  Uiso   1.00
O470   O     0.75000   0.46964   0.66245   0.00000  Uiso   1.00
O471   O     0.96964   0.25000   0.33755   0.00000  Uiso   1.00
O472   O     0.53037   0.25000   0.66245   0.00000  Uiso   1.00
O473   O     0.50000   0.21963   0.83755   0.00000  Uiso   1.00
O474   O     0.50000   0.28036   0.16245   0.00000  Uiso   1.00
O475   O     0.78037  -0.00000   0.83755   0.00000  Uiso   1.00
O476   O     0.71964   0.00000   0.16245   0.00000  Uiso   1.00
O477   O     0.50000   0.28036   0.83755   0.00000  Uiso   1.00
O478   O     0.50000   0.21963   0.16245   0.00000  Uiso   1.00
O479   O     0.71964  -0.00000   0.83755   0.00000  Uiso   1.00
O480   O     0.75000   0.00000   0.75000   0.00000  Uiso   1.00
O481   O     0.78037   0.00000   0.16245   0.00000  Uiso   1.00
O482   O     0.70725   0.07307   0.27302   0.00000  Uiso   1.00
O483   O     0.79276   0.42693   0.72698   0.00000  Uiso   1.00
O484   O     0.92693   0.20724   0.27302   0.00000  Uiso   1.00
O485   O     0.57308   0.29276   0.72698   0.00000  Uiso   1.00
O486   O     0.79276   0.42693   0.27302   0.00000  Uiso   1.00
O487   O     0.70725   0.07307   0.72698   0.00000  Uiso   1.00
O488   O     0.57308   0.29276   0.27302   0.00000  Uiso   1.00
O489   O     0.92693   0.20724   0.72698   0.00000  Uiso   1.00
O490   O     0.70725   0.42693   0.72698   0.00000  Uiso   1.00
O491   O     0.50000   0.25000   0.25000   0.00000  Uiso   1.00
O492   O     0.79276   0.07307   0.27302   0.00000  Uiso   1.00
O493   O     0.92693   0.29275   0.72698   0.00000  Uiso   1.00
O494   O     0.57308   0.20725   0.27302   0.00000  Uiso   1.00
O495   O     0.79276   0.07307   0.72698   0.00000  Uiso   1.00
O496   O     0.70725   0.42693   0.27302   0.00000  Uiso   1.00
O497   O     0.57308   0.20725   0.72698   0.00000  Uiso   1.00
O498   O     0.92693   0.29275   0.27302   0.00000  Uiso   1.00
O499   O     0.95725   0.32307   0.77302   0.00000  Uiso   1.00
O500   O     0.54276   0.17693   0.22698   0.00000  Uiso   1.00
O501   O     0.67693   0.45725   0.77302   0.00000  Uiso   1.00
O502   O     0.50000   0.25000   0.75000   0.00000  Uiso   1.00
O503   O     0.82308   0.04275   0.22698   0.00000  Uiso   1.00
O504   O     0.54276   0.17693   0.77302   0.00000  Uiso   1.00
O505   O     0.95725   0.32307   0.22698   0.00000  Uiso   1.00
O506   O     0.82308   0.04275   0.77302   0.00000  Uiso   1.00
O507   O     0.67693   0.45725   0.22698   0.00000  Uiso   1.00
O508   O     0.95725   0.17692   0.22698   0.00000  Uiso   1.00
O509   O     0.54276   0.32308   0.77302   0.00000  Uiso   1.00
O510   O     0.67693   0.04275   0.22698   0.00000  Uiso   1.00
O511   O     0.82308   0.45725   0.77302   0.00000  Uiso   1.00
O512   O     0.54276   0.32308   0.22698   0.00000  Uiso   1.00
O513   O     0.75000   0.46964   0.33755   0.00000  Uiso   1.00
O514   O     0.95725   0.17692   0.77302   0.00000  Uiso   1.00
O515   O     0.82308   0.45725   0.22698   0.00000  Uiso   1.00
O516   O     0.67693   0.04275   0.77302   0.00000  Uiso   1.00
O517   O     0.75000   0.03036   0.66245   0.00000  Uiso   1.00
O518   O     0.53037   0.25000   0.33755   0.00000  Uiso   1.00
O519   O     0.96964   0.25000   0.66245   0.00000  Uiso   1.00
O520   O     0.75000   0.03036   0.33755   0.00000  Uiso   1.00
Zn521  Zn    0.70660  -0.00000   0.21735   0.00000  Uiso   1.00
Zn522  Zn    0.54341   0.25000   0.28265   0.00000  Uiso   1.00
Zn523  Zn    0.75000   0.45660   0.71735   0.00000  Uiso   1.00
Zn524  Zn    0.75000   0.04340   0.28265   0.00000  Uiso   1.00
Zn525  Zn    0.54341   0.25000   0.71735   0.00000  Uiso   1.00
Zn526  Zn    0.95660   0.25000   0.28265   0.00000  Uiso   1.00
Zn527  Zn    0.75000   0.04340   0.71735   0.00000  Uiso   1.00
Zn528  Zn    0.75000   0.45660   0.28265   0.00000  Uiso   1.00
Zn529  Zn    0.79341  -0.00000   0.78265   0.00000  Uiso   1.00
Zn530  Zn    0.50000   0.20659   0.21735   0.00000  Uiso   1.00
Zn531  Zn    0.50000   0.29340   0.78265   0.00000  Uiso   1.00
Zn532  Zn    0.79341  -0.00000   0.21735   0.00000  Uiso   1.00
Zn533  Zn    0.70660  -0.00000   0.78265   0.00000  Uiso   1.00
Zn534  Zn    0.50000   0.29340   0.21735   0.00000  Uiso   1.00
Zn535  Zn    0.50000   0.20659   0.78265   0.00000  Uiso   1.00
Zn536  Zn    0.95660   0.25000   0.71735   0.00000  Uiso   1.00
Br537  Br    0.10801   0.71472   0.45239   0.00000  Uiso   1.00
Br538  Br    0.35892   0.96764   0.04761   0.00000  Uiso   1.00
Br539  Br    0.03458   0.64176   0.95239   0.00000  Uiso   1.00
Br540  Br    0.46542   0.85824   0.04761   0.00000  Uiso   1.00
Br541  Br    0.35892   0.96763   0.95239   0.00000  Uiso   1.00
Br542  Br    0.14108   0.53236   0.04761   0.00000  Uiso   1.00
Br543  Br    0.46542   0.85824   0.95239   0.00000  Uiso   1.00
Br544  Br    0.03458   0.64176   0.04761   0.00000  Uiso   1.00
Br545  Br    0.10289   0.96147   0.27149   0.00000  Uiso   1.00
Br546  Br    0.39711   0.53853   0.72851   0.00000  Uiso   1.00
Br547  Br    0.10686   0.67117   0.16848   0.00000  Uiso   1.00
Br548  Br    0.39199   0.78528   0.54761   0.00000  Uiso   1.00
Br549  Br    0.39315   0.82883   0.83152   0.00000  Uiso   1.00
Br550  Br    0.39712   0.53853   0.27148   0.00000  Uiso   1.00
Br551  Br    0.10289   0.96147   0.72851   0.00000  Uiso   1.00
Br552  Br    0.39314   0.82883   0.16848   0.00000  Uiso   1.00
Br553  Br    0.10686   0.67117   0.83152   0.00000  Uiso   1.00
Br554  Br    0.17118   0.60686   0.83151   0.00000  Uiso   1.00
Br555  Br    0.32882   0.89314   0.16848   0.00000  Uiso   1.00
Br556  Br    0.03853   0.89711   0.72851   0.00000  Uiso   1.00
Br557  Br    0.46147   0.60289   0.27148   0.00000  Uiso   1.00
Br558  Br    0.32883   0.89314   0.83152   0.00000  Uiso   1.00
Br559  Br    0.28510   0.89193   0.45239   0.00000  Uiso   1.00
Br560  Br    0.17118   0.60686   0.16848   0.00000  Uiso   1.00
Br561  Br    0.46147   0.60289   0.72850   0.00000  Uiso   1.00
Br562  Br    0.03853   0.89711   0.27149   0.00000  Uiso   1.00
Br563  Br    0.35289   0.71147   0.77149   0.00000  Uiso   1.00
Br564  Br    0.14711   0.78853   0.22851   0.00000  Uiso   1.00
Br565  Br    0.35685   0.92116   0.66848   0.00000  Uiso   1.00
Br566  Br    0.14315   0.57883   0.33152   0.00000  Uiso   1.00
Br567  Br    0.14711   0.78853   0.77149   0.00000  Uiso   1.00
Br568  Br    0.35289   0.71147   0.22851   0.00000  Uiso   1.00
Br569  Br    0.14315   0.57883   0.66848   0.00000  Uiso   1.00
Br570  Br    0.21490   0.60807   0.54761   0.00000  Uiso   1.00
Br571  Br    0.35685   0.92117   0.33152   0.00000  Uiso   1.00
Br572  Br    0.42117   0.85685   0.33152   0.00000  Uiso   1.00
Br573  Br    0.07883   0.64315   0.66848   0.00000  Uiso   1.00
Br574  Br    0.28853   0.64711   0.22851   0.00000  Uiso   1.00
Br575  Br    0.21147   0.85289   0.77149   0.00000  Uiso   1.00
Br576  Br    0.07883   0.64315   0.33152   0.00000  Uiso   1.00
Br577  Br    0.42116   0.85685   0.66848   0.00000  Uiso   1.00
Br578  Br    0.21147   0.85289   0.22850   0.00000  Uiso   1.00
Br579  Br    0.28853   0.64711   0.77149   0.00000  Uiso   1.00
Br580  Br    0.39199   0.78528   0.45239   0.00000  Uiso   1.00
Br581  Br    0.10801   0.71472   0.54761   0.00000  Uiso   1.00
Br582  Br    0.21490   0.60807   0.45239   0.00000  Uiso   1.00
Br583  Br    0.28510   0.89193   0.54761   0.00000  Uiso   1.00
Br584  Br    0.14108   0.53237   0.95239   0.00000  Uiso   1.00
C585   C     0.46840   0.75987   0.41859   0.00000  Uiso   1.00
C586   C     0.21816   0.50908   0.08140   0.00000  Uiso   1.00
C587   C     0.23981   0.53214   0.54080   0.00000  Uiso   1.00
C588   C     0.46787   0.76025   0.45920   0.00000  Uiso   1.00
C589   C     0.03213   0.73975   0.54080   0.00000  Uiso   1.00
C590   C     0.23981   0.53214   0.45920   0.00000  Uiso   1.00
C591   C     0.26019   0.96786   0.54080   0.00000  Uiso   1.00
C592   C     0.21762   0.50941   0.95920   0.00000  Uiso   1.00
C593   C     0.28238   0.99059   0.04080   0.00000  Uiso   1.00
C594   C     0.01005   0.71781   0.95920   0.00000  Uiso   1.00
C595   C     0.48996   0.78219   0.04080   0.00000  Uiso   1.00
C596   C     0.28238   0.99059   0.95920   0.00000  Uiso   1.00
C597   C     0.49032   0.78165   0.91859   0.00000  Uiso   1.00
C598   C     0.21762   0.50941   0.04080   0.00000  Uiso   1.00
C599   C     0.48996   0.78219   0.95920   0.00000  Uiso   1.00
C600   C     0.01004   0.71781   0.04080   0.00000  Uiso   1.00
C601   C     0.09808   0.84808   0.25000   0.00000  Uiso   1.00
C602   C     0.40192   0.65192   0.75000   0.00000  Uiso   1.00
C603   C     0.15193   0.59807   0.25000   0.00000  Uiso   1.00
C604   C     0.34807   0.90193   0.75000   0.00000  Uiso   1.00
C605   C     0.40192   0.65192   0.25000   0.00000  Uiso   1.00
C606   C     0.09808   0.84808   0.75000   0.00000  Uiso   1.00
C607   C     0.34807   0.90193   0.25000   0.00000  Uiso   1.00
C608   C     0.00968   0.71835   0.08140   0.00000  Uiso   1.00
C609   C     0.15193   0.59807   0.75000   0.00000  Uiso   1.00
C610   C     0.09807   0.65193   0.75000   0.00000  Uiso   1.00
C611   C     0.40193   0.84807   0.25000   0.00000  Uiso   1.00
C612   C     0.15192   0.90192   0.75000   0.00000  Uiso   1.00
C613   C     0.34808   0.59808   0.25000   0.00000  Uiso   1.00
C614   C     0.40193   0.84807   0.75000   0.00000  Uiso   1.00
C615   C     0.09807   0.65193   0.25000   0.00000  Uiso   1.00
C616   C     0.34808   0.59808   0.75000   0.00000  Uiso   1.00
C617   C     0.15192   0.90192   0.25000   0.00000  Uiso   1.00
C618   C     0.00000   0.75000   0.47963   0.00000  Uiso   1.00
C619   C     0.21816   0.50908   0.91860   0.00000  Uiso   1.00
C620   C     0.00000   0.75000   0.52037   0.00000  Uiso   1.00
C621   C     0.25000   0.50000   0.47963   0.00000  Uiso   1.00
C622   C     0.25000   0.50000   0.52037   0.00000  Uiso   1.00
C623   C     0.25000   0.50000   0.97963   0.00000  Uiso   1.00
C624   C     0.25000   0.50000   0.02037   0.00000  Uiso   1.00
C625   C     0.00000   0.75000   0.97963   0.00000  Uiso   1.00
C626   C     0.00000   0.75000   0.02037   0.00000  Uiso   1.00
C627   C     0.28184   0.99093   0.08140   0.00000  Uiso   1.00
C628   C     0.00968   0.71835   0.91859   0.00000  Uiso   1.00
C629   C     0.49032   0.78165   0.08140   0.00000  Uiso   1.00
C630   C     0.00000   0.75000   0.39842   0.00000  Uiso   1.00
C631   C     0.00000   0.75000   0.60158   0.00000  Uiso   1.00
C632   C     0.25000   0.50000   0.39842   0.00000  Uiso   1.00
C633   C     0.03160   0.74013   0.58141   0.00000  Uiso   1.00
C634   C     0.25000   0.50000   0.60158   0.00000  Uiso   1.00
C635   C     0.25000   0.50000   0.89842   0.00000  Uiso   1.00
C636   C     0.25000   0.50000   0.10158   0.00000  Uiso   1.00
C637   C     0.00000   0.75000   0.89842   0.00000  Uiso   1.00
C638   C     0.00000   0.75000   0.10158   0.00000  Uiso   1.00
C639   C     0.06399   0.72932   0.47963   0.00000  Uiso   1.00
C640   C     0.43601   0.77068   0.52037   0.00000  Uiso   1.00
C641   C     0.27057   0.93597   0.47963   0.00000  Uiso   1.00
C642   C     0.22943   0.56403   0.52037   0.00000  Uiso   1.00
C643   C     0.43601   0.77068   0.47963   0.00000  Uiso   1.00
C644   C     0.24018   0.53161   0.41859   0.00000  Uiso   1.00
C645   C     0.06399   0.72932   0.52037   0.00000  Uiso   1.00
C646   C     0.22943   0.56403   0.47963   0.00000  Uiso   1.00
C647   C     0.27057   0.93597   0.52037   0.00000  Uiso   1.00
C648   C     0.18549   0.51898   0.97963   0.00000  Uiso   1.00
C649   C     0.31451   0.98102   0.02037   0.00000  Uiso   1.00
C650   C     0.02027   0.68588   0.97963   0.00000  Uiso   1.00
C651   C     0.47973   0.81412   0.02037   0.00000  Uiso   1.00
C652   C     0.31451   0.98102   0.97963   0.00000  Uiso   1.00
C653   C     0.18549   0.51898   0.02037   0.00000  Uiso   1.00
C654   C     0.47973   0.81412   0.97963   0.00000  Uiso   1.00
C655   C     0.25982   0.96839   0.58141   0.00000  Uiso   1.00
C656   C     0.02027   0.68588   0.02037   0.00000  Uiso   1.00
C657   C     0.25000   0.50000   0.35599   0.00000  Uiso   1.00
C658   C     0.25000   0.50000   0.64401   0.00000  Uiso   1.00
C659   C     0.00000   0.75000   0.35599   0.00000  Uiso   1.00
C660   C     0.00000   0.75000   0.64401   0.00000  Uiso   1.00
C661   C     0.00000   0.75000   0.85599   0.00000  Uiso   1.00
C662   C     0.00000   0.75000   0.14401   0.00000  Uiso   1.00
C663   C     0.25000   0.50000   0.85599   0.00000  Uiso   1.00
C664   C     0.25000   0.50000   0.14401   0.00000  Uiso   1.00
C665   C     0.17999   0.57001   0.25000   0.00000  Uiso   1.00
C666   C     0.03160   0.74013   0.41859   0.00000  Uiso   1.00
C667   C     0.32001   0.92999   0.75000   0.00000  Uiso   1.00
C668   C     0.42999   0.67999   0.25000   0.00000  Uiso   1.00
C669   C     0.07001   0.82001   0.75000   0.00000  Uiso   1.00
C670   C     0.32001   0.92999   0.25000   0.00000  Uiso   1.00
C671   C     0.17999   0.57001   0.75000   0.00000  Uiso   1.00
C672   C     0.07001   0.82001   0.25000   0.00000  Uiso   1.00
C673   C     0.42999   0.67999   0.75000   0.00000  Uiso   1.00
C674   C     0.17999   0.92999   0.75000   0.00000  Uiso   1.00
C675   C     0.32001   0.57001   0.25000   0.00000  Uiso   1.00
C676   C     0.42999   0.82001   0.75000   0.00000  Uiso   1.00
C677   C     0.46840   0.75987   0.58141   0.00000  Uiso   1.00
C678   C     0.07001   0.67999   0.25000   0.00000  Uiso   1.00
C679   C     0.32001   0.57001   0.75000   0.00000  Uiso   1.00
C680   C     0.17999   0.92999   0.25000   0.00000  Uiso   1.00
C681   C     0.07001   0.67999   0.75000   0.00000  Uiso   1.00
C682   C     0.42999   0.82001   0.25000   0.00000  Uiso   1.00
C683   C     0.11547   0.91159   0.25830   0.00000  Uiso   1.00
C684   C     0.38453   0.58841   0.74170   0.00000  Uiso   1.00
C685   C     0.11686   0.64392   0.21539   0.00000  Uiso   1.00
C686   C     0.38314   0.85608   0.78461   0.00000  Uiso   1.00
C687   C     0.38453   0.58841   0.25829   0.00000  Uiso   1.00
C688   C     0.25982   0.96839   0.41859   0.00000  Uiso   1.00
C689   C     0.11547   0.91159   0.74170   0.00000  Uiso   1.00
C690   C     0.38314   0.85608   0.21539   0.00000  Uiso   1.00
C691   C     0.11686   0.64392   0.78461   0.00000  Uiso   1.00
C692   C     0.14392   0.61686   0.78461   0.00000  Uiso   1.00
C693   C     0.35608   0.88313   0.21539   0.00000  Uiso   1.00
C694   C     0.08841   0.88453   0.74170   0.00000  Uiso   1.00
C695   C     0.41159   0.61547   0.25829   0.00000  Uiso   1.00
C696   C     0.35608   0.88314   0.78461   0.00000  Uiso   1.00
C697   C     0.14392   0.61686   0.21539   0.00000  Uiso   1.00
C698   C     0.41159   0.61547   0.74170   0.00000  Uiso   1.00
C699   C     0.24018   0.53161   0.58141   0.00000  Uiso   1.00
C700   C     0.08841   0.88453   0.25830   0.00000  Uiso   1.00
C701   C     0.36547   0.66159   0.75830   0.00000  Uiso   1.00
C702   C     0.13453   0.83841   0.24170   0.00000  Uiso   1.00
C703   C     0.36686   0.89392   0.71539   0.00000  Uiso   1.00
C704   C     0.13314   0.60608   0.28461   0.00000  Uiso   1.00
C705   C     0.13453   0.83841   0.75830   0.00000  Uiso   1.00
C706   C     0.36547   0.66159   0.24170   0.00000  Uiso   1.00
C707   C     0.13314   0.60608   0.71539   0.00000  Uiso   1.00
C708   C     0.36686   0.89392   0.28461   0.00000  Uiso   1.00
C709   C     0.39392   0.86686   0.28461   0.00000  Uiso   1.00
C710   C     0.28184   0.99092   0.91860   0.00000  Uiso   1.00
C711   C     0.10608   0.63314   0.71539   0.00000  Uiso   1.00
C712   C     0.33841   0.63453   0.24170   0.00000  Uiso   1.00
C713   C     0.16159   0.86547   0.75830   0.00000  Uiso   1.00
C714   C     0.10608   0.63314   0.28461   0.00000  Uiso   1.00
C715   C     0.39392   0.86686   0.71539   0.00000  Uiso   1.00
C716   C     0.16159   0.86547   0.24170   0.00000  Uiso   1.00
C717   C     0.33841   0.63453   0.75830   0.00000  Uiso   1.00
C718   C     0.03213   0.73976   0.45920   0.00000  Uiso   1.00
C719   C     0.46787   0.76024   0.54080   0.00000  Uiso   1.00
C720   C     0.26019   0.96786   0.45920   0.00000  Uiso   1.00
H721   H     0.44447   0.76759   0.40209   0.00000  Uiso   1.00
H722   H     0.19403   0.51618   0.09788   0.00000  Uiso   1.00
H723   H     0.48275   0.80563   0.90210   0.00000  Uiso   1.00
H724   H     0.01725   0.69437   0.09790   0.00000  Uiso   1.00
H725   H     0.19403   0.51618   0.90212   0.00000  Uiso   1.00
H726   H     0.30597   0.98382   0.09788   0.00000  Uiso   1.00
H727   H     0.01725   0.69437   0.90210   0.00000  Uiso   1.00
H728   H     0.48275   0.80563   0.09790   0.00000  Uiso   1.00
H729   H     0.05553   0.73241   0.59791   0.00000  Uiso   1.00
H730   H     0.23250   0.55556   0.40210   0.00000  Uiso   1.00
H731   H     0.26750   0.94444   0.59790   0.00000  Uiso   1.00
H732   H     0.05553   0.73241   0.40209   0.00000  Uiso   1.00
H733   H     0.44447   0.76759   0.59791   0.00000  Uiso   1.00
H734   H     0.26750   0.94444   0.40210   0.00000  Uiso   1.00
H735   H     0.23250   0.55556   0.59790   0.00000  Uiso   1.00
H736   H     0.30597   0.98382   0.90212   0.00000  Uiso   1.00
O737   O     0.25000   0.50000   0.25000   0.00000  Uiso   1.00
O738   O     0.25000   0.96964   0.66245   0.00000  Uiso   1.00
O739   O     0.46964   0.75000   0.33755   0.00000  Uiso   1.00
O740   O     0.03037   0.75000   0.66245   0.00000  Uiso   1.00
O741   O     0.00000   0.71963   0.83755   0.00000  Uiso   1.00
O742   O     0.00000   0.78036   0.16245   0.00000  Uiso   1.00
O743   O     0.28037   0.50000   0.83755   0.00000  Uiso   1.00
O744   O     0.21964   0.50000   0.16245   0.00000  Uiso   1.00
O745   O     0.00000   0.78036   0.83755   0.00000  Uiso   1.00
O746   O     0.00000   0.71963   0.16245   0.00000  Uiso   1.00
O747   O     0.21964   0.50000   0.83755   0.00000  Uiso   1.00
O748   O     0.25000   0.50000   0.75000   0.00000  Uiso   1.00
O749   O     0.28037   0.50000   0.16245   0.00000  Uiso   1.00
O750   O     0.20725   0.57307   0.27302   0.00000  Uiso   1.00
O751   O     0.29276   0.92693   0.72698   0.00000  Uiso   1.00
O752   O     0.42693   0.70724   0.27302   0.00000  Uiso   1.00
O753   O     0.07308   0.79276   0.72698   0.00000  Uiso   1.00
O754   O     0.29276   0.92693   0.27302   0.00000  Uiso   1.00
O755   O     0.20725   0.57307   0.72698   0.00000  Uiso   1.00
O756   O     0.07308   0.79276   0.27302   0.00000  Uiso   1.00
O757   O     0.42693   0.70724   0.72698   0.00000  Uiso   1.00
O758   O     0.20725   0.92693   0.72698   0.00000  Uiso   1.00
O759   O     0.00000   0.75000   0.25000   0.00000  Uiso   1.00
O760   O     0.29276   0.57307   0.27302   0.00000  Uiso   1.00
O761   O     0.42693   0.79275   0.72698   0.00000  Uiso   1.00
O762   O     0.07308   0.70725   0.27302   0.00000  Uiso   1.00
O763   O     0.29276   0.57307   0.72698   0.00000  Uiso   1.00
O764   O     0.20725   0.92693   0.27302   0.00000  Uiso   1.00
O765   O     0.07308   0.70725   0.72698   0.00000  Uiso   1.00
O766   O     0.42693   0.79275   0.27302   0.00000  Uiso   1.00
O767   O     0.45725   0.82307   0.77302   0.00000  Uiso   1.00
O768   O     0.04276   0.67693   0.22698   0.00000  Uiso   1.00
O769   O     0.17693   0.95725   0.77302   0.00000  Uiso   1.00
O770   O     0.00000   0.75000   0.75000   0.00000  Uiso   1.00
O771   O     0.32308   0.54275   0.22698   0.00000  Uiso   1.00
O772   O     0.04276   0.67693   0.77302   0.00000  Uiso   1.00
O773   O     0.45725   0.82307   0.22698   0.00000  Uiso   1.00
O774   O     0.32308   0.54275   0.77302   0.00000  Uiso   1.00
O775   O     0.17693   0.95725   0.22698   0.00000  Uiso   1.00
O776   O     0.45725   0.67692   0.22698   0.00000  Uiso   1.00
O777   O     0.04276   0.82308   0.77302   0.00000  Uiso   1.00
O778   O     0.17693   0.54275   0.22698   0.00000  Uiso   1.00
O779   O     0.32308   0.95725   0.77302   0.00000  Uiso   1.00
O780   O     0.04276   0.82308   0.22698   0.00000  Uiso   1.00
O781   O     0.25000   0.96964   0.33755   0.00000  Uiso   1.00
O782   O     0.45725   0.67692   0.77302   0.00000  Uiso   1.00
O783   O     0.32308   0.95725   0.22698   0.00000  Uiso   1.00
O784   O     0.17693   0.54275   0.77302   0.00000  Uiso   1.00
O785   O     0.25000   0.53036   0.66245   0.00000  Uiso   1.00
O786   O     0.03037   0.75000   0.33755   0.00000  Uiso   1.00
O787   O     0.46964   0.75000   0.66245   0.00000  Uiso   1.00
O788   O     0.25000   0.53036   0.33755   0.00000  Uiso   1.00
Zn789  Zn    0.20660   0.50000   0.21735   0.00000  Uiso   1.00
Zn790  Zn    0.04341   0.75000   0.28265   0.00000  Uiso   1.00
Zn791  Zn    0.25000   0.95660   0.71735   0.00000  Uiso   1.00
Zn792  Zn    0.25000   0.54340   0.28265   0.00000  Uiso   1.00
Zn793  Zn    0.04341   0.75000   0.71735   0.00000  Uiso   1.00
Zn794  Zn    0.45660   0.75000   0.28265   0.00000  Uiso   1.00
Zn795  Zn    0.25000   0.54340   0.71735   0.00000  Uiso   1.00
Zn796  Zn    0.25000   0.95660   0.28265   0.00000  Uiso   1.00
Zn797  Zn    0.29341   0.50000   0.78265   0.00000  Uiso   1.00
Zn798  Zn    0.00000   0.70659   0.21735   0.00000  Uiso   1.00
Zn799  Zn    0.00000   0.79340   0.78265   0.00000  Uiso   1.00
Zn800  Zn    0.29341   0.50000   0.21735   0.00000  Uiso   1.00
Zn801  Zn    0.20660   0.50000   0.78265   0.00000  Uiso   1.00
Zn802  Zn    0.00000   0.79340   0.21735   0.00000  Uiso   1.00
Zn803  Zn    0.00000   0.70659   0.78265   0.00000  Uiso   1.00
Zn804  Zn    0.45660   0.75000   0.71735   0.00000  Uiso   1.00
Br805  Br    0.60801   0.71472   0.45239   0.00000  Uiso   1.00
Br806  Br    0.85892   0.96764   0.04761   0.00000  Uiso   1.00
Br807  Br    0.53458   0.64176   0.95239   0.00000  Uiso   1.00
Br808  Br    0.96542   0.85824   0.04761   0.00000  Uiso   1.00
Br809  Br    0.85892   0.96763   0.95239   0.00000  Uiso   1.00
Br810  Br    0.64108   0.53236   0.04761   0.00000  Uiso   1.00
Br811  Br    0.96542   0.85824   0.95239   0.00000  Uiso   1.00
Br812  Br    0.53458   0.64176   0.04761   0.00000  Uiso   1.00
Br813  Br    0.60289   0.96147   0.27149   0.00000  Uiso   1.00
Br814  Br    0.89711   0.53853   0.72851   0.00000  Uiso   1.00
Br815  Br    0.60686   0.67117   0.16848   0.00000  Uiso   1.00
Br816  Br    0.89199   0.78528   0.54761   0.00000  Uiso   1.00
Br817  Br    0.89315   0.82883   0.83152   0.00000  Uiso   1.00
Br818  Br    0.89712   0.53853   0.27148   0.00000  Uiso   1.00
Br819  Br    0.60289   0.96147   0.72851   0.00000  Uiso   1.00
Br820  Br    0.89314   0.82883   0.16848   0.00000  Uiso   1.00
Br821  Br    0.60686   0.67117   0.83152   0.00000  Uiso   1.00
Br822  Br    0.67118   0.60686   0.83151   0.00000  Uiso   1.00
Br823  Br    0.82882   0.89314   0.16848   0.00000  Uiso   1.00
Br824  Br    0.53853   0.89711   0.72851   0.00000  Uiso   1.00
Br825  Br    0.96147   0.60289   0.27148   0.00000  Uiso   1.00
Br826  Br    0.82883   0.89314   0.83152   0.00000  Uiso   1.00
Br827  Br    0.78510   0.89193   0.45239   0.00000  Uiso   1.00
Br828  Br    0.67118   0.60686   0.16848   0.00000  Uiso   1.00
Br829  Br    0.96147   0.60289   0.72850   0.00000  Uiso   1.00
Br830  Br    0.53853   0.89711   0.27149   0.00000  Uiso   1.00
Br831  Br    0.85289   0.71147   0.77149   0.00000  Uiso   1.00
Br832  Br    0.64711   0.78853   0.22851   0.00000  Uiso   1.00
Br833  Br    0.85685   0.92116   0.66848   0.00000  Uiso   1.00
Br834  Br    0.64315   0.57883   0.33152   0.00000  Uiso   1.00
Br835  Br    0.64711   0.78853   0.77149   0.00000  Uiso   1.00
Br836  Br    0.85289   0.71147   0.22851   0.00000  Uiso   1.00
Br837  Br    0.64315   0.57883   0.66848   0.00000  Uiso   1.00
Br838  Br    0.71490   0.60807   0.54761   0.00000  Uiso   1.00
Br839  Br    0.85685   0.92117   0.33152   0.00000  Uiso   1.00
Br840  Br    0.92117   0.85685   0.33152   0.00000  Uiso   1.00
Br841  Br    0.57883   0.64315   0.66848   0.00000  Uiso   1.00
Br842  Br    0.78853   0.64711   0.22851   0.00000  Uiso   1.00
Br843  Br    0.71147   0.85289   0.77149   0.00000  Uiso   1.00
Br844  Br    0.57883   0.64315   0.33152   0.00000  Uiso   1.00
Br845  Br    0.92116   0.85685   0.66848   0.00000  Uiso   1.00
Br846  Br    0.71147   0.85289   0.22850   0.00000  Uiso   1.00
Br847  Br    0.78853   0.64711   0.77149   0.00000  Uiso   1.00
Br848  Br    0.89199   0.78528   0.45239   0.00000  Uiso   1.00
Br849  Br    0.60801   0.71472   0.54761   0.00000  Uiso   1.00
Br850  Br    0.71490   0.60807   0.45239   0.00000  Uiso   1.00
Br851  Br    0.78510   0.89193   0.54761   0.00000  Uiso   1.00
Br852  Br    0.64108   0.53237   0.95239   0.00000  Uiso   1.00
C853   C     0.96840   0.75987   0.41859   0.00000  Uiso   1.00
C854   C     0.71816   0.50908   0.08140   0.00000  Uiso   1.00
C855   C     0.73981   0.53214   0.54080   0.00000  Uiso   1.00
C856   C     0.96787   0.76025   0.45920   0.00000  Uiso   1.00
C857   C     0.53213   0.73975   0.54080   0.00000  Uiso   1.00
C858   C     0.73981   0.53214   0.45920   0.00000  Uiso   1.00
C859   C     0.76019   0.96786   0.54080   0.00000  Uiso   1.00
C860   C     0.71762   0.50941   0.95920   0.00000  Uiso   1.00
C861   C     0.78238   0.99059   0.04080   0.00000  Uiso   1.00
C862   C     0.51005   0.71781   0.95920   0.00000  Uiso   1.00
C863   C     0.98996   0.78219   0.04080   0.00000  Uiso   1.00
C864   C     0.78238   0.99059   0.95920   0.00000  Uiso   1.00
C865   C     0.99032   0.78165   0.91859   0.00000  Uiso   1.00
C866   C     0.71762   0.50941   0.04080   0.00000  Uiso   1.00
C867   C     0.98996   0.78219   0.95920   0.00000  Uiso   1.00
C868   C     0.51004   0.71781   0.04080   0.00000  Uiso   1.00
C869   C     0.59808   0.84808   0.25000   0.00000  Uiso   1.00
C870   C     0.90192   0.65192   0.75000   0.00000  Uiso   1.00
C871   C     0.65193   0.59807   0.25000   0.00000  Uiso   1.00
C872   C     0.84807   0.90193   0.75000   0.00000  Uiso   1.00
C873   C     0.90192   0.65192   0.25000   0.00000  Uiso   1.00
C874   C     0.59808   0.84808   0.75000   0.00000  Uiso   1.00
C875   C     0.84807   0.90193   0.25000   0.00000  Uiso   1.00
C876   C     0.50968   0.71835   0.08140   0.00000  Uiso   1.00
C877   C     0.65193   0.59807   0.75000   0.00000  Uiso   1.00
C878   C     0.59807   0.65193   0.75000   0.00000  Uiso   1.00
C879   C     0.90193   0.84807   0.25000   0.00000  Uiso   1.00
C880   C     0.65192   0.90192   0.75000   0.00000  Uiso   1.00
C881   C     0.84808   0.59808   0.25000   0.00000  Uiso   1.00
C882   C     0.90193   0.84807   0.75000   0.00000  Uiso   1.00
C883   C     0.59807   0.65193   0.25000   0.00000  Uiso   1.00
C884   C     0.84808   0.59808   0.75000   0.00000  Uiso   1.00
C885   C     0.65192   0.90192   0.25000   0.00000  Uiso   1.00
C886   C     0.50000   0.75000   0.47963   0.00000  Uiso   1.00
C887   C     0.71816   0.50908   0.91860   0.00000  Uiso   1.00
C888   C     0.50000   0.75000   0.52037   0.00000  Uiso   1.00
C889   C     0.75000   0.50000   0.47963   0.00000  Uiso   1.00
C890   C     0.75000   0.50000   0.52037   0.00000  Uiso   1.00
C891   C     0.75000   0.50000   0.97963   0.00000  Uiso   1.00
C892   C     0.75000   0.50000   0.02037   0.00000  Uiso   1.00
C893   C     0.50000   0.75000   0.97963   0.00000  Uiso   1.00
C894   C     0.50000   0.75000   0.02037   0.00000  Uiso   1.00
C895   C     0.78184   0.99093   0.08140   0.00000  Uiso   1.00
C896   C     0.50968   0.71835   0.91859   0.00000  Uiso   1.00
C897   C     0.99032   0.78165   0.08140   0.00000  Uiso   1.00
C898   C     0.50000   0.75000   0.39842   0.00000  Uiso   1.00
C899   C     0.50000   0.75000   0.60158   0.00000  Uiso   1.00
C900   C     0.75000   0.50000   0.39842   0.00000  Uiso   1.00
C901   C     0.53160   0.74013   0.58141   0.00000  Uiso   1.00
C902   C     0.75000   0.50000   0.60158   0.00000  Uiso   1.00
C903   C     0.75000   0.50000   0.89842   0.00000  Uiso   1.00
C904   C     0.75000   0.50000   0.10158   0.00000  Uiso   1.00
C905   C     0.50000   0.75000   0.89842   0.00000  Uiso   1.00
C906   C     0.50000   0.75000   0.10158   0.00000  Uiso   1.00
C907   C     0.56399   0.72932   0.47963   0.00000  Uiso   1.00
C908   C     0.93601   0.77068   0.52037   0.00000  Uiso   1.00
C909   C     0.77057   0.93597   0.47963   0.00000  Uiso   1.00
C910   C     0.72943   0.56403   0.52037   0.00000  Uiso   1.00
C911   C     0.93601   0.77068   0.47963   0.00000  Uiso   1.00
C912   C     0.74018   0.53161   0.41859   0.00000  Uiso   1.00
C913   C     0.56399   0.72932   0.52037   0.00000  Uiso   1.00
C914   C     0.72943   0.56403   0.47963   0.00000  Uiso   1.00
C915   C     0.77057   0.93597   0.52037   0.00000  Uiso   1.00
C916   C     0.68549   0.51898   0.97963   0.00000  Uiso   1.00
C917   C     0.81451   0.98102   0.02037   0.00000  Uiso   1.00
C918   C     0.52027   0.68588   0.97963   0.00000  Uiso   1.00
C919   C     0.97973   0.81412   0.02037   0.00000  Uiso   1.00
C920   C     0.81451   0.98102   0.97963   0.00000  Uiso   1.00
C921   C     0.68549   0.51898   0.02037   0.00000  Uiso   1.00
C922   C     0.97973   0.81412   0.97963   0.00000  Uiso   1.00
C923   C     0.75982   0.96839   0.58141   0.00000  Uiso   1.00
C924   C     0.52027   0.68588   0.02037   0.00000  Uiso   1.00
C925   C     0.75000   0.50000   0.35599   0.00000  Uiso   1.00
C926   C     0.75000   0.50000   0.64401   0.00000  Uiso   1.00
C927   C     0.50000   0.75000   0.35599   0.00000  Uiso   1.00
C928   C     0.50000   0.75000   0.64401   0.00000  Uiso   1.00
C929   C     0.50000   0.75000   0.85599   0.00000  Uiso   1.00
C930   C     0.50000   0.75000   0.14401   0.00000  Uiso   1.00
C931   C     0.75000   0.50000   0.85599   0.00000  Uiso   1.00
C932   C     0.75000   0.50000   0.14401   0.00000  Uiso   1.00
C933   C     0.67999   0.57001   0.25000   0.00000  Uiso   1.00
C934   C     0.53160   0.74013   0.41859   0.00000  Uiso   1.00
C935   C     0.82001   0.92999   0.75000   0.00000  Uiso   1.00
C936   C     0.92999   0.67999   0.25000   0.00000  Uiso   1.00
C937   C     0.57001   0.82001   0.75000   0.00000  Uiso   1.00
C938   C     0.82001   0.92999   0.25000   0.00000  Uiso   1.00
C939   C     0.67999   0.57001   0.75000   0.00000  Uiso   1.00
C940   C     0.57001   0.82001   0.25000   0.00000  Uiso   1.00
C941   C     0.92999   0.67999   0.75000   0.00000  Uiso   1.00
C942   C     0.67999   0.92999   0.75000   0.00000  Uiso   1.00
C943   C     0.82001   0.57001   0.25000   0.00000  Uiso   1.00
C944   C     0.92999   0.82001   0.75000   0.00000  Uiso   1.00
C945   C     0.96840   0.75987   0.58141   0.00000  Uiso   1.00
C946   C     0.57001   0.67999   0.25000   0.00000  Uiso   1.00
C947   C     0.82001   0.57001   0.75000   0.00000  Uiso   1.00
C948   C     0.67999   0.92999   0.25000   0.00000  Uiso   1.00
C949   C     0.57001   0.67999   0.75000   0.00000  Uiso   1.00
C950   C     0.92999   0.82001   0.25000   0.00000  Uiso   1.00
C951   C     0.61547   0.91159   0.25830   0.00000  Uiso   1.00
C952   C     0.88453   0.58841   0.74170   0.00000  Uiso   1.00
C953   C     0.61686   0.64392   0.21539   0.00000  Uiso   1.00
C954   C     0.88314   0.85608   0.78461   0.00000  Uiso   1.00
C955   C     0.88453   0.58841   0.25829   0.00000  Uiso   1.00
C956   C     0.75982   0.96839   0.41859   0.00000  Uiso   1.00
C957   C     0.61547   0.91159   0.74170   0.00000  Uiso   1.00
C958   C     0.88314   0.85608   0.21539   0.00000  Uiso   1.00
C959   C     0.61686   0.64392   0.78461   0.00000  Uiso   1.00
C960   C     0.64392   0.61686   0.78461   0.00000  Uiso   1.00
C961   C     0.85608   0.88313   0.21539   0.00000  Uiso   1.00
C962   C     0.58841   0.88453   0.74170   0.00000  Uiso   1.00
C963   C     0.91159   0.61547   0.25829   0.00000  Uiso   1.00
C964   C     0.85608   0.88314   0.78461   0.00000  Uiso   1.00
C965   C     0.64392   0.61686   0.21539   0.00000  Uiso   1.00
C966   C     0.91159   0.61547   0.74170   0.00000  Uiso   1.00
C967   C     0.74018   0.53161   0.58141   0.00000  Uiso   1.00
C968   C     0.58841   0.88453   0.25830   0.00000  Uiso   1.00
C969   C     0.86547   0.66159   0.75830   0.00000  Uiso   1.00
C970   C     0.63453   0.83841   0.24170   0.00000  Uiso   1.00
C971   C     0.86686   0.89392   0.71539   0.00000  Uiso   1.00
C972   C     0.63314   0.60608   0.28461   0.00000  Uiso   1.00
C973   C     0.63453   0.83841   0.75830   0.00000  Uiso   1.00
C974   C     0.86547   0.66159   0.24170   0.00000  Uiso   1.00
C975   C     0.63314   0.60608   0.71539   0.00000  Uiso   1.00
C976   C     0.86686   0.89392   0.28461   0.00000  Uiso   1.00
C977   C     0.89392   0.86686   0.28461   0.00000  Uiso   1.00
C978   C     0.78184   0.99092   0.91860   0.00000  Uiso   1.00
C979   C     0.60608   0.63314   0.71539   0.00000  Uiso   1.00
C980   C     0.83841   0.63453   0.24170   0.00000  Uiso   1.00
C981   C     0.66159   0.86547   0.75830   0.00000  Uiso   1.00
C982   C     0.60608   0.63314   0.28461   0.00000  Uiso   1.00
C983   C     0.89392   0.86686   0.71539   0.00000  Uiso   1.00
C984   C     0.66159   0.86547   0.24170   0.00000  Uiso   1.00
C985   C     0.83841   0.63453   0.75830   0.00000  Uiso   1.00
C986   C     0.53213   0.73976   0.45920   0.00000  Uiso   1.00
C987   C     0.96787   0.76024   0.54080   0.00000  Uiso   1.00
C988   C     0.76019   0.96786   0.45920   0.00000  Uiso   1.00
H989   H     0.94447   0.76759   0.40209   0.00000  Uiso   1.00
H990   H     0.69403   0.51618   0.09788   0.00000  Uiso   1.00
H991   H     0.98275   0.80563   0.90210   0.00000  Uiso   1.00
H992   H     0.51725   0.69437   0.09790   0.00000  Uiso   1.00
H993   H     0.69403   0.51618   0.90212   0.00000  Uiso   1.00
H994   H     0.80597   0.98382   0.09788   0.00000  Uiso   1.00
H995   H     0.51725   0.69437   0.90210   0.00000  Uiso   1.00
H996   H     0.98275   0.80563   0.09790   0.00000  Uiso   1.00
H997   H     0.55553   0.73241   0.59791   0.00000  Uiso   1.00
H998   H     0.73250   0.55556   0.40210   0.00000  Uiso   1.00
H999   H     0.76750   0.94444   0.59790   0.00000  Uiso   1.00
H1000  H     0.55553   0.73241   0.40209   0.00000  Uiso   1.00
H1001  H     0.94447   0.76759   0.59791   0.00000  Uiso   1.00
H1002  H     0.76750   0.94444   0.40210   0.00000  Uiso   1.00
H1003  H     0.73250   0.55556   0.59790   0.00000  Uiso   1.00
H1004  H     0.80597   0.98382   0.90212   0.00000  Uiso   1.00
O1005  O     0.75000   0.50000   0.25000   0.00000  Uiso   1.00
O1006  O     0.75000   0.96964   0.66245   0.00000  Uiso   1.00
O1007  O     0.96964   0.75000   0.33755   0.00000  Uiso   1.00
O1008  O     0.53037   0.75000   0.66245   0.00000  Uiso   1.00
O1009  O     0.50000   0.71963   0.83755   0.00000  Uiso   1.00
O1010  O     0.50000   0.78036   0.16245   0.00000  Uiso   1.00
O1011  O     0.78037   0.50000   0.83755   0.00000  Uiso   1.00
O1012  O     0.71964   0.50000   0.16245   0.00000  Uiso   1.00
O1013  O     0.50000   0.78036   0.83755   0.00000  Uiso   1.00
O1014  O     0.50000   0.71963   0.16245   0.00000  Uiso   1.00
O1015  O     0.71964   0.50000   0.83755   0.00000  Uiso   1.00
O1016  O     0.75000   0.50000   0.75000   0.00000  Uiso   1.00
O1017  O     0.78037   0.50000   0.16245   0.00000  Uiso   1.00
O1018  O     0.70725   0.57307   0.27302   0.00000  Uiso   1.00
O1019  O     0.79276   0.92693   0.72698   0.00000  Uiso   1.00
O1020  O     0.92693   0.70724   0.27302   0.00000  Uiso   1.00
O1021  O     0.57308   0.79276   0.72698   0.00000  Uiso   1.00
O1022  O     0.79276   0.92693   0.27302   0.00000  Uiso   1.00
O1023  O     0.70725   0.57307   0.72698   0.00000  Uiso   1.00
O1024  O     0.57308   0.79276   0.27302   0.00000  Uiso   1.00
O1025  O     0.92693   0.70724   0.72698   0.00000  Uiso   1.00
O1026  O     0.70725   0.92693   0.72698   0.00000  Uiso   1.00
O1027  O     0.50000   0.75000   0.25000   0.00000  Uiso   1.00
O1028  O     0.79276   0.57307   0.27302   0.00000  Uiso   1.00
O1029  O     0.92693   0.79275   0.72698   0.00000  Uiso   1.00
O1030  O     0.57308   0.70725   0.27302   0.00000  Uiso   1.00
O1031  O     0.79276   0.57307   0.72698   0.00000  Uiso   1.00
O1032  O     0.70725   0.92693   0.27302   0.00000  Uiso   1.00
O1033  O     0.57308   0.70725   0.72698   0.00000  Uiso   1.00
O1034  O     0.92693   0.79275   0.27302   0.00000  Uiso   1.00
O1035  O     0.95725   0.82307   0.77302   0.00000  Uiso   1.00
O1036  O     0.54276   0.67693   0.22698   0.00000  Uiso   1.00
O1037  O     0.67693   0.95725   0.77302   0.00000  Uiso   1.00
O1038  O     0.50000   0.75000   0.75000   0.00000  Uiso   1.00
O1039  O     0.82308   0.54275   0.22698   0.00000  Uiso   1.00
O1040  O     0.54276   0.67693   0.77302   0.00000  Uiso   1.00
O1041  O     0.95725   0.82307   0.22698   0.00000  Uiso   1.00
O1042  O     0.82308   0.54275   0.77302   0.00000  Uiso   1.00
O1043  O     0.67693   0.95725   0.22698   0.00000  Uiso   1.00
O1044  O     0.95725   0.67692   0.22698   0.00000  Uiso   1.00
O1045  O     0.54276   0.82308   0.77302   0.00000  Uiso   1.00
O1046  O     0.67693   0.54275   0.22698   0.00000  Uiso   1.00
O1047  O     0.82308   0.95725   0.77302   0.00000  Uiso   1.00
O1048  O     0.54276   0.82308   0.22698   0.00000  Uiso   1.00
O1049  O     0.75000   0.96964   0.33755   0.00000  Uiso   1.00
O1050  O     0.95725   0.67692   0.77302   0.00000  Uiso   1.00
O1051  O     0.82308   0.95725   0.22698   0.00000  Uiso   1.00
O1052  O     0.67693   0.54275   0.77302   0.00000  Uiso   1.00
O1053  O     0.75000   0.53036   0.66245   0.00000  Uiso   1.00
O1054  O     0.53037   0.75000   0.33755   0.00000  Uiso   1.00
O1055  O     0.96964   0.75000   0.66245   0.00000  Uiso   1.00
O1056  O     0.75000   0.53036   0.33755   0.00000  Uiso   1.00
Zn1057 Zn    0.70660   0.50000   0.21735   0.00000  Uiso   1.00
Zn1058 Zn    0.54341   0.75000   0.28265   0.00000  Uiso   1.00
Zn1059 Zn    0.75000   0.95660   0.71735   0.00000  Uiso   1.00
Zn1060 Zn    0.75000   0.54340   0.28265   0.00000  Uiso   1.00
Zn1061 Zn    0.54341   0.75000   0.71735   0.00000  Uiso   1.00
Zn1062 Zn    0.95660   0.75000   0.28265   0.00000  Uiso   1.00
Zn1063 Zn    0.75000   0.54340   0.71735   0.00000  Uiso   1.00
Zn1064 Zn    0.75000   0.95660   0.28265   0.00000  Uiso   1.00
Zn1065 Zn    0.79341   0.50000   0.78265   0.00000  Uiso   1.00
Zn1066 Zn    0.50000   0.70659   0.21735   0.00000  Uiso   1.00
Zn1067 Zn    0.50000   0.79340   0.78265   0.00000  Uiso   1.00
Zn1068 Zn    0.79341   0.50000   0.21735   0.00000  Uiso   1.00
Zn1069 Zn    0.70660   0.50000   0.78265   0.00000  Uiso   1.00
Zn1070 Zn    0.50000   0.79340   0.21735   0.00000  Uiso   1.00
Zn1071 Zn    0.50000   0.70659   0.78265   0.00000  Uiso   1.00
Zn1072 Zn    0.95660   0.75000   0.71735   0.00000  Uiso   1.00
loop_
_geom_bond_atom_site_label_1
_geom_bond_atom_site_label_2
_geom_bond_distance
_geom_bond_site_symmetry_2
_ccdc_geom_bond_type
Br1    C103    1.937   .     S
Br2    C113    1.937   .     S
Br3    C114    1.937   .     S
Br4    C115    1.937   .     S
Br5    C116    1.937   .     S
Br6    C117    1.937   .     S
Br7    C118    1.937   .     S
Br8    C120    1.937   .     S
Br9    C147    1.933   .     S
Br10   C148    1.933   .     S
Br11   C149    1.934   .     S
Br12   C104    1.937   .     S
Br13   C150    1.934   .     S
Br14   C151    1.933   .     S
Br15   C153    1.933   .     S
Br16   C154    1.934   .     S
Br17   C155    1.934   .     S
Br18   C156    1.934   .     S
Br19   C157    1.934   .     S
Br20   C158    1.933   .     S
Br21   C159    1.933   .     S
Br22   C160    1.934   .     S
Br23   C105    1.937   .     S
Br24   C161    1.934   .     S
Br25   C162    1.933   .     S
Br26   C164    1.933   .     S
Br27   C165    1.933   .     S
Br28   C166    1.933   .     S
Br29   C167    1.934   .     S
Br30   C168    1.934   .     S
Br31   C169    1.933   .     S
Br32   C170    1.933   .     S
Br33   C171    1.934   .     S
Br34   C106    1.937   .     S
Br35   C172    1.934   .     S
Br36   C173    1.934   .     S
Br37   C175    1.934   .     S
Br38   C176    1.933   .     S
Br39   C177    1.933   .     S
Br40   C178    1.934   .     S
Br41   C179    1.934   .     S
Br42   C180    1.933   .     S
Br43   C181    1.933   .     S
Br44   C107    1.937   .     S
Br45   C109    1.937   .     S
Br46   C110    1.937   .     S
Br47   C111    1.937   .     S
Br48   C112    1.937   .     S
C49    C362    1.395   .     A
C49    C52     1.400   .     A
C49    H185    1.080   .     S
C50    C62     1.400   .     A
C50    H186    1.080   .     S
C50    C100    1.395   .     S
C51    C163    1.400   .     A
C51    C106    1.413   .     A
C51    C86     1.419   .     S
C52    C107    1.413   .     A
C52    C350    1.419   .     A
C53    C97     1.400   .     A
C53    C109    1.413   .     A
C53    C84     1.419   .     S
C54    C110    1.413   .     A
C54    C85     1.419   .     A
C54    C108    1.400   .     A
C55    C111    1.413   .     A
C55    C622    1.419   .     A
C55    C119    1.400   .     A
C56    C87     1.419   .     A
C56    C112    1.413   .     A
C56    C83     1.400   .     A
C57    C113    1.413   .     A
C57    C91     1.400   .     A
C57    C624    1.419   .     S
C58    C114    1.413   .     A
C58    C89     1.419   .     A
C58    C92     1.400   .     A
C59    C358    1.419   .     A
C59    C93     1.400   .     A
C59    C115    1.413   .     A
C60    C174    1.400   .     A
C60    C116    1.413   .     A
C60    C623    1.419   .     S
C61    C63     1.400   .     A
C61    H187    1.080   .     S
C61    C369    1.395   .     S
C62    C117    1.413   .     A
C62    C88     1.419   .     A
C63    C118    1.413   .     A
C63    C357    1.419   .     S
C64    C120    1.413   .     A
C64    C72     1.400   .     A
C64    C90     1.419   .     S
C65    C166    1.407   .     A
C65    C164    1.407   .     A
C65    C136    1.450   .     S
C66    C162    1.407   .     A
C66    C165    1.407   .     A
C66    C137    1.450   .     S
C67    C129    1.450   .     S
C67    C168    1.407   .     A
C67    C161    1.407   .     A
C68    C131    1.450   .     S
C68    C167    1.407   .     A
C68    C160    1.407   .     A
C69    C132    1.450   .     S
C69    C159    1.407   .     A
C69    C170    1.407   .     A
C70    C169    1.407   .     A
C70    C133    1.450   .     S
C70    C158    1.407   .     A
C71    C134    1.450   .     S
C71    C157    1.407   .     A
C71    C172    1.407   .     A
C72    H188    1.080   .     S
C72    C102    1.395   .     S
C73    C171    1.407   .     A
C73    C135    1.450   .     S
C73    C156    1.407   .     A
C74    C145    1.450   .     S
C74    C175    1.407   .     A
C74    C155    1.407   .     A
C75    C173    1.407   .     A
C75    C146    1.450   .     S
C75    C154    1.407   .     A
C76    C153    1.407   .     A
C76    C177    1.407   .     A
C76    C138    1.450   .     S
C77    C151    1.407   .     A
C77    C139    1.450   .     S
C77    C176    1.407   .     A
C78    C179    1.407   .     A
C78    C150    1.407   .     A
C78    C140    1.450   .     S
C79    C142    1.450   .     S
C79    C178    1.407   .     A
C79    C149    1.407   .     A
C80    C148    1.407   .     A
C80    C143    1.450   .     S
C80    C181    1.407   .     A
C81    C144    1.450   .     S
C81    C147    1.407   .     A
C81    C180    1.407   .     A
C82    C320    1.419   1_455 A
C82    C84     1.405   .     A
C82    C182    1.419   .     S
C83    C99     1.395   .     A
C83    H189    1.080   .     S
C84    C451    1.419   1_455 A
C85    C86     1.405   .     S
C85    C720    1.419   1_545 S
C86    C591    1.419   1_545 A
C87    C596    1.419   1_545 S
C87    C88     1.404   1_556 S
C88    C593    1.419   1_545 S
C88    C87     1.404   1_554 S
C89    C331    1.419   1_455 S
C89    C90     1.404   1_556 S
C90    C327    1.419   1_455 A
C90    C89     1.404   1_554 S
C91    H190    1.080   .     S
C91    C636    1.395   .     A
C92    H191    1.080   .     S
C92    C101    1.395   .     A
C93    H192    1.080   .     S
C93    C370    1.395   .     A
C94    C317    1.395   1_455 A
C94    C123    1.463   .     S
C94    C130    1.395   .     S
C95    C124    1.463   .     S
C95    C409    1.395   1_455 A
C95    C97     1.395   .     S
C96    C121    1.463   .     S
C96    C108    1.395   .     A
C96    C688    1.395   1_545 S
C97    H193    1.080   .     S
C98    C655    1.395   1_545 A
C98    C122    1.463   .     S
C98    C163    1.395   .     S
C99    C127    1.463   .     S
C99    C710    1.395   1_545 S
C100   C627    1.395   1_545 A
C100   C128    1.463   .     S
C101   C125    1.463   .     S
C101   C329    1.395   1_455 S
C102   C126    1.463   .     S
C102   C361    1.395   1_455 A
C103   C182    1.413   .     A
C103   C109    1.404   .     A
C104   C183    1.413   .     A
C104   C107    1.404   .     A
C105   C111    1.404   .     A
C105   C184    1.413   .     A
C106   C110    1.404   .     A
C108   H194    1.080   .     S
C112   C117    1.404   1_556 S
C113   C116    1.404   1_554 S
C114   C120    1.404   1_556 S
C115   C118    1.404   1_554 S
C116   C113    1.404   1_556 S
C117   C112    1.404   1_554 S
C118   C115    1.404   1_556 S
C119   C634    1.395   .     A
C119   H195    1.080   .     S
C120   C114    1.404   1_554 S
C121   O252    1.278   .     A
C121   O781    1.278   1_545 S
C122   O738    1.278   1_545 A
C122   O249    1.278   .     S
C123   O471    1.278   1_455 A
C123   O250    1.278   .     S
C124   O519    1.278   1_455 A
C124   O204    1.278   .     S
C125   O205    1.278   .     S
C125   O209    1.278   .     S
C126   O210    1.278   .     A
C126   O206    1.278   .     A
C127   O207    1.278   .     S
C127   O211    1.278   .     S
C128   O208    1.278   .     S
C128   O213    1.278   .     S
C129   O242    1.278   .     A
C129   O214    1.278   .     A
C130   H196    1.080   .     S
C130   C182    1.400   .     A
C131   O215    1.278   .     A
C131   O243    1.278   .     A
C132   O216    1.278   .     A
C132   O240    1.278   .     A
C133   O241    1.278   .     A
C133   O217    1.278   .     A
C134   O247    1.278   .     A
C134   O218    1.278   .     A
C135   O219    1.278   .     A
C135   O248    1.278   .     A
C136   O244    1.278   .     A
C136   O220    1.278   .     A
C137   O221    1.278   .     A
C137   O246    1.278   .     A
C138   O222    1.278   .     A
C138   O233    1.278   .     A
C139   O224    1.278   .     A
C139   O235    1.278   .     A
C140   O225    1.278   .     A
C140   O231    1.278   .     A
C141   H197    1.080   .     S
C141   C363    1.395   .     A
C141   C183    1.400   .     A
C142   O226    1.278   .     A
C142   O232    1.278   .     A
C143   O238    1.278   .     A
C143   O227    1.278   .     A
C144   O239    1.278   .     A
C144   O228    1.278   .     A
C145   O229    1.278   .     A
C145   O236    1.278   .     A
C146   O237    1.278   .     A
C146   O230    1.278   .     A
C147   C164    1.398   .     A
C148   C162    1.398   .     A
C149   C161    1.398   .     A
C150   C160    1.398   .     A
C151   C159    1.398   .     A
C152   H198    1.080   .     S
C152   C184    1.400   .     A
C152   C632    1.395   .     S
C153   C158    1.398   .     A
C154   C157    1.398   .     A
C155   C156    1.398   .     A
C163   H199    1.080   .     S
C165   C181    1.398   .     A
C166   C180    1.398   .     A
C167   C179    1.398   .     A
C168   C178    1.398   .     A
C169   C177    1.398   .     A
C170   C176    1.398   .     A
C171   C175    1.398   .     A
C172   C173    1.398   .     A
C174   H200    1.080   .     S
C174   C635    1.395   .     S
C183   C352    1.419   .     A
C184   C621    1.419   .     S
O201   Zn264   1.944   .     S
O201   Zn256   1.944   .     S
O201   Zn253   1.944   .     S
O201   Zn796   1.944   1_545 S
O202   Zn255   1.952   .     S
O202   C658    1.278   .     A
O203   C391    1.278   .     A
O203   Zn258   1.952   .     S
O204   Zn257   1.952   .     S
O205   Zn267   1.952   .     S
O206   Zn266   1.952   .     S
O207   Zn261   1.952   .     S
O208   Zn253   1.952   .     S
O209   Zn263   1.952   .     S
O210   Zn262   1.952   .     S
O211   Zn265   1.952   .     S
O212   Zn791   1.944   1_545 S
O212   Zn259   1.944   .     S
O212   Zn261   1.944   .     S
O212   Zn265   1.944   .     S
O213   Zn264   1.952   .     S
O214   Zn256   1.930   .     S
O215   Zn255   1.930   .     S
O216   Zn258   1.930   .     S
O217   Zn257   1.930   .     S
O218   Zn260   1.930   .     S
O219   Zn259   1.930   .     S
O220   Zn254   1.930   .     S
O221   Zn268   1.930   .     S
O222   Zn255   1.930   .     S
O223   Zn526   1.944   1_455 S
O223   Zn262   1.944   .     S
O223   Zn266   1.944   .     S
O223   Zn254   1.944   .     S
O224   Zn256   1.930   .     S
O225   Zn268   1.930   .     S
O226   Zn254   1.930   .     S
O227   Zn259   1.930   .     S
O228   Zn260   1.930   .     S
O229   Zn257   1.930   .     S
O230   Zn258   1.930   .     S
O231   Zn531   1.930   .     S
O232   Zn262   1.930   .     S
O233   Zn801   1.930   .     S
O234   Zn536   1.944   1_455 S
O234   Zn263   1.944   .     S
O234   Zn267   1.944   .     S
O234   Zn257   1.944   .     S
O235   Zn264   1.930   .     S
O236   Zn267   1.930   .     S
O237   Zn534   1.930   .     S
O238   Zn261   1.930   .     S
O239   Zn789   1.930   .     S
O240   Zn530   1.930   .     S
O241   Zn263   1.930   .     S
O242   Zn253   1.930   .     S
O243   Zn797   1.930   .     S
O244   Zn266   1.930   .     S
O245   Zn260   1.952   .     S
O245   C657    1.278   .     S
O246   Zn535   1.930   .     S
O247   Zn800   1.930   .     S
O248   Zn265   1.930   .     S
O249   Zn259   1.952   .     S
O250   Zn254   1.952   .     S
O251   C392    1.278   .     A
O251   Zn268   1.952   .     S
O252   Zn256   1.952   .     S
Zn253  O775    1.930   1_545 S
Zn255  O748    1.944   .     S
Zn258  O491    1.944   .     S
Zn260  O737    1.944   .     S
Zn261  O779    1.930   1_545 S
Zn262  O508    1.930   1_455 S
Zn263  O499    1.930   1_455 S
Zn264  O783    1.930   1_545 S
Zn265  O769    1.930   1_545 S
Zn266  O505    1.930   1_455 S
Zn267  O514    1.930   1_455 S
Zn268  O502    1.944   .     S
Br269  C371    1.937   .     S
Br270  C381    1.937   .     S
Br271  C382    1.937   .     S
Br272  C383    1.937   .     S
Br273  C384    1.937   .     S
Br274  C385    1.937   .     S
Br275  C386    1.937   .     S
Br276  C388    1.937   .     S
Br277  C415    1.933   .     S
Br278  C416    1.933   .     S
Br279  C417    1.934   .     S
Br280  C372    1.937   .     S
Br281  C418    1.934   .     S
Br282  C419    1.933   .     S
Br283  C421    1.933   .     S
Br284  C422    1.934   .     S
Br285  C423    1.934   .     S
Br286  C424    1.934   .     S
Br287  C425    1.934   .     S
Br288  C426    1.933   .     S
Br289  C427    1.933   .     S
Br290  C428    1.934   .     S
Br291  C373    1.937   .     S
Br292  C429    1.934   .     S
Br293  C430    1.933   .     S
Br294  C432    1.933   .     S
Br295  C433    1.933   .     S
Br296  C434    1.933   .     S
Br297  C435    1.934   .     S
Br298  C436    1.934   .     S
Br299  C437    1.933   .     S
Br300  C438    1.933   .     S
Br301  C439    1.934   .     S
Br302  C374    1.937   .     S
Br303  C440    1.934   .     S
Br304  C441    1.934   .     S
Br305  C443    1.934   .     S
Br306  C444    1.933   .     S
Br307  C445    1.933   .     S
Br308  C446    1.934   .     S
Br309  C447    1.934   .     S
Br310  C448    1.933   .     S
Br311  C449    1.933   .     S
Br312  C375    1.937   .     S
Br313  C377    1.937   .     S
Br314  C378    1.937   .     S
Br315  C379    1.937   .     S
Br316  C380    1.937   .     S
C317   C94     1.395   1_655 A
C317   C320    1.400   .     A
C317   H453    1.080   .     S
C318   C330    1.400   .     A
C318   H454    1.080   .     S
C318   C368    1.395   .     S
C319   C431    1.400   .     A
C319   C374    1.413   .     A
C319   C354    1.419   .     S
C320   C375    1.413   .     A
C320   C82     1.419   1_655 A
C321   C365    1.400   .     A
C321   C377    1.413   .     A
C321   C352    1.419   .     S
C322   C378    1.413   .     A
C322   C353    1.419   .     A
C322   C376    1.400   .     A
C323   C379    1.413   .     A
C323   C890    1.419   .     A
C323   C387    1.400   .     A
C324   C355    1.419   .     A
C324   C380    1.413   .     A
C324   C351    1.400   .     A
C325   C381    1.413   .     A
C325   C359    1.400   .     A
C325   C892    1.419   .     S
C326   C382    1.413   .     A
C326   C357    1.419   .     A
C326   C360    1.400   .     A
C327   C90     1.419   1_655 A
C327   C361    1.400   .     A
C327   C383    1.413   .     A
C328   C442    1.400   .     A
C328   C384    1.413   .     A
C328   C891    1.419   .     S
C329   C331    1.400   .     A
C329   H455    1.080   .     S
C329   C101    1.395   1_655 S
C330   C385    1.413   .     A
C330   C356    1.419   .     A
C331   C386    1.413   .     A
C331   C89     1.419   1_655 S
C332   C388    1.413   .     A
C332   C340    1.400   .     A
C332   C358    1.419   .     S
C333   C434    1.407   .     A
C333   C432    1.407   .     A
C333   C404    1.450   .     S
C334   C430    1.407   .     A
C334   C433    1.407   .     A
C334   C405    1.450   .     S
C335   C397    1.450   .     S
C335   C436    1.407   .     A
C335   C429    1.407   .     A
C336   C399    1.450   .     S
C336   C435    1.407   .     A
C336   C428    1.407   .     A
C337   C400    1.450   .     S
C337   C427    1.407   .     A
C337   C438    1.407   .     A
C338   C437    1.407   .     A
C338   C401    1.450   .     S
C338   C426    1.407   .     A
C339   C402    1.450   .     S
C339   C425    1.407   .     A
C339   C440    1.407   .     A
C340   H456    1.080   .     S
C340   C370    1.395   .     S
C341   C439    1.407   .     A
C341   C403    1.450   .     S
C341   C424    1.407   .     A
C342   C413    1.450   .     S
C342   C443    1.407   .     A
C342   C423    1.407   .     A
C343   C441    1.407   .     A
C343   C414    1.450   .     S
C343   C422    1.407   .     A
C344   C421    1.407   .     A
C344   C445    1.407   .     A
C344   C406    1.450   .     S
C345   C419    1.407   .     A
C345   C407    1.450   .     S
C345   C444    1.407   .     A
C346   C447    1.407   .     A
C346   C418    1.407   .     A
C346   C408    1.450   .     S
C347   C410    1.450   .     S
C347   C446    1.407   .     A
C347   C417    1.407   .     A
C348   C416    1.407   .     A
C348   C411    1.450   .     S
C348   C449    1.407   .     A
C349   C412    1.450   .     S
C349   C415    1.407   .     A
C349   C448    1.407   .     A
C350   C352    1.405   .     A
C350   C450    1.419   .     S
C351   C367    1.395   .     A
C351   H457    1.080   .     S
C353   C354    1.405   .     S
C353   C988    1.419   1_545 S
C354   C859    1.419   1_545 A
C355   C864    1.419   1_545 S
C355   C356    1.404   1_556 S
C356   C861    1.419   1_545 S
C356   C355    1.404   1_554 S
C357   C358    1.404   1_556 S
C358   C357    1.404   1_554 S
C359   H458    1.080   .     S
C359   C904    1.395   .     A
C360   H459    1.080   .     S
C360   C369    1.395   .     A
C361   H460    1.080   .     S
C361   C102    1.395   1_655 A
C362   C391    1.463   .     S
C362   C398    1.395   .     S
C363   C392    1.463   .     S
C363   C365    1.395   .     S
C364   C389    1.463   .     S
C364   C376    1.395   .     A
C364   C956    1.395   1_545 S
C365   H461    1.080   .     S
C366   C923    1.395   1_545 A
C366   C390    1.463   .     S
C366   C431    1.395   .     S
C367   C395    1.463   .     S
C367   C978    1.395   1_545 S
C368   C895    1.395   1_545 A
C368   C396    1.463   .     S
C369   C393    1.463   .     S
C370   C394    1.463   .     S
C371   C450    1.413   .     A
C371   C377    1.404   .     A
C372   C451    1.413   .     A
C372   C375    1.404   .     A
C373   C379    1.404   .     A
C373   C452    1.413   .     A
C374   C378    1.404   .     A
C376   H462    1.080   .     S
C380   C385    1.404   1_556 S
C381   C384    1.404   1_554 S
C382   C388    1.404   1_556 S
C383   C386    1.404   1_554 S
C384   C381    1.404   1_556 S
C385   C380    1.404   1_554 S
C386   C383    1.404   1_556 S
C387   C902    1.395   .     A
C387   H463    1.080   .     S
C388   C382    1.404   1_554 S
C389   O520    1.278   .     A
C389   O1049   1.278   1_545 S
C390   O1006   1.278   1_545 A
C390   O517    1.278   .     S
C391   O518    1.278   .     S
C392   O472    1.278   .     S
C393   O473    1.278   .     S
C393   O477    1.278   .     S
C394   O478    1.278   .     A
C394   O474    1.278   .     A
C395   O475    1.278   .     S
C395   O479    1.278   .     S
C396   O476    1.278   .     S
C396   O481    1.278   .     S
C397   O510    1.278   .     A
C397   O482    1.278   .     A
C398   H464    1.080   .     S
C398   C450    1.400   .     A
C399   O483    1.278   .     A
C399   O511    1.278   .     A
C400   O484    1.278   .     A
C400   O508    1.278   .     A
C401   O509    1.278   .     A
C401   O485    1.278   .     A
C402   O515    1.278   .     A
C402   O486    1.278   .     A
C403   O487    1.278   .     A
C403   O516    1.278   .     A
C404   O512    1.278   .     A
C404   O488    1.278   .     A
C405   O489    1.278   .     A
C405   O514    1.278   .     A
C406   O490    1.278   .     A
C406   O501    1.278   .     A
C407   O492    1.278   .     A
C407   O503    1.278   .     A
C408   O493    1.278   .     A
C408   O499    1.278   .     A
C409   H465    1.080   .     S
C409   C95     1.395   1_655 A
C409   C451    1.400   .     A
C410   O494    1.278   .     A
C410   O500    1.278   .     A
C411   O506    1.278   .     A
C411   O495    1.278   .     A
C412   O507    1.278   .     A
C412   O496    1.278   .     A
C413   O497    1.278   .     A
C413   O504    1.278   .     A
C414   O505    1.278   .     A
C414   O498    1.278   .     A
C415   C432    1.398   .     A
C416   C430    1.398   .     A
C417   C429    1.398   .     A
C418   C428    1.398   .     A
C419   C427    1.398   .     A
C420   H466    1.080   .     S
C420   C452    1.400   .     A
C420   C900    1.395   .     S
C421   C426    1.398   .     A
C422   C425    1.398   .     A
C423   C424    1.398   .     A
C431   H467    1.080   .     S
C433   C449    1.398   .     A
C434   C448    1.398   .     A
C435   C447    1.398   .     A
C436   C446    1.398   .     A
C437   C445    1.398   .     A
C438   C444    1.398   .     A
C439   C443    1.398   .     A
C440   C441    1.398   .     A
C442   H468    1.080   .     S
C442   C903    1.395   .     S
C451   C84     1.419   1_655 A
C452   C889    1.419   .     S
O469   Zn532   1.944   .     S
O469   Zn524   1.944   .     S
O469   Zn521   1.944   .     S
O469   Zn1064  1.944   1_545 S
O470   Zn523   1.952   .     S
O470   C926    1.278   .     A
O471   C123    1.278   1_655 A
O471   Zn526   1.952   .     S
O472   Zn525   1.952   .     S
O473   Zn535   1.952   .     S
O474   Zn534   1.952   .     S
O475   Zn529   1.952   .     S
O476   Zn521   1.952   .     S
O477   Zn531   1.952   .     S
O478   Zn530   1.952   .     S
O479   Zn533   1.952   .     S
O480   Zn1059  1.944   1_545 S
O480   Zn527   1.944   .     S
O480   Zn529   1.944   .     S
O480   Zn533   1.944   .     S
O481   Zn532   1.952   .     S
O482   Zn524   1.930   .     S
O483   Zn523   1.930   .     S
O484   Zn526   1.930   .     S
O485   Zn525   1.930   .     S
O486   Zn528   1.930   .     S
O487   Zn527   1.930   .     S
O488   Zn522   1.930   .     S
O489   Zn536   1.930   .     S
O490   Zn523   1.930   .     S
O491   Zn530   1.944   .     S
O491   Zn534   1.944   .     S
O491   Zn522   1.944   .     S
O492   Zn524   1.930   .     S
O493   Zn536   1.930   .     S
O494   Zn522   1.930   .     S
O495   Zn527   1.930   .     S
O496   Zn528   1.930   .     S
O497   Zn525   1.930   .     S
O498   Zn526   1.930   .     S
O499   Zn263   1.930   1_655 S
O500   Zn530   1.930   .     S
O501   Zn1069  1.930   .     S
O502   Zn531   1.944   .     S
O502   Zn535   1.944   .     S
O502   Zn525   1.944   .     S
O503   Zn532   1.930   .     S
O504   Zn535   1.930   .     S
O505   Zn266   1.930   1_655 S
O506   Zn529   1.930   .     S
O507   Zn1057  1.930   .     S
O508   Zn262   1.930   1_655 S
O509   Zn531   1.930   .     S
O510   Zn521   1.930   .     S
O511   Zn1065  1.930   .     S
O512   Zn534   1.930   .     S
O513   Zn528   1.952   .     S
O513   C925    1.278   .     S
O514   Zn267   1.930   1_655 S
O515   Zn1068  1.930   .     S
O516   Zn533   1.930   .     S
O517   Zn527   1.952   .     S
O518   Zn522   1.952   .     S
O519   C124    1.278   1_655 A
O519   Zn536   1.952   .     S
O520   Zn524   1.952   .     S
Zn521  O1043   1.930   1_545 S
Zn523  O1016   1.944   .     S
Zn526  O223    1.944   1_655 S
Zn528  O1005   1.944   .     S
Zn529  O1047   1.930   1_545 S
Zn532  O1051   1.930   1_545 S
Zn533  O1037   1.930   1_545 S
Zn536  O234    1.944   1_655 S
Br537  C639    1.937   .     S
Br538  C649    1.937   .     S
Br539  C650    1.937   .     S
Br540  C651    1.937   .     S
Br541  C652    1.937   .     S
Br542  C653    1.937   .     S
Br543  C654    1.937   .     S
Br544  C656    1.937   .     S
Br545  C683    1.933   .     S
Br546  C684    1.933   .     S
Br547  C685    1.934   .     S
Br548  C640    1.937   .     S
Br549  C686    1.934   .     S
Br550  C687    1.933   .     S
Br551  C689    1.933   .     S
Br552  C690    1.934   .     S
Br553  C691    1.934   .     S
Br554  C692    1.934   .     S
Br555  C693    1.934   .     S
Br556  C694    1.933   .     S
Br557  C695    1.933   .     S
Br558  C696    1.934   .     S
Br559  C641    1.937   .     S
Br560  C697    1.934   .     S
Br561  C698    1.933   .     S
Br562  C700    1.933   .     S
Br563  C701    1.933   .     S
Br564  C702    1.933   .     S
Br565  C703    1.934   .     S
Br566  C704    1.934   .     S
Br567  C705    1.933   .     S
Br568  C706    1.933   .     S
Br569  C707    1.934   .     S
Br570  C642    1.937   .     S
Br571  C708    1.934   .     S
Br572  C709    1.934   .     S
Br573  C711    1.934   .     S
Br574  C712    1.933   .     S
Br575  C713    1.933   .     S
Br576  C714    1.934   .     S
Br577  C715    1.934   .     S
Br578  C716    1.933   .     S
Br579  C717    1.933   .     S
Br580  C643    1.937   .     S
Br581  C645    1.937   .     S
Br582  C646    1.937   .     S
Br583  C647    1.937   .     S
Br584  C648    1.937   .     S
C585   C898    1.395   .     A
C585   C588    1.400   .     A
C585   H721    1.080   .     S
C586   C598    1.400   .     A
C586   H722    1.080   .     S
C586   C636    1.395   .     S
C587   C699    1.400   .     A
C587   C642    1.413   .     A
C587   C622    1.419   .     S
C588   C643    1.413   .     A
C588   C886    1.419   .     A
C589   C633    1.400   .     A
C589   C645    1.413   .     A
C589   C620    1.419   .     S
C590   C646    1.413   .     A
C590   C621    1.419   .     A
C590   C644    1.400   .     A
C591   C647    1.413   .     A
C591   C86     1.419   1_565 A
C591   C655    1.400   .     A
C592   C623    1.419   .     A
C592   C648    1.413   .     A
C592   C619    1.400   .     A
C593   C649    1.413   .     A
C593   C627    1.400   .     A
C593   C88     1.419   1_565 S
C594   C650    1.413   .     A
C594   C625    1.419   .     A
C594   C628    1.400   .     A
C595   C894    1.419   .     A
C595   C629    1.400   .     A
C595   C651    1.413   .     A
C596   C710    1.400   .     A
C596   C652    1.413   .     A
C596   C87     1.419   1_565 S
C597   C599    1.400   .     A
C597   H723    1.080   .     S
C597   C905    1.395   .     S
C598   C653    1.413   .     A
C598   C624    1.419   .     A
C599   C654    1.413   .     A
C599   C893    1.419   .     S
C600   C656    1.413   .     A
C600   C608    1.400   .     A
C600   C626    1.419   .     S
C601   C702    1.407   .     A
C601   C700    1.407   .     A
C601   C672    1.450   .     S
C602   C698    1.407   .     A
C602   C701    1.407   .     A
C602   C673    1.450   .     S
C603   C665    1.450   .     S
C603   C704    1.407   .     A
C603   C697    1.407   .     A
C604   C667    1.450   .     S
C604   C703    1.407   .     A
C604   C696    1.407   .     A
C605   C668    1.450   .     S
C605   C695    1.407   .     A
C605   C706    1.407   .     A
C606   C705    1.407   .     A
C606   C669    1.450   .     S
C606   C694    1.407   .     A
C607   C670    1.450   .     S
C607   C693    1.407   .     A
C607   C708    1.407   .     A
C608   H724    1.080   .     S
C608   C638    1.395   .     S
C609   C707    1.407   .     A
C609   C671    1.450   .     S
C609   C692    1.407   .     A
C610   C681    1.450   .     S
C610   C711    1.407   .     A
C610   C691    1.407   .     A
C611   C709    1.407   .     A
C611   C682    1.450   .     S
C611   C690    1.407   .     A
C612   C689    1.407   .     A
C612   C713    1.407   .     A
C612   C674    1.450   .     S
C613   C687    1.407   .     A
C613   C675    1.450   .     S
C613   C712    1.407   .     A
C614   C715    1.407   .     A
C614   C686    1.407   .     A
C614   C676    1.450   .     S
C615   C678    1.450   .     S
C615   C714    1.407   .     A
C615   C685    1.407   .     A
C616   C684    1.407   .     A
C616   C679    1.450   .     S
C616   C717    1.407   .     A
C617   C680    1.450   .     S
C617   C683    1.407   .     A
C617   C716    1.407   .     A
C618   C856    1.419   1_455 A
C618   C620    1.405   .     A
C618   C718    1.419   .     S
C619   C635    1.395   .     A
C619   H725    1.080   .     S
C620   C987    1.419   1_455 A
C621   C622    1.405   .     S
C623   C624    1.404   1_556 S
C624   C623    1.404   1_554 S
C625   C867    1.419   1_455 S
C625   C626    1.404   1_556 S
C626   C863    1.419   1_455 A
C626   C625    1.404   1_554 S
C627   H726    1.080   .     S
C627   C100    1.395   1_565 A
C628   H727    1.080   .     S
C628   C637    1.395   .     A
C629   H728    1.080   .     S
C629   C906    1.395   .     A
C630   C853    1.395   1_455 A
C630   C659    1.463   .     S
C630   C666    1.395   .     S
C631   C660    1.463   .     S
C631   C945    1.395   1_455 A
C631   C633    1.395   .     S
C632   C657    1.463   .     S
C632   C644    1.395   .     A
C633   H729    1.080   .     S
C634   C658    1.463   .     S
C634   C699    1.395   .     S
C635   C663    1.463   .     S
C636   C664    1.463   .     S
C637   C661    1.463   .     S
C637   C865    1.395   1_455 S
C638   C662    1.463   .     S
C638   C897    1.395   1_455 A
C639   C718    1.413   .     A
C639   C645    1.404   .     A
C640   C719    1.413   .     A
C640   C643    1.404   .     A
C641   C647    1.404   .     A
C641   C720    1.413   .     A
C642   C646    1.404   .     A
C644   H730    1.080   .     S
C648   C653    1.404   1_556 S
C649   C652    1.404   1_554 S
C650   C656    1.404   1_556 S
C651   C654    1.404   1_554 S
C652   C649    1.404   1_556 S
C653   C648    1.404   1_554 S
C654   C651    1.404   1_556 S
C655   C98     1.395   1_565 A
C655   H731    1.080   .     S
C656   C650    1.404   1_554 S
C657   O788    1.278   .     A
C658   O785    1.278   .     S
C659   O1007   1.278   1_455 A
C659   O786    1.278   .     S
C660   O1055   1.278   1_455 A
C660   O740    1.278   .     S
C661   O741    1.278   .     S
C661   O745    1.278   .     S
C662   O746    1.278   .     A
C662   O742    1.278   .     A
C663   O743    1.278   .     S
C663   O747    1.278   .     S
C664   O744    1.278   .     S
C664   O749    1.278   .     S
C665   O778    1.278   .     A
C665   O750    1.278   .     A
C666   H732    1.080   .     S
C666   C718    1.400   .     A
C667   O751    1.278   .     A
C667   O779    1.278   .     A
C668   O752    1.278   .     A
C668   O776    1.278   .     A
C669   O777    1.278   .     A
C669   O753    1.278   .     A
C670   O783    1.278   .     A
C670   O754    1.278   .     A
C671   O755    1.278   .     A
C671   O784    1.278   .     A
C672   O780    1.278   .     A
C672   O756    1.278   .     A
C673   O757    1.278   .     A
C673   O782    1.278   .     A
C674   O758    1.278   .     A
C674   O769    1.278   .     A
C675   O760    1.278   .     A
C675   O771    1.278   .     A
C676   O761    1.278   .     A
C676   O767    1.278   .     A
C677   H733    1.080   .     S
C677   C899    1.395   .     A
C677   C719    1.400   .     A
C678   O762    1.278   .     A
C678   O768    1.278   .     A
C679   O774    1.278   .     A
C679   O763    1.278   .     A
C680   O775    1.278   .     A
C680   O764    1.278   .     A
C681   O765    1.278   .     A
C681   O772    1.278   .     A
C682   O773    1.278   .     A
C682   O766    1.278   .     A
C683   C700    1.398   .     A
C684   C698    1.398   .     A
C685   C697    1.398   .     A
C686   C696    1.398   .     A
C687   C695    1.398   .     A
C688   H734    1.080   .     S
C688   C720    1.400   .     A
C688   C96     1.395   1_565 S
C689   C694    1.398   .     A
C690   C693    1.398   .     A
C691   C692    1.398   .     A
C699   H735    1.080   .     S
C701   C717    1.398   .     A
C702   C716    1.398   .     A
C703   C715    1.398   .     A
C704   C714    1.398   .     A
C705   C713    1.398   .     A
C706   C712    1.398   .     A
C707   C711    1.398   .     A
C708   C709    1.398   .     A
C710   H736    1.080   .     S
C710   C99     1.395   1_565 S
C719   C888    1.419   .     A
C720   C85     1.419   1_565 S
O737   Zn800   1.944   .     S
O737   Zn792   1.944   .     S
O737   Zn789   1.944   .     S
O738   Zn791   1.952   .     S
O738   C122    1.278   1_565 A
O739   C927    1.278   .     A
O739   Zn794   1.952   .     S
O740   Zn793   1.952   .     S
O741   Zn803   1.952   .     S
O742   Zn802   1.952   .     S
O743   Zn797   1.952   .     S
O744   Zn789   1.952   .     S
O745   Zn799   1.952   .     S
O746   Zn798   1.952   .     S
O747   Zn801   1.952   .     S
O748   Zn795   1.944   .     S
O748   Zn797   1.944   .     S
O748   Zn801   1.944   .     S
O749   Zn800   1.952   .     S
O750   Zn792   1.930   .     S
O751   Zn791   1.930   .     S
O752   Zn794   1.930   .     S
O753   Zn793   1.930   .     S
O754   Zn796   1.930   .     S
O755   Zn795   1.930   .     S
O756   Zn790   1.930   .     S
O757   Zn804   1.930   .     S
O758   Zn791   1.930   .     S
O759   Zn1062  1.944   1_455 S
O759   Zn798   1.944   .     S
O759   Zn802   1.944   .     S
O759   Zn790   1.944   .     S
O760   Zn792   1.930   .     S
O761   Zn804   1.930   .     S
O762   Zn790   1.930   .     S
O763   Zn795   1.930   .     S
O764   Zn796   1.930   .     S
O765   Zn793   1.930   .     S
O766   Zn794   1.930   .     S
O767   Zn1067  1.930   .     S
O768   Zn798   1.930   .     S
O769   Zn265   1.930   1_565 S
O770   Zn1072  1.944   1_455 S
O770   Zn799   1.944   .     S
O770   Zn803   1.944   .     S
O770   Zn793   1.944   .     S
O771   Zn800   1.930   .     S
O772   Zn803   1.930   .     S
O773   Zn1070  1.930   .     S
O774   Zn797   1.930   .     S
O775   Zn253   1.930   1_565 S
O776   Zn1066  1.930   .     S
O777   Zn799   1.930   .     S
O778   Zn789   1.930   .     S
O779   Zn261   1.930   1_565 S
O780   Zn802   1.930   .     S
O781   Zn796   1.952   .     S
O781   C121    1.278   1_565 S
O782   Zn1071  1.930   .     S
O783   Zn264   1.930   1_565 S
O784   Zn801   1.930   .     S
O785   Zn795   1.952   .     S
O786   Zn790   1.952   .     S
O787   C928    1.278   .     A
O787   Zn804   1.952   .     S
O788   Zn792   1.952   .     S
Zn791  O212    1.944   1_565 S
Zn794  O1027   1.944   .     S
Zn796  O201    1.944   1_565 S
Zn798  O1044   1.930   1_455 S
Zn799  O1035   1.930   1_455 S
Zn802  O1041   1.930   1_455 S
Zn803  O1050   1.930   1_455 S
Zn804  O1038   1.944   .     S
Br805  C907    1.937   .     S
Br806  C917    1.937   .     S
Br807  C918    1.937   .     S
Br808  C919    1.937   .     S
Br809  C920    1.937   .     S
Br810  C921    1.937   .     S
Br811  C922    1.937   .     S
Br812  C924    1.937   .     S
Br813  C951    1.933   .     S
Br814  C952    1.933   .     S
Br815  C953    1.934   .     S
Br816  C908    1.937   .     S
Br817  C954    1.934   .     S
Br818  C955    1.933   .     S
Br819  C957    1.933   .     S
Br820  C958    1.934   .     S
Br821  C959    1.934   .     S
Br822  C960    1.934   .     S
Br823  C961    1.934   .     S
Br824  C962    1.933   .     S
Br825  C963    1.933   .     S
Br826  C964    1.934   .     S
Br827  C909    1.937   .     S
Br828  C965    1.934   .     S
Br829  C966    1.933   .     S
Br830  C968    1.933   .     S
Br831  C969    1.933   .     S
Br832  C970    1.933   .     S
Br833  C971    1.934   .     S
Br834  C972    1.934   .     S
Br835  C973    1.933   .     S
Br836  C974    1.933   .     S
Br837  C975    1.934   .     S
Br838  C910    1.937   .     S
Br839  C976    1.934   .     S
Br840  C977    1.934   .     S
Br841  C979    1.934   .     S
Br842  C980    1.933   .     S
Br843  C981    1.933   .     S
Br844  C982    1.934   .     S
Br845  C983    1.934   .     S
Br846  C984    1.933   .     S
Br847  C985    1.933   .     S
Br848  C911    1.937   .     S
Br849  C913    1.937   .     S
Br850  C914    1.937   .     S
Br851  C915    1.937   .     S
Br852  C916    1.937   .     S
C853   C630    1.395   1_655 A
C853   C856    1.400   .     A
C853   H989    1.080   .     S
C854   C866    1.400   .     A
C854   H990    1.080   .     S
C854   C904    1.395   .     S
C855   C967    1.400   .     A
C855   C910    1.413   .     A
C855   C890    1.419   .     S
C856   C911    1.413   .     A
C856   C618    1.419   1_655 A
C857   C901    1.400   .     A
C857   C913    1.413   .     A
C857   C888    1.419   .     S
C858   C914    1.413   .     A
C858   C889    1.419   .     A
C858   C912    1.400   .     A
C859   C915    1.413   .     A
C859   C354    1.419   1_565 A
C859   C923    1.400   .     A
C860   C891    1.419   .     A
C860   C916    1.413   .     A
C860   C887    1.400   .     A
C861   C917    1.413   .     A
C861   C895    1.400   .     A
C861   C356    1.419   1_565 S
C862   C918    1.413   .     A
C862   C893    1.419   .     A
C862   C896    1.400   .     A
C863   C626    1.419   1_655 A
C863   C897    1.400   .     A
C863   C919    1.413   .     A
C864   C978    1.400   .     A
C864   C920    1.413   .     A
C864   C355    1.419   1_565 S
C865   C867    1.400   .     A
C865   H991    1.080   .     S
C865   C637    1.395   1_655 S
C866   C921    1.413   .     A
C866   C892    1.419   .     A
C867   C922    1.413   .     A
C867   C625    1.419   1_655 S
C868   C924    1.413   .     A
C868   C876    1.400   .     A
C868   C894    1.419   .     S
C869   C970    1.407   .     A
C869   C968    1.407   .     A
C869   C940    1.450   .     S
C870   C966    1.407   .     A
C870   C969    1.407   .     A
C870   C941    1.450   .     S
C871   C933    1.450   .     S
C871   C972    1.407   .     A
C871   C965    1.407   .     A
C872   C935    1.450   .     S
C872   C971    1.407   .     A
C872   C964    1.407   .     A
C873   C936    1.450   .     S
C873   C963    1.407   .     A
C873   C974    1.407   .     A
C874   C973    1.407   .     A
C874   C937    1.450   .     S
C874   C962    1.407   .     A
C875   C938    1.450   .     S
C875   C961    1.407   .     A
C875   C976    1.407   .     A
C876   H992    1.080   .     S
C876   C906    1.395   .     S
C877   C975    1.407   .     A
C877   C939    1.450   .     S
C877   C960    1.407   .     A
C878   C949    1.450   .     S
C878   C979    1.407   .     A
C878   C959    1.407   .     A
C879   C977    1.407   .     A
C879   C950    1.450   .     S
C879   C958    1.407   .     A
C880   C957    1.407   .     A
C880   C981    1.407   .     A
C880   C942    1.450   .     S
C881   C955    1.407   .     A
C881   C943    1.450   .     S
C881   C980    1.407   .     A
C882   C983    1.407   .     A
C882   C954    1.407   .     A
C882   C944    1.450   .     S
C883   C946    1.450   .     S
C883   C982    1.407   .     A
C883   C953    1.407   .     A
C884   C952    1.407   .     A
C884   C947    1.450   .     S
C884   C985    1.407   .     A
C885   C948    1.450   .     S
C885   C951    1.407   .     A
C885   C984    1.407   .     A
C886   C888    1.405   .     A
C886   C986    1.419   .     S
C887   C903    1.395   .     A
C887   H993    1.080   .     S
C889   C890    1.405   .     S
C891   C892    1.404   1_556 S
C892   C891    1.404   1_554 S
C893   C894    1.404   1_556 S
C894   C893    1.404   1_554 S
C895   H994    1.080   .     S
C895   C368    1.395   1_565 A
C896   H995    1.080   .     S
C896   C905    1.395   .     A
C897   H996    1.080   .     S
C897   C638    1.395   1_655 A
C898   C927    1.463   .     S
C898   C934    1.395   .     S
C899   C928    1.463   .     S
C899   C901    1.395   .     S
C900   C925    1.463   .     S
C900   C912    1.395   .     A
C901   H997    1.080   .     S
C902   C926    1.463   .     S
C902   C967    1.395   .     S
C903   C931    1.463   .     S
C904   C932    1.463   .     S
C905   C929    1.463   .     S
C906   C930    1.463   .     S
C907   C986    1.413   .     A
C907   C913    1.404   .     A
C908   C987    1.413   .     A
C908   C911    1.404   .     A
C909   C915    1.404   .     A
C909   C988    1.413   .     A
C910   C914    1.404   .     A
C912   H998    1.080   .     S
C916   C921    1.404   1_556 S
C917   C920    1.404   1_554 S
C918   C924    1.404   1_556 S
C919   C922    1.404   1_554 S
C920   C917    1.404   1_556 S
C921   C916    1.404   1_554 S
C922   C919    1.404   1_556 S
C923   C366    1.395   1_565 A
C923   H999    1.080   .     S
C924   C918    1.404   1_554 S
C925   O1056   1.278   .     A
C926   O1053   1.278   .     S
C927   O1054   1.278   .     S
C928   O1008   1.278   .     S
C929   O1009   1.278   .     S
C929   O1013   1.278   .     S
C930   O1014   1.278   .     A
C930   O1010   1.278   .     A
C931   O1011   1.278   .     S
C931   O1015   1.278   .     S
C932   O1012   1.278   .     S
C932   O1017   1.278   .     S
C933   O1046   1.278   .     A
C933   O1018   1.278   .     A
C934   H1000   1.080   .     S
C934   C986    1.400   .     A
C935   O1019   1.278   .     A
C935   O1047   1.278   .     A
C936   O1020   1.278   .     A
C936   O1044   1.278   .     A
C937   O1045   1.278   .     A
C937   O1021   1.278   .     A
C938   O1051   1.278   .     A
C938   O1022   1.278   .     A
C939   O1023   1.278   .     A
C939   O1052   1.278   .     A
C940   O1048   1.278   .     A
C940   O1024   1.278   .     A
C941   O1025   1.278   .     A
C941   O1050   1.278   .     A
C942   O1026   1.278   .     A
C942   O1037   1.278   .     A
C943   O1028   1.278   .     A
C943   O1039   1.278   .     A
C944   O1029   1.278   .     A
C944   O1035   1.278   .     A
C945   H1001   1.080   .     S
C945   C631    1.395   1_655 A
C945   C987    1.400   .     A
C946   O1030   1.278   .     A
C946   O1036   1.278   .     A
C947   O1042   1.278   .     A
C947   O1031   1.278   .     A
C948   O1043   1.278   .     A
C948   O1032   1.278   .     A
C949   O1033   1.278   .     A
C949   O1040   1.278   .     A
C950   O1041   1.278   .     A
C950   O1034   1.278   .     A
C951   C968    1.398   .     A
C952   C966    1.398   .     A
C953   C965    1.398   .     A
C954   C964    1.398   .     A
C955   C963    1.398   .     A
C956   H1002   1.080   .     S
C956   C988    1.400   .     A
C956   C364    1.395   1_565 S
C957   C962    1.398   .     A
C958   C961    1.398   .     A
C959   C960    1.398   .     A
C967   H1003   1.080   .     S
C969   C985    1.398   .     A
C970   C984    1.398   .     A
C971   C983    1.398   .     A
C972   C982    1.398   .     A
C973   C981    1.398   .     A
C974   C980    1.398   .     A
C975   C979    1.398   .     A
C976   C977    1.398   .     A
C978   H1004   1.080   .     S
C978   C367    1.395   1_565 S
C987   C620    1.419   1_655 A
C988   C353    1.419   1_565 S
O1005  Zn1068  1.944   .     S
O1005  Zn1060  1.944   .     S
O1005  Zn1057  1.944   .     S
O1006  Zn1059  1.952   .     S
O1006  C390    1.278   1_565 A
O1007  C659    1.278   1_655 A
O1007  Zn1062  1.952   .     S
O1008  Zn1061  1.952   .     S
O1009  Zn1071  1.952   .     S
O1010  Zn1070  1.952   .     S
O1011  Zn1065  1.952   .     S
O1012  Zn1057  1.952   .     S
O1013  Zn1067  1.952   .     S
O1014  Zn1066  1.952   .     S
O1015  Zn1069  1.952   .     S
O1016  Zn1063  1.944   .     S
O1016  Zn1065  1.944   .     S
O1016  Zn1069  1.944   .     S
O1017  Zn1068  1.952   .     S
O1018  Zn1060  1.930   .     S
O1019  Zn1059  1.930   .     S
O1020  Zn1062  1.930   .     S
O1021  Zn1061  1.930   .     S
O1022  Zn1064  1.930   .     S
O1023  Zn1063  1.930   .     S
O1024  Zn1058  1.930   .     S
O1025  Zn1072  1.930   .     S
O1026  Zn1059  1.930   .     S
O1027  Zn1066  1.944   .     S
O1027  Zn1070  1.944   .     S
O1027  Zn1058  1.944   .     S
O1028  Zn1060  1.930   .     S
O1029  Zn1072  1.930   .     S
O1030  Zn1058  1.930   .     S
O1031  Zn1063  1.930   .     S
O1032  Zn1064  1.930   .     S
O1033  Zn1061  1.930   .     S
O1034  Zn1062  1.930   .     S
O1035  Zn799   1.930   1_655 S
O1036  Zn1066  1.930   .     S
O1037  Zn533   1.930   1_565 S
O1038  Zn1067  1.944   .     S
O1038  Zn1071  1.944   .     S
O1038  Zn1061  1.944   .     S
O1039  Zn1068  1.930   .     S
O1040  Zn1071  1.930   .     S
O1041  Zn802   1.930   1_655 S
O1042  Zn1065  1.930   .     S
O1043  Zn521   1.930   1_565 S
O1044  Zn798   1.930   1_655 S
O1045  Zn1067  1.930   .     S
O1046  Zn1057  1.930   .     S
O1047  Zn529   1.930   1_565 S
O1048  Zn1070  1.930   .     S
O1049  Zn1064  1.952   .     S
O1049  C389    1.278   1_565 S
O1050  Zn803   1.930   1_655 S
O1051  Zn532   1.930   1_565 S
O1052  Zn1069  1.930   .     S
O1053  Zn1063  1.952   .     S
O1054  Zn1058  1.952   .     S
O1055  C660    1.278   1_655 A
O1055  Zn1072  1.952   .     S
O1056  Zn1060  1.952   .     S
Zn1059 O480    1.944   1_565 S
Zn1062 O759    1.944   1_655 S
Zn1064 O469    1.944   1_565 S
Zn1072 O770    1.944   1_655 S
