data_str_m1_o1_o2_pcu_sym.79
_audit_creation_date              2020-01-03
_audit_creation_method            'Materials Studio'
_symmetry_space_group_name_H-M    'P1'
_symmetry_Int_Tables_number       1
_symmetry_cell_setting            triclinic
loop_
_symmetry_equiv_pos_as_xyz
  x,y,z
_cell_length_a                    36.5282
_cell_length_b                    36.6484
_cell_length_c                    34.5738
_cell_angle_alpha                 90.0000
_cell_angle_beta                  90.0000
_cell_angle_gamma                 90.0000
loop_
_atom_site_label
_atom_site_type_symbol
_atom_site_fract_x
_atom_site_fract_y
_atom_site_fract_z
_atom_site_U_iso_or_equiv
_atom_site_adp_type
_atom_site_occupancy
C1     C     0.21866   0.01091   0.04181   0.00000  Uiso   1.00
C2     C     0.03134   0.26091   0.45819   0.00000  Uiso   1.00
C3     C     0.34829   0.40213   0.75026   0.00000  Uiso   1.00
C4     C     0.40171   0.15213   0.25027   0.00000  Uiso   1.00
C5     C     0.09829   0.34788   0.74974   0.00000  Uiso   1.00
C6     C     0.34829   0.40213   0.24973   0.00000  Uiso   1.00
C7     C     0.15171   0.09787   0.75026   0.00000  Uiso   1.00
C8     C     0.09829   0.15213   0.74973   0.00000  Uiso   1.00
C9     C     0.40171   0.34788   0.25026   0.00000  Uiso   1.00
C10    C     0.15171   0.40213   0.75027   0.00000  Uiso   1.00
C11    C     0.34829   0.09787   0.24974   0.00000  Uiso   1.00
C12    C     0.40171   0.34787   0.74973   0.00000  Uiso   1.00
C13    C     0.23905   0.46877   0.54182   0.00000  Uiso   1.00
C14    C     0.09829   0.15212   0.25026   0.00000  Uiso   1.00
C15    C     0.34829   0.09787   0.75027   0.00000  Uiso   1.00
C16    C     0.15171   0.40213   0.24974   0.00000  Uiso   1.00
C17    C     0.25000  -0.00000   0.10242   0.00000  Uiso   1.00
C18    C     0.25000   0.00000   0.89758   0.00000  Uiso   1.00
C19    C    -0.00000   0.25000   0.10244   0.00000  Uiso   1.00
C20    C     0.00000   0.25000   0.89756   0.00000  Uiso   1.00
C21    C     0.00000   0.25000   0.60242   0.00000  Uiso   1.00
C22    C     0.00000   0.25000   0.39758   0.00000  Uiso   1.00
C23    C     0.25000   0.00000   0.60244   0.00000  Uiso   1.00
C24    C     0.23905   0.03123   0.45818   0.00000  Uiso   1.00
C25    C     0.25000   0.00000   0.39756   0.00000  Uiso   1.00
C26    C     0.17577   0.38114   0.18548   0.00000  Uiso   1.00
C27    C     0.32465   0.11846   0.81486   0.00000  Uiso   1.00
C28    C     0.11395   0.17137   0.18262   0.00000  Uiso   1.00
C29    C     0.38563   0.32822   0.81712   0.00000  Uiso   1.00
C30    C     0.32422   0.11886   0.18548   0.00000  Uiso   1.00
C31    C     0.17535   0.38154   0.81486   0.00000  Uiso   1.00
C32    C     0.38605   0.32863   0.18262   0.00000  Uiso   1.00
C33    C     0.11437   0.17177   0.81712   0.00000  Uiso   1.00
C34    C     0.17577   0.11886   0.81452   0.00000  Uiso   1.00
C35    C     0.03134   0.23909   0.54181   0.00000  Uiso   1.00
C36    C     0.32465   0.38154   0.18514   0.00000  Uiso   1.00
C37    C     0.11395   0.32863   0.81738   0.00000  Uiso   1.00
C38    C     0.38563   0.17178   0.18288   0.00000  Uiso   1.00
C39    C     0.32422   0.38114   0.81452   0.00000  Uiso   1.00
C40    C     0.17535   0.11846   0.18514   0.00000  Uiso   1.00
C41    C     0.38605   0.17137   0.81738   0.00000  Uiso   1.00
C42    C     0.11437   0.32822   0.18288   0.00000  Uiso   1.00
C43    C     0.42539   0.13148   0.68519   0.00000  Uiso   1.00
C44    C     0.07427   0.36880   0.31457   0.00000  Uiso   1.00
C45    C     0.36437   0.42178   0.68287   0.00000  Uiso   1.00
C46    C     0.46866   0.23909   0.45819   0.00000  Uiso   1.00
C47    C     0.13605   0.07863   0.31737   0.00000  Uiso   1.00
C48    C     0.07461   0.36852   0.68519   0.00000  Uiso   1.00
C49    C     0.42573   0.13120   0.31457   0.00000  Uiso   1.00
C50    C     0.13563   0.07823   0.68287   0.00000  Uiso   1.00
C51    C     0.36395   0.42137   0.31737   0.00000  Uiso   1.00
C52    C     0.42539   0.36852   0.31481   0.00000  Uiso   1.00
C53    C     0.07427   0.13120   0.68543   0.00000  Uiso   1.00
C54    C     0.36437   0.07823   0.31713   0.00000  Uiso   1.00
C55    C     0.13605   0.42137   0.68263   0.00000  Uiso   1.00
C56    C     0.07461   0.13148   0.31481   0.00000  Uiso   1.00
C57    C     0.26095   0.03123   0.54182   0.00000  Uiso   1.00
C58    C     0.42573   0.36880   0.68543   0.00000  Uiso   1.00
C59    C     0.13563   0.42177   0.31713   0.00000  Uiso   1.00
C60    C     0.36395   0.07863   0.68263   0.00000  Uiso   1.00
C61    C     0.26095   0.46877   0.45818   0.00000  Uiso   1.00
C62    C     0.21858   0.01066   0.08206   0.00000  Uiso   1.00
C63    C     0.28142   0.01066   0.91794   0.00000  Uiso   1.00
C64    C     0.01070   0.21869   0.08207   0.00000  Uiso   1.00
C65    C     0.28134   0.01091   0.95819   0.00000  Uiso   1.00
C66    C     0.01070   0.28131   0.91793   0.00000  Uiso   1.00
C67    C     0.28142   0.48934   0.08206   0.00000  Uiso   1.00
C68    C     0.21858   0.48934   0.91794   0.00000  Uiso   1.00
C69    C     0.48930   0.28131   0.08207   0.00000  Uiso   1.00
C70    C     0.48930   0.21869   0.91793   0.00000  Uiso   1.00
C71    C     0.46858   0.26066   0.58206   0.00000  Uiso   1.00
C72    C     0.03142   0.26066   0.41794   0.00000  Uiso   1.00
C73    C     0.23930   0.46869   0.58207   0.00000  Uiso   1.00
C74    C     0.23930   0.03131   0.41793   0.00000  Uiso   1.00
C75    C     0.03142   0.23934   0.58206   0.00000  Uiso   1.00
C76    C     0.01095   0.21877   0.04182   0.00000  Uiso   1.00
C77    C     0.46858   0.23934   0.41794   0.00000  Uiso   1.00
C78    C     0.26070   0.03131   0.58207   0.00000  Uiso   1.00
C79    C     0.26070   0.46869   0.41793   0.00000  Uiso   1.00
C80    C     0.25000   0.00000   0.02132   0.00000  Uiso   1.00
C81    C     0.25000   0.00000   0.97868   0.00000  Uiso   1.00
C82    C    -0.00000   0.25000   0.02132   0.00000  Uiso   1.00
C83    C     0.00000   0.25000   0.97868   0.00000  Uiso   1.00
C84    C    -0.00000   0.25000   0.52132   0.00000  Uiso   1.00
C85    C     0.00000   0.25000   0.47868   0.00000  Uiso   1.00
C86    C     0.25000   0.00000   0.52132   0.00000  Uiso   1.00
C87    C     0.01095   0.28123   0.95818   0.00000  Uiso   1.00
C88    C     0.25000   0.00000   0.47868   0.00000  Uiso   1.00
C89    C     0.25000   0.00000   0.35522   0.00000  Uiso   1.00
C90    C     0.25000   0.00000   0.64479   0.00000  Uiso   1.00
C91    C     0.00000   0.25000   0.35525   0.00000  Uiso   1.00
C92    C     0.00000   0.25000   0.64475   0.00000  Uiso   1.00
C93    C    -0.00000   0.25000   0.85522   0.00000  Uiso   1.00
C94    C     0.00000   0.25000   0.14479   0.00000  Uiso   1.00
C95    C     0.25000  -0.00000   0.85525   0.00000  Uiso   1.00
C96    C     0.25000   0.00000   0.14475   0.00000  Uiso   1.00
C97    C     0.18010   0.07003   0.24979   0.00000  Uiso   1.00
C98    C     0.28134   0.48909   0.04181   0.00000  Uiso   1.00
C99    C     0.31991   0.42997   0.75019   0.00000  Uiso   1.00
C100   C     0.43009   0.17997   0.25020   0.00000  Uiso   1.00
C101   C     0.06990   0.32003   0.74980   0.00000  Uiso   1.00
C102   C     0.31990   0.42997   0.24979   0.00000  Uiso   1.00
C103   C     0.18009   0.07003   0.75019   0.00000  Uiso   1.00
C104   C     0.06991   0.32003   0.25020   0.00000  Uiso   1.00
C105   C     0.43010   0.17997   0.74980   0.00000  Uiso   1.00
C106   C     0.18010   0.42997   0.75021   0.00000  Uiso   1.00
C107   C     0.31991   0.07003   0.24981   0.00000  Uiso   1.00
C108   C     0.43009   0.32003   0.74980   0.00000  Uiso   1.00
C109   C     0.21866   0.48909   0.95819   0.00000  Uiso   1.00
C110   C     0.06990   0.17997   0.25020   0.00000  Uiso   1.00
C111   C     0.31990   0.07003   0.75021   0.00000  Uiso   1.00
C112   C     0.18009   0.42997   0.24981   0.00000  Uiso   1.00
C113   C     0.06991   0.17997   0.74980   0.00000  Uiso   1.00
C114   C     0.43010   0.32003   0.25020   0.00000  Uiso   1.00
C115   C     0.14840   0.37877   0.21743   0.00000  Uiso   1.00
C116   C     0.35182   0.12103   0.78272   0.00000  Uiso   1.00
C117   C     0.12061   0.14793   0.21721   0.00000  Uiso   1.00
C118   C     0.37918   0.35186   0.78265   0.00000  Uiso   1.00
C119   C     0.35160   0.12123   0.21743   0.00000  Uiso   1.00
C120   C     0.48905   0.28123   0.04182   0.00000  Uiso   1.00
C121   C     0.14818   0.37897   0.78272   0.00000  Uiso   1.00
C122   C     0.37939   0.35207   0.21721   0.00000  Uiso   1.00
C123   C     0.12082   0.14814   0.78265   0.00000  Uiso   1.00
C124   C     0.14840   0.12123   0.78257   0.00000  Uiso   1.00
C125   C     0.35182   0.37897   0.21728   0.00000  Uiso   1.00
C126   C     0.12061   0.35207   0.78279   0.00000  Uiso   1.00
C127   C     0.37918   0.14814   0.21735   0.00000  Uiso   1.00
C128   C     0.35160   0.37877   0.78257   0.00000  Uiso   1.00
C129   C     0.14818   0.12103   0.21728   0.00000  Uiso   1.00
C130   C     0.37939   0.14793   0.78279   0.00000  Uiso   1.00
C131   C     0.48905   0.21877   0.95818   0.00000  Uiso   1.00
C132   C     0.12082   0.35186   0.21735   0.00000  Uiso   1.00
C133   C     0.39820   0.12896   0.71730   0.00000  Uiso   1.00
C134   C     0.10162   0.37121   0.28259   0.00000  Uiso   1.00
C135   C     0.37081   0.39813   0.71734   0.00000  Uiso   1.00
C136   C     0.12939   0.10206   0.28278   0.00000  Uiso   1.00
C137   C     0.10180   0.37104   0.71730   0.00000  Uiso   1.00
C138   C     0.39838   0.12879   0.28259   0.00000  Uiso   1.00
C139   C     0.12919   0.10187   0.71734   0.00000  Uiso   1.00
C140   C     0.37061   0.39794   0.28278   0.00000  Uiso   1.00
C141   C     0.39820   0.37105   0.28270   0.00000  Uiso   1.00
C142   C     0.46866   0.26091   0.54181   0.00000  Uiso   1.00
C143   C     0.10162   0.12879   0.71741   0.00000  Uiso   1.00
C144   C     0.37081   0.10187   0.28266   0.00000  Uiso   1.00
C145   C     0.12939   0.39794   0.71722   0.00000  Uiso   1.00
C146   C     0.10180   0.12895   0.28270   0.00000  Uiso   1.00
C147   C     0.39838   0.37121   0.71741   0.00000  Uiso   1.00
C148   C     0.12919   0.39813   0.28266   0.00000  Uiso   1.00
C149   C     0.37061   0.10206   0.71722   0.00000  Uiso   1.00
C150   C     0.09829   0.34787   0.25027   0.00000  Uiso   1.00
C151   C     0.40171   0.15212   0.74974   0.00000  Uiso   1.00
C152   C     0.15171   0.09787   0.24973   0.00000  Uiso   1.00
H153   H     0.19435   0.02008   0.02677   0.00000  Uiso   1.00
H154   H     0.05566   0.27008   0.47323   0.00000  Uiso   1.00
H155   H     0.22985   0.44453   0.52678   0.00000  Uiso   1.00
H156   H     0.22985   0.05547   0.47322   0.00000  Uiso   1.00
H157   H     0.05566   0.22992   0.52677   0.00000  Uiso   1.00
H158   H     0.44434   0.22992   0.47323   0.00000  Uiso   1.00
H159   H     0.27015   0.05547   0.52678   0.00000  Uiso   1.00
H160   H     0.27015   0.44453   0.47322   0.00000  Uiso   1.00
H161   H     0.19412   0.01929   0.09723   0.00000  Uiso   1.00
H162   H     0.30588   0.01929   0.90277   0.00000  Uiso   1.00
H163   H     0.01938   0.19431   0.09724   0.00000  Uiso   1.00
H164   H     0.30565   0.02008   0.97323   0.00000  Uiso   1.00
H165   H     0.01938   0.30569   0.90276   0.00000  Uiso   1.00
H166   H     0.30588   0.48071   0.09723   0.00000  Uiso   1.00
H167   H     0.19412   0.48071   0.90277   0.00000  Uiso   1.00
H168   H     0.48062   0.30569   0.09724   0.00000  Uiso   1.00
H169   H     0.48062   0.19431   0.90276   0.00000  Uiso   1.00
H170   H     0.44412   0.26929   0.59723   0.00000  Uiso   1.00
H171   H     0.05588   0.26929   0.40277   0.00000  Uiso   1.00
H172   H     0.23062   0.44431   0.59724   0.00000  Uiso   1.00
H173   H     0.23062   0.05569   0.40276   0.00000  Uiso   1.00
H174   H     0.05588   0.23071   0.59723   0.00000  Uiso   1.00
H175   H     0.02015   0.19453   0.02678   0.00000  Uiso   1.00
H176   H     0.44412   0.23071   0.40277   0.00000  Uiso   1.00
H177   H     0.26938   0.05569   0.59724   0.00000  Uiso   1.00
H178   H     0.26938   0.44431   0.40276   0.00000  Uiso   1.00
H179   H     0.18619   0.40739   0.17611   0.00000  Uiso   1.00
H180   H     0.31434   0.09215   0.82419   0.00000  Uiso   1.00
H181   H     0.10535   0.19951   0.18619   0.00000  Uiso   1.00
H182   H     0.39430   0.30011   0.81343   0.00000  Uiso   1.00
H183   H     0.31381   0.09261   0.17611   0.00000  Uiso   1.00
H184   H     0.18566   0.40785   0.82419   0.00000  Uiso   1.00
H185   H     0.39465   0.30049   0.18619   0.00000  Uiso   1.00
H186   H     0.02015   0.30547   0.97322   0.00000  Uiso   1.00
H187   H     0.10570   0.19989   0.81343   0.00000  Uiso   1.00
H188   H     0.18619   0.09261   0.82389   0.00000  Uiso   1.00
H189   H     0.31434   0.40785   0.17581   0.00000  Uiso   1.00
H190   H     0.10535   0.30048   0.81381   0.00000  Uiso   1.00
H191   H     0.39430   0.19989   0.18657   0.00000  Uiso   1.00
H192   H     0.31381   0.40739   0.82389   0.00000  Uiso   1.00
H193   H     0.18566   0.09215   0.17581   0.00000  Uiso   1.00
H194   H     0.39465   0.19951   0.81381   0.00000  Uiso   1.00
H195   H     0.10570   0.30011   0.18657   0.00000  Uiso   1.00
H196   H     0.43576   0.15777   0.67589   0.00000  Uiso   1.00
H197   H     0.30565   0.47992   0.02677   0.00000  Uiso   1.00
H198   H     0.06391   0.34253   0.32396   0.00000  Uiso   1.00
H199   H     0.35571   0.44989   0.68657   0.00000  Uiso   1.00
H200   H     0.14467   0.05049   0.31380   0.00000  Uiso   1.00
H201   H     0.06424   0.34223   0.67589   0.00000  Uiso   1.00
H202   H     0.43609   0.15747   0.32396   0.00000  Uiso   1.00
H203   H     0.14429   0.05011   0.68657   0.00000  Uiso   1.00
H204   H     0.35533   0.44951   0.31380   0.00000  Uiso   1.00
H205   H     0.43576   0.34223   0.32411   0.00000  Uiso   1.00
H206   H     0.06391   0.15747   0.67604   0.00000  Uiso   1.00
H207   H     0.35571   0.05011   0.31343   0.00000  Uiso   1.00
H208   H     0.19435   0.47992   0.97323   0.00000  Uiso   1.00
H209   H     0.14467   0.44951   0.68620   0.00000  Uiso   1.00
H210   H     0.06424   0.15777   0.32411   0.00000  Uiso   1.00
H211   H     0.43609   0.34253   0.67604   0.00000  Uiso   1.00
H212   H     0.14429   0.44989   0.31343   0.00000  Uiso   1.00
H213   H     0.35533   0.05049   0.68620   0.00000  Uiso   1.00
H214   H     0.47984   0.30547   0.02678   0.00000  Uiso   1.00
H215   H     0.47985   0.19453   0.97322   0.00000  Uiso   1.00
H216   H     0.44434   0.27008   0.52677   0.00000  Uiso   1.00
O217   O     0.25000   0.00000   0.25000   0.00000  Uiso   1.00
O218   O     0.25000   0.46964   0.66317   0.00000  Uiso   1.00
O219   O     0.46964   0.25000   0.33683   0.00000  Uiso   1.00
O220   O     0.03036   0.25000   0.66317   0.00000  Uiso   1.00
O221   O     0.00000   0.21964   0.83683   0.00000  Uiso   1.00
O222   O    -0.00000   0.28036   0.16317   0.00000  Uiso   1.00
O223   O     0.28036   0.00000   0.83683   0.00000  Uiso   1.00
O224   O     0.21964   0.00000   0.16317   0.00000  Uiso   1.00
O225   O    -0.00000   0.28036   0.83683   0.00000  Uiso   1.00
O226   O     0.00000   0.21964   0.16317   0.00000  Uiso   1.00
O227   O     0.21964   0.00000   0.83683   0.00000  Uiso   1.00
O228   O     0.25000   0.00000   0.75000   0.00000  Uiso   1.00
O229   O     0.28036   0.00000   0.16317   0.00000  Uiso   1.00
O230   O     0.20725   0.07307   0.27282   0.00000  Uiso   1.00
O231   O     0.29274   0.42693   0.72718   0.00000  Uiso   1.00
O232   O     0.42693   0.20726   0.27282   0.00000  Uiso   1.00
O233   O     0.07307   0.29274   0.72718   0.00000  Uiso   1.00
O234   O     0.29274   0.42693   0.27282   0.00000  Uiso   1.00
O235   O     0.20725   0.07307   0.72718   0.00000  Uiso   1.00
O236   O     0.07307   0.29274   0.27282   0.00000  Uiso   1.00
O237   O     0.42693   0.20726   0.72718   0.00000  Uiso   1.00
O238   O     0.20725   0.42693   0.72718   0.00000  Uiso   1.00
O239   O     0.00000   0.25000   0.25000   0.00000  Uiso   1.00
O240   O     0.29274   0.07307   0.27282   0.00000  Uiso   1.00
O241   O     0.42693   0.29275   0.72718   0.00000  Uiso   1.00
O242   O     0.07307   0.20725   0.27282   0.00000  Uiso   1.00
O243   O     0.29274   0.07307   0.72718   0.00000  Uiso   1.00
O244   O     0.20725   0.42693   0.27282   0.00000  Uiso   1.00
O245   O     0.07307   0.20725   0.72718   0.00000  Uiso   1.00
O246   O     0.42693   0.29275   0.27282   0.00000  Uiso   1.00
O247   O     0.45725   0.32307   0.77282   0.00000  Uiso   1.00
O248   O     0.04274   0.17693   0.22718   0.00000  Uiso   1.00
O249   O     0.17693   0.45725   0.77282   0.00000  Uiso   1.00
O250   O    -0.00000   0.25000   0.75000   0.00000  Uiso   1.00
O251   O     0.32307   0.04275   0.22718   0.00000  Uiso   1.00
O252   O     0.04274   0.17693   0.77282   0.00000  Uiso   1.00
O253   O     0.45725   0.32307   0.22718   0.00000  Uiso   1.00
O254   O     0.32307   0.04275   0.77282   0.00000  Uiso   1.00
O255   O     0.17693   0.45725   0.22718   0.00000  Uiso   1.00
O256   O     0.45725   0.17693   0.22718   0.00000  Uiso   1.00
O257   O     0.04274   0.32307   0.77282   0.00000  Uiso   1.00
O258   O     0.17693   0.04275   0.22718   0.00000  Uiso   1.00
O259   O     0.32307   0.45725   0.77282   0.00000  Uiso   1.00
O260   O     0.04274   0.32307   0.22718   0.00000  Uiso   1.00
O261   O     0.25000   0.46964   0.33683   0.00000  Uiso   1.00
O262   O     0.45725   0.17693   0.77282   0.00000  Uiso   1.00
O263   O     0.32307   0.45725   0.22718   0.00000  Uiso   1.00
O264   O     0.17693   0.04275   0.77282   0.00000  Uiso   1.00
O265   O     0.18822   0.35364   0.17050   0.00000  Uiso   1.00
O266   O     0.31228   0.14588   0.83008   0.00000  Uiso   1.00
O267   O     0.11639   0.15903   0.14992   0.00000  Uiso   1.00
O268   O     0.38295   0.34036   0.84989   0.00000  Uiso   1.00
O269   O     0.31178   0.14636   0.17050   0.00000  Uiso   1.00
O270   O     0.18772   0.35412   0.83008   0.00000  Uiso   1.00
O271   O     0.38361   0.34097   0.14992   0.00000  Uiso   1.00
O272   O     0.25000   0.03036   0.66317   0.00000  Uiso   1.00
O273   O     0.11704   0.15964   0.84989   0.00000  Uiso   1.00
O274   O     0.18822   0.14636   0.82950   0.00000  Uiso   1.00
O275   O     0.31227   0.35412   0.16992   0.00000  Uiso   1.00
O276   O     0.11639   0.34097   0.85008   0.00000  Uiso   1.00
O277   O     0.38295   0.15964   0.15011   0.00000  Uiso   1.00
O278   O     0.31178   0.35364   0.82950   0.00000  Uiso   1.00
O279   O     0.18772   0.14588   0.16992   0.00000  Uiso   1.00
O280   O     0.38361   0.15903   0.85008   0.00000  Uiso   1.00
O281   O     0.11704   0.34036   0.15011   0.00000  Uiso   1.00
O282   O     0.43774   0.10405   0.66998   0.00000  Uiso   1.00
O283   O     0.03036   0.25000   0.33683   0.00000  Uiso   1.00
O284   O     0.06180   0.39629   0.32955   0.00000  Uiso   1.00
O285   O     0.36703   0.40964   0.65010   0.00000  Uiso   1.00
O286   O     0.13360   0.09098   0.35007   0.00000  Uiso   1.00
O287   O     0.06226   0.39595   0.66998   0.00000  Uiso   1.00
O288   O     0.43820   0.10371   0.32955   0.00000  Uiso   1.00
O289   O     0.13297   0.09036   0.65010   0.00000  Uiso   1.00
O290   O     0.36640   0.40902   0.35007   0.00000  Uiso   1.00
O291   O     0.43774   0.39595   0.33002   0.00000  Uiso   1.00
O292   O     0.06180   0.10371   0.67045   0.00000  Uiso   1.00
O293   O     0.36703   0.09036   0.34990   0.00000  Uiso   1.00
O294   O     0.46964   0.25000   0.66317   0.00000  Uiso   1.00
O295   O     0.13360   0.40902   0.64993   0.00000  Uiso   1.00
O296   O     0.06226   0.10405   0.33003   0.00000  Uiso   1.00
O297   O     0.43820   0.39629   0.67045   0.00000  Uiso   1.00
O298   O     0.13297   0.40964   0.34990   0.00000  Uiso   1.00
O299   O     0.36640   0.09098   0.64993   0.00000  Uiso   1.00
O300   O     0.25000   0.03036   0.33683   0.00000  Uiso   1.00
Zn301  Zn    0.20660   0.00000   0.21760   0.00000  Uiso   1.00
Zn302  Zn    0.04340   0.25000   0.28240   0.00000  Uiso   1.00
Zn303  Zn    0.25000   0.45660   0.71760   0.00000  Uiso   1.00
Zn304  Zn    0.25000   0.04340   0.28240   0.00000  Uiso   1.00
Zn305  Zn    0.04340   0.25000   0.71760   0.00000  Uiso   1.00
Zn306  Zn    0.45660   0.25000   0.28240   0.00000  Uiso   1.00
Zn307  Zn    0.25000   0.04340   0.71760   0.00000  Uiso   1.00
Zn308  Zn    0.25000   0.45660   0.28240   0.00000  Uiso   1.00
Zn309  Zn    0.29340   0.00000   0.78240   0.00000  Uiso   1.00
Zn310  Zn    0.00000   0.20660   0.21760   0.00000  Uiso   1.00
Zn311  Zn    0.00000   0.29340   0.78240   0.00000  Uiso   1.00
Zn312  Zn    0.29340   0.00000   0.21760   0.00000  Uiso   1.00
Zn313  Zn    0.20660   0.00000   0.78240   0.00000  Uiso   1.00
Zn314  Zn   -0.00000   0.29340   0.21760   0.00000  Uiso   1.00
Zn315  Zn   -0.00000   0.20660   0.78240   0.00000  Uiso   1.00
Zn316  Zn    0.45660   0.25000   0.71760   0.00000  Uiso   1.00
C317   C     0.71866   0.01091   0.04181   0.00000  Uiso   1.00
C318   C     0.53134   0.26091   0.45819   0.00000  Uiso   1.00
C319   C     0.84829   0.40213   0.75026   0.00000  Uiso   1.00
C320   C     0.90171   0.15213   0.25027   0.00000  Uiso   1.00
C321   C     0.59829   0.34788   0.74974   0.00000  Uiso   1.00
C322   C     0.84829   0.40213   0.24973   0.00000  Uiso   1.00
C323   C     0.65171   0.09787   0.75026   0.00000  Uiso   1.00
C324   C     0.59829   0.15213   0.74973   0.00000  Uiso   1.00
C325   C     0.90171   0.34788   0.25026   0.00000  Uiso   1.00
C326   C     0.65171   0.40213   0.75027   0.00000  Uiso   1.00
C327   C     0.84829   0.09787   0.24974   0.00000  Uiso   1.00
C328   C     0.90171   0.34787   0.74973   0.00000  Uiso   1.00
C329   C     0.73905   0.46877   0.54182   0.00000  Uiso   1.00
C330   C     0.59829   0.15212   0.25026   0.00000  Uiso   1.00
C331   C     0.84829   0.09787   0.75027   0.00000  Uiso   1.00
C332   C     0.65171   0.40213   0.24974   0.00000  Uiso   1.00
C333   C     0.75000  -0.00000   0.10242   0.00000  Uiso   1.00
C334   C     0.75000   0.00000   0.89758   0.00000  Uiso   1.00
C335   C     0.50000   0.25000   0.10244   0.00000  Uiso   1.00
C336   C     0.50000   0.25000   0.89756   0.00000  Uiso   1.00
C337   C     0.50000   0.25000   0.60242   0.00000  Uiso   1.00
C338   C     0.50000   0.25000   0.39758   0.00000  Uiso   1.00
C339   C     0.75000   0.00000   0.60244   0.00000  Uiso   1.00
C340   C     0.73905   0.03123   0.45818   0.00000  Uiso   1.00
C341   C     0.75000   0.00000   0.39756   0.00000  Uiso   1.00
C342   C     0.67577   0.38114   0.18548   0.00000  Uiso   1.00
C343   C     0.82465   0.11846   0.81486   0.00000  Uiso   1.00
C344   C     0.61395   0.17137   0.18262   0.00000  Uiso   1.00
C345   C     0.88563   0.32822   0.81712   0.00000  Uiso   1.00
C346   C     0.82422   0.11886   0.18548   0.00000  Uiso   1.00
C347   C     0.67535   0.38154   0.81486   0.00000  Uiso   1.00
C348   C     0.88605   0.32863   0.18262   0.00000  Uiso   1.00
C349   C     0.61437   0.17177   0.81712   0.00000  Uiso   1.00
C350   C     0.67577   0.11886   0.81452   0.00000  Uiso   1.00
C351   C     0.53134   0.23909   0.54181   0.00000  Uiso   1.00
C352   C     0.82465   0.38154   0.18514   0.00000  Uiso   1.00
C353   C     0.61395   0.32863   0.81738   0.00000  Uiso   1.00
C354   C     0.88563   0.17178   0.18288   0.00000  Uiso   1.00
C355   C     0.82422   0.38114   0.81452   0.00000  Uiso   1.00
C356   C     0.67535   0.11846   0.18514   0.00000  Uiso   1.00
C357   C     0.88605   0.17137   0.81738   0.00000  Uiso   1.00
C358   C     0.61437   0.32822   0.18288   0.00000  Uiso   1.00
C359   C     0.92539   0.13148   0.68519   0.00000  Uiso   1.00
C360   C     0.57427   0.36880   0.31457   0.00000  Uiso   1.00
C361   C     0.86437   0.42178   0.68287   0.00000  Uiso   1.00
C362   C     0.96866   0.23909   0.45819   0.00000  Uiso   1.00
C363   C     0.63605   0.07863   0.31737   0.00000  Uiso   1.00
C364   C     0.57461   0.36852   0.68519   0.00000  Uiso   1.00
C365   C     0.92573   0.13120   0.31457   0.00000  Uiso   1.00
C366   C     0.63563   0.07823   0.68287   0.00000  Uiso   1.00
C367   C     0.86395   0.42137   0.31737   0.00000  Uiso   1.00
C368   C     0.92539   0.36852   0.31481   0.00000  Uiso   1.00
C369   C     0.57427   0.13120   0.68543   0.00000  Uiso   1.00
C370   C     0.86437   0.07823   0.31713   0.00000  Uiso   1.00
C371   C     0.63605   0.42137   0.68263   0.00000  Uiso   1.00
C372   C     0.57461   0.13148   0.31481   0.00000  Uiso   1.00
C373   C     0.76095   0.03123   0.54182   0.00000  Uiso   1.00
C374   C     0.92573   0.36880   0.68543   0.00000  Uiso   1.00
C375   C     0.63563   0.42177   0.31713   0.00000  Uiso   1.00
C376   C     0.86395   0.07863   0.68263   0.00000  Uiso   1.00
C377   C     0.76095   0.46877   0.45818   0.00000  Uiso   1.00
C378   C     0.71858   0.01066   0.08206   0.00000  Uiso   1.00
C379   C     0.78142   0.01066   0.91794   0.00000  Uiso   1.00
C380   C     0.51070   0.21869   0.08207   0.00000  Uiso   1.00
C381   C     0.78134   0.01091   0.95819   0.00000  Uiso   1.00
C382   C     0.51070   0.28131   0.91793   0.00000  Uiso   1.00
C383   C     0.78142   0.48934   0.08206   0.00000  Uiso   1.00
C384   C     0.71858   0.48934   0.91794   0.00000  Uiso   1.00
C385   C     0.98930   0.28131   0.08207   0.00000  Uiso   1.00
C386   C     0.98930   0.21869   0.91793   0.00000  Uiso   1.00
C387   C     0.96858   0.26066   0.58206   0.00000  Uiso   1.00
C388   C     0.53142   0.26066   0.41794   0.00000  Uiso   1.00
C389   C     0.73930   0.46869   0.58207   0.00000  Uiso   1.00
C390   C     0.73930   0.03131   0.41793   0.00000  Uiso   1.00
C391   C     0.53142   0.23934   0.58206   0.00000  Uiso   1.00
C392   C     0.51095   0.21877   0.04182   0.00000  Uiso   1.00
C393   C     0.96858   0.23934   0.41794   0.00000  Uiso   1.00
C394   C     0.76070   0.03131   0.58207   0.00000  Uiso   1.00
C395   C     0.76070   0.46869   0.41793   0.00000  Uiso   1.00
C396   C     0.75000   0.00000   0.02132   0.00000  Uiso   1.00
C397   C     0.75000   0.00000   0.97868   0.00000  Uiso   1.00
C398   C     0.50000   0.25000   0.02132   0.00000  Uiso   1.00
C399   C     0.50000   0.25000   0.97868   0.00000  Uiso   1.00
C400   C     0.50000   0.25000   0.52132   0.00000  Uiso   1.00
C401   C     0.50000   0.25000   0.47868   0.00000  Uiso   1.00
C402   C     0.75000   0.00000   0.52132   0.00000  Uiso   1.00
C403   C     0.51095   0.28123   0.95818   0.00000  Uiso   1.00
C404   C     0.75000   0.00000   0.47868   0.00000  Uiso   1.00
C405   C     0.75000   0.00000   0.35522   0.00000  Uiso   1.00
C406   C     0.75000   0.00000   0.64479   0.00000  Uiso   1.00
C407   C     0.50000   0.25000   0.35525   0.00000  Uiso   1.00
C408   C     0.50000   0.25000   0.64475   0.00000  Uiso   1.00
C409   C     0.50000   0.25000   0.85522   0.00000  Uiso   1.00
C410   C     0.50000   0.25000   0.14479   0.00000  Uiso   1.00
C411   C     0.75000  -0.00000   0.85525   0.00000  Uiso   1.00
C412   C     0.75000   0.00000   0.14475   0.00000  Uiso   1.00
C413   C     0.68010   0.07003   0.24979   0.00000  Uiso   1.00
C414   C     0.78134   0.48909   0.04181   0.00000  Uiso   1.00
C415   C     0.81991   0.42997   0.75019   0.00000  Uiso   1.00
C416   C     0.93009   0.17997   0.25020   0.00000  Uiso   1.00
C417   C     0.56990   0.32003   0.74980   0.00000  Uiso   1.00
C418   C     0.81990   0.42997   0.24979   0.00000  Uiso   1.00
C419   C     0.68009   0.07003   0.75019   0.00000  Uiso   1.00
C420   C     0.56991   0.32003   0.25020   0.00000  Uiso   1.00
C421   C     0.93010   0.17997   0.74980   0.00000  Uiso   1.00
C422   C     0.68010   0.42997   0.75021   0.00000  Uiso   1.00
C423   C     0.81991   0.07003   0.24981   0.00000  Uiso   1.00
C424   C     0.93009   0.32003   0.74980   0.00000  Uiso   1.00
C425   C     0.71866   0.48909   0.95819   0.00000  Uiso   1.00
C426   C     0.56990   0.17997   0.25020   0.00000  Uiso   1.00
C427   C     0.81990   0.07003   0.75021   0.00000  Uiso   1.00
C428   C     0.68009   0.42997   0.24981   0.00000  Uiso   1.00
C429   C     0.56991   0.17997   0.74980   0.00000  Uiso   1.00
C430   C     0.93010   0.32003   0.25020   0.00000  Uiso   1.00
C431   C     0.64840   0.37877   0.21743   0.00000  Uiso   1.00
C432   C     0.85182   0.12103   0.78272   0.00000  Uiso   1.00
C433   C     0.62061   0.14793   0.21721   0.00000  Uiso   1.00
C434   C     0.87918   0.35186   0.78265   0.00000  Uiso   1.00
C435   C     0.85160   0.12123   0.21743   0.00000  Uiso   1.00
C436   C     0.98905   0.28123   0.04182   0.00000  Uiso   1.00
C437   C     0.64818   0.37897   0.78272   0.00000  Uiso   1.00
C438   C     0.87939   0.35207   0.21721   0.00000  Uiso   1.00
C439   C     0.62082   0.14814   0.78265   0.00000  Uiso   1.00
C440   C     0.64840   0.12123   0.78257   0.00000  Uiso   1.00
C441   C     0.85182   0.37897   0.21728   0.00000  Uiso   1.00
C442   C     0.62061   0.35207   0.78279   0.00000  Uiso   1.00
C443   C     0.87918   0.14814   0.21735   0.00000  Uiso   1.00
C444   C     0.85160   0.37877   0.78257   0.00000  Uiso   1.00
C445   C     0.64818   0.12103   0.21728   0.00000  Uiso   1.00
C446   C     0.87939   0.14793   0.78279   0.00000  Uiso   1.00
C447   C     0.98905   0.21877   0.95818   0.00000  Uiso   1.00
C448   C     0.62082   0.35186   0.21735   0.00000  Uiso   1.00
C449   C     0.89820   0.12896   0.71730   0.00000  Uiso   1.00
C450   C     0.60162   0.37121   0.28259   0.00000  Uiso   1.00
C451   C     0.87081   0.39813   0.71734   0.00000  Uiso   1.00
C452   C     0.62939   0.10206   0.28278   0.00000  Uiso   1.00
C453   C     0.60180   0.37104   0.71730   0.00000  Uiso   1.00
C454   C     0.89838   0.12879   0.28259   0.00000  Uiso   1.00
C455   C     0.62919   0.10187   0.71734   0.00000  Uiso   1.00
C456   C     0.87061   0.39794   0.28278   0.00000  Uiso   1.00
C457   C     0.89820   0.37105   0.28270   0.00000  Uiso   1.00
C458   C     0.96866   0.26091   0.54181   0.00000  Uiso   1.00
C459   C     0.60162   0.12879   0.71741   0.00000  Uiso   1.00
C460   C     0.87081   0.10187   0.28266   0.00000  Uiso   1.00
C461   C     0.62939   0.39794   0.71722   0.00000  Uiso   1.00
C462   C     0.60180   0.12895   0.28270   0.00000  Uiso   1.00
C463   C     0.89838   0.37121   0.71741   0.00000  Uiso   1.00
C464   C     0.62919   0.39813   0.28266   0.00000  Uiso   1.00
C465   C     0.87061   0.10206   0.71722   0.00000  Uiso   1.00
C466   C     0.59829   0.34787   0.25027   0.00000  Uiso   1.00
C467   C     0.90171   0.15212   0.74974   0.00000  Uiso   1.00
C468   C     0.65171   0.09787   0.24973   0.00000  Uiso   1.00
H469   H     0.69435   0.02008   0.02677   0.00000  Uiso   1.00
H470   H     0.55566   0.27008   0.47323   0.00000  Uiso   1.00
H471   H     0.72985   0.44453   0.52678   0.00000  Uiso   1.00
H472   H     0.72985   0.05547   0.47322   0.00000  Uiso   1.00
H473   H     0.55566   0.22992   0.52677   0.00000  Uiso   1.00
H474   H     0.94434   0.22992   0.47323   0.00000  Uiso   1.00
H475   H     0.77015   0.05547   0.52678   0.00000  Uiso   1.00
H476   H     0.77015   0.44453   0.47322   0.00000  Uiso   1.00
H477   H     0.69412   0.01929   0.09723   0.00000  Uiso   1.00
H478   H     0.80588   0.01929   0.90277   0.00000  Uiso   1.00
H479   H     0.51938   0.19431   0.09724   0.00000  Uiso   1.00
H480   H     0.80565   0.02008   0.97323   0.00000  Uiso   1.00
H481   H     0.51938   0.30569   0.90276   0.00000  Uiso   1.00
H482   H     0.80588   0.48071   0.09723   0.00000  Uiso   1.00
H483   H     0.69412   0.48071   0.90277   0.00000  Uiso   1.00
H484   H     0.98062   0.30569   0.09724   0.00000  Uiso   1.00
H485   H     0.98062   0.19431   0.90276   0.00000  Uiso   1.00
H486   H     0.94412   0.26929   0.59723   0.00000  Uiso   1.00
H487   H     0.55588   0.26929   0.40277   0.00000  Uiso   1.00
H488   H     0.73062   0.44431   0.59724   0.00000  Uiso   1.00
H489   H     0.73062   0.05569   0.40276   0.00000  Uiso   1.00
H490   H     0.55588   0.23071   0.59723   0.00000  Uiso   1.00
H491   H     0.52015   0.19453   0.02678   0.00000  Uiso   1.00
H492   H     0.94412   0.23071   0.40277   0.00000  Uiso   1.00
H493   H     0.76938   0.05569   0.59724   0.00000  Uiso   1.00
H494   H     0.76938   0.44431   0.40276   0.00000  Uiso   1.00
H495   H     0.68619   0.40739   0.17611   0.00000  Uiso   1.00
H496   H     0.81434   0.09215   0.82419   0.00000  Uiso   1.00
H497   H     0.60535   0.19951   0.18619   0.00000  Uiso   1.00
H498   H     0.89430   0.30011   0.81343   0.00000  Uiso   1.00
H499   H     0.81381   0.09261   0.17611   0.00000  Uiso   1.00
H500   H     0.68566   0.40785   0.82419   0.00000  Uiso   1.00
H501   H     0.89465   0.30049   0.18619   0.00000  Uiso   1.00
H502   H     0.52015   0.30547   0.97322   0.00000  Uiso   1.00
H503   H     0.60570   0.19989   0.81343   0.00000  Uiso   1.00
H504   H     0.68619   0.09261   0.82389   0.00000  Uiso   1.00
H505   H     0.81434   0.40785   0.17581   0.00000  Uiso   1.00
H506   H     0.60535   0.30048   0.81381   0.00000  Uiso   1.00
H507   H     0.89430   0.19989   0.18657   0.00000  Uiso   1.00
H508   H     0.81381   0.40739   0.82389   0.00000  Uiso   1.00
H509   H     0.68566   0.09215   0.17581   0.00000  Uiso   1.00
H510   H     0.89465   0.19951   0.81381   0.00000  Uiso   1.00
H511   H     0.60570   0.30011   0.18657   0.00000  Uiso   1.00
H512   H     0.93576   0.15777   0.67589   0.00000  Uiso   1.00
H513   H     0.80565   0.47992   0.02677   0.00000  Uiso   1.00
H514   H     0.56391   0.34253   0.32396   0.00000  Uiso   1.00
H515   H     0.85571   0.44989   0.68657   0.00000  Uiso   1.00
H516   H     0.64467   0.05049   0.31380   0.00000  Uiso   1.00
H517   H     0.56424   0.34223   0.67589   0.00000  Uiso   1.00
H518   H     0.93609   0.15747   0.32396   0.00000  Uiso   1.00
H519   H     0.64429   0.05011   0.68657   0.00000  Uiso   1.00
H520   H     0.85533   0.44951   0.31380   0.00000  Uiso   1.00
H521   H     0.93576   0.34223   0.32411   0.00000  Uiso   1.00
H522   H     0.56391   0.15747   0.67604   0.00000  Uiso   1.00
H523   H     0.85571   0.05011   0.31343   0.00000  Uiso   1.00
H524   H     0.69435   0.47992   0.97323   0.00000  Uiso   1.00
H525   H     0.64467   0.44951   0.68620   0.00000  Uiso   1.00
H526   H     0.56424   0.15777   0.32411   0.00000  Uiso   1.00
H527   H     0.93609   0.34253   0.67604   0.00000  Uiso   1.00
H528   H     0.64429   0.44989   0.31343   0.00000  Uiso   1.00
H529   H     0.85533   0.05049   0.68620   0.00000  Uiso   1.00
H530   H     0.97984   0.30547   0.02678   0.00000  Uiso   1.00
H531   H     0.97985   0.19453   0.97322   0.00000  Uiso   1.00
H532   H     0.94434   0.27008   0.52677   0.00000  Uiso   1.00
O533   O     0.75000   0.00000   0.25000   0.00000  Uiso   1.00
O534   O     0.75000   0.46964   0.66317   0.00000  Uiso   1.00
O535   O     0.96964   0.25000   0.33683   0.00000  Uiso   1.00
O536   O     0.53036   0.25000   0.66317   0.00000  Uiso   1.00
O537   O     0.50000   0.21964   0.83683   0.00000  Uiso   1.00
O538   O     0.50000   0.28036   0.16317   0.00000  Uiso   1.00
O539   O     0.78036   0.00000   0.83683   0.00000  Uiso   1.00
O540   O     0.71964   0.00000   0.16317   0.00000  Uiso   1.00
O541   O     0.50000   0.28036   0.83683   0.00000  Uiso   1.00
O542   O     0.50000   0.21964   0.16317   0.00000  Uiso   1.00
O543   O     0.71964   0.00000   0.83683   0.00000  Uiso   1.00
O544   O     0.75000   0.00000   0.75000   0.00000  Uiso   1.00
O545   O     0.78036   0.00000   0.16317   0.00000  Uiso   1.00
O546   O     0.70725   0.07307   0.27282   0.00000  Uiso   1.00
O547   O     0.79274   0.42693   0.72718   0.00000  Uiso   1.00
O548   O     0.92693   0.20726   0.27282   0.00000  Uiso   1.00
O549   O     0.57307   0.29274   0.72718   0.00000  Uiso   1.00
O550   O     0.79274   0.42693   0.27282   0.00000  Uiso   1.00
O551   O     0.70725   0.07307   0.72718   0.00000  Uiso   1.00
O552   O     0.57307   0.29274   0.27282   0.00000  Uiso   1.00
O553   O     0.92693   0.20726   0.72718   0.00000  Uiso   1.00
O554   O     0.70725   0.42693   0.72718   0.00000  Uiso   1.00
O555   O     0.50000   0.25000   0.25000   0.00000  Uiso   1.00
O556   O     0.79274   0.07307   0.27282   0.00000  Uiso   1.00
O557   O     0.92693   0.29275   0.72718   0.00000  Uiso   1.00
O558   O     0.57307   0.20725   0.27282   0.00000  Uiso   1.00
O559   O     0.79274   0.07307   0.72718   0.00000  Uiso   1.00
O560   O     0.70725   0.42693   0.27282   0.00000  Uiso   1.00
O561   O     0.57307   0.20725   0.72718   0.00000  Uiso   1.00
O562   O     0.92693   0.29275   0.27282   0.00000  Uiso   1.00
O563   O     0.95725   0.32307   0.77282   0.00000  Uiso   1.00
O564   O     0.54274   0.17693   0.22718   0.00000  Uiso   1.00
O565   O     0.67693   0.45725   0.77282   0.00000  Uiso   1.00
O566   O     0.50000   0.25000   0.75000   0.00000  Uiso   1.00
O567   O     0.82307   0.04275   0.22718   0.00000  Uiso   1.00
O568   O     0.54274   0.17693   0.77282   0.00000  Uiso   1.00
O569   O     0.95725   0.32307   0.22718   0.00000  Uiso   1.00
O570   O     0.82307   0.04275   0.77282   0.00000  Uiso   1.00
O571   O     0.67693   0.45725   0.22718   0.00000  Uiso   1.00
O572   O     0.95725   0.17693   0.22718   0.00000  Uiso   1.00
O573   O     0.54274   0.32307   0.77282   0.00000  Uiso   1.00
O574   O     0.67693   0.04275   0.22718   0.00000  Uiso   1.00
O575   O     0.82307   0.45725   0.77282   0.00000  Uiso   1.00
O576   O     0.54274   0.32307   0.22718   0.00000  Uiso   1.00
O577   O     0.75000   0.46964   0.33683   0.00000  Uiso   1.00
O578   O     0.95725   0.17693   0.77282   0.00000  Uiso   1.00
O579   O     0.82307   0.45725   0.22718   0.00000  Uiso   1.00
O580   O     0.67693   0.04275   0.77282   0.00000  Uiso   1.00
O581   O     0.68822   0.35364   0.17050   0.00000  Uiso   1.00
O582   O     0.81228   0.14588   0.83008   0.00000  Uiso   1.00
O583   O     0.61639   0.15903   0.14992   0.00000  Uiso   1.00
O584   O     0.88295   0.34036   0.84989   0.00000  Uiso   1.00
O585   O     0.81178   0.14636   0.17050   0.00000  Uiso   1.00
O586   O     0.68772   0.35412   0.83008   0.00000  Uiso   1.00
O587   O     0.88361   0.34097   0.14992   0.00000  Uiso   1.00
O588   O     0.75000   0.03036   0.66317   0.00000  Uiso   1.00
O589   O     0.61704   0.15964   0.84989   0.00000  Uiso   1.00
O590   O     0.68822   0.14636   0.82950   0.00000  Uiso   1.00
O591   O     0.81227   0.35412   0.16992   0.00000  Uiso   1.00
O592   O     0.61639   0.34097   0.85008   0.00000  Uiso   1.00
O593   O     0.88295   0.15964   0.15011   0.00000  Uiso   1.00
O594   O     0.81178   0.35364   0.82950   0.00000  Uiso   1.00
O595   O     0.68772   0.14588   0.16992   0.00000  Uiso   1.00
O596   O     0.88361   0.15903   0.85008   0.00000  Uiso   1.00
O597   O     0.61704   0.34036   0.15011   0.00000  Uiso   1.00
O598   O     0.93774   0.10405   0.66998   0.00000  Uiso   1.00
O599   O     0.53036   0.25000   0.33683   0.00000  Uiso   1.00
O600   O     0.56180   0.39629   0.32955   0.00000  Uiso   1.00
O601   O     0.86703   0.40964   0.65010   0.00000  Uiso   1.00
O602   O     0.63360   0.09098   0.35007   0.00000  Uiso   1.00
O603   O     0.56226   0.39595   0.66998   0.00000  Uiso   1.00
O604   O     0.93820   0.10371   0.32955   0.00000  Uiso   1.00
O605   O     0.63297   0.09036   0.65010   0.00000  Uiso   1.00
O606   O     0.86640   0.40902   0.35007   0.00000  Uiso   1.00
O607   O     0.93774   0.39595   0.33002   0.00000  Uiso   1.00
O608   O     0.56180   0.10371   0.67045   0.00000  Uiso   1.00
O609   O     0.86703   0.09036   0.34990   0.00000  Uiso   1.00
O610   O     0.96964   0.25000   0.66317   0.00000  Uiso   1.00
O611   O     0.63360   0.40902   0.64993   0.00000  Uiso   1.00
O612   O     0.56226   0.10405   0.33003   0.00000  Uiso   1.00
O613   O     0.93820   0.39629   0.67045   0.00000  Uiso   1.00
O614   O     0.63297   0.40964   0.34990   0.00000  Uiso   1.00
O615   O     0.86640   0.09098   0.64993   0.00000  Uiso   1.00
O616   O     0.75000   0.03036   0.33683   0.00000  Uiso   1.00
Zn617  Zn    0.70660   0.00000   0.21760   0.00000  Uiso   1.00
Zn618  Zn    0.54340   0.25000   0.28240   0.00000  Uiso   1.00
Zn619  Zn    0.75000   0.45660   0.71760   0.00000  Uiso   1.00
Zn620  Zn    0.75000   0.04340   0.28240   0.00000  Uiso   1.00
Zn621  Zn    0.54340   0.25000   0.71760   0.00000  Uiso   1.00
Zn622  Zn    0.95660   0.25000   0.28240   0.00000  Uiso   1.00
Zn623  Zn    0.75000   0.04340   0.71760   0.00000  Uiso   1.00
Zn624  Zn    0.75000   0.45660   0.28240   0.00000  Uiso   1.00
Zn625  Zn    0.79340   0.00000   0.78240   0.00000  Uiso   1.00
Zn626  Zn    0.50000   0.20660   0.21760   0.00000  Uiso   1.00
Zn627  Zn    0.50000   0.29340   0.78240   0.00000  Uiso   1.00
Zn628  Zn    0.79340   0.00000   0.21760   0.00000  Uiso   1.00
Zn629  Zn    0.70660   0.00000   0.78240   0.00000  Uiso   1.00
Zn630  Zn    0.50000   0.29340   0.21760   0.00000  Uiso   1.00
Zn631  Zn    0.50000   0.20660   0.78240   0.00000  Uiso   1.00
Zn632  Zn    0.95660   0.25000   0.71760   0.00000  Uiso   1.00
C633   C     0.21866   0.51091   0.04181   0.00000  Uiso   1.00
C634   C     0.03134   0.76091   0.45819   0.00000  Uiso   1.00
C635   C     0.34829   0.90213   0.75026   0.00000  Uiso   1.00
C636   C     0.40171   0.65213   0.25027   0.00000  Uiso   1.00
C637   C     0.09829   0.84788   0.74974   0.00000  Uiso   1.00
C638   C     0.34829   0.90213   0.24973   0.00000  Uiso   1.00
C639   C     0.15171   0.59787   0.75026   0.00000  Uiso   1.00
C640   C     0.09829   0.65213   0.74973   0.00000  Uiso   1.00
C641   C     0.40171   0.84788   0.25026   0.00000  Uiso   1.00
C642   C     0.15171   0.90213   0.75027   0.00000  Uiso   1.00
C643   C     0.34829   0.59787   0.24974   0.00000  Uiso   1.00
C644   C     0.40171   0.84787   0.74973   0.00000  Uiso   1.00
C645   C     0.23905   0.96877   0.54182   0.00000  Uiso   1.00
C646   C     0.09829   0.65212   0.25026   0.00000  Uiso   1.00
C647   C     0.34829   0.59787   0.75027   0.00000  Uiso   1.00
C648   C     0.15171   0.90213   0.24974   0.00000  Uiso   1.00
C649   C     0.25000   0.50000   0.10242   0.00000  Uiso   1.00
C650   C     0.25000   0.50000   0.89758   0.00000  Uiso   1.00
C651   C    -0.00000   0.75000   0.10244   0.00000  Uiso   1.00
C652   C     0.00000   0.75000   0.89756   0.00000  Uiso   1.00
C653   C     0.00000   0.75000   0.60242   0.00000  Uiso   1.00
C654   C     0.00000   0.75000   0.39758   0.00000  Uiso   1.00
C655   C     0.25000   0.50000   0.60244   0.00000  Uiso   1.00
C656   C     0.23905   0.53123   0.45818   0.00000  Uiso   1.00
C657   C     0.25000   0.50000   0.39756   0.00000  Uiso   1.00
C658   C     0.17577   0.88114   0.18548   0.00000  Uiso   1.00
C659   C     0.32465   0.61846   0.81486   0.00000  Uiso   1.00
C660   C     0.11395   0.67137   0.18262   0.00000  Uiso   1.00
C661   C     0.38563   0.82822   0.81712   0.00000  Uiso   1.00
C662   C     0.32422   0.61886   0.18548   0.00000  Uiso   1.00
C663   C     0.17535   0.88154   0.81486   0.00000  Uiso   1.00
C664   C     0.38605   0.82863   0.18262   0.00000  Uiso   1.00
C665   C     0.11437   0.67177   0.81712   0.00000  Uiso   1.00
C666   C     0.17577   0.61886   0.81452   0.00000  Uiso   1.00
C667   C     0.03134   0.73909   0.54181   0.00000  Uiso   1.00
C668   C     0.32465   0.88154   0.18514   0.00000  Uiso   1.00
C669   C     0.11395   0.82863   0.81738   0.00000  Uiso   1.00
C670   C     0.38563   0.67178   0.18288   0.00000  Uiso   1.00
C671   C     0.32422   0.88114   0.81452   0.00000  Uiso   1.00
C672   C     0.17535   0.61846   0.18514   0.00000  Uiso   1.00
C673   C     0.38605   0.67137   0.81738   0.00000  Uiso   1.00
C674   C     0.11437   0.82822   0.18288   0.00000  Uiso   1.00
C675   C     0.42539   0.63148   0.68519   0.00000  Uiso   1.00
C676   C     0.07427   0.86880   0.31457   0.00000  Uiso   1.00
C677   C     0.36437   0.92178   0.68287   0.00000  Uiso   1.00
C678   C     0.46866   0.73909   0.45819   0.00000  Uiso   1.00
C679   C     0.13605   0.57863   0.31737   0.00000  Uiso   1.00
C680   C     0.07461   0.86852   0.68519   0.00000  Uiso   1.00
C681   C     0.42573   0.63120   0.31457   0.00000  Uiso   1.00
C682   C     0.13563   0.57823   0.68287   0.00000  Uiso   1.00
C683   C     0.36395   0.92137   0.31737   0.00000  Uiso   1.00
C684   C     0.42539   0.86852   0.31481   0.00000  Uiso   1.00
C685   C     0.07427   0.63120   0.68543   0.00000  Uiso   1.00
C686   C     0.36437   0.57823   0.31713   0.00000  Uiso   1.00
C687   C     0.13605   0.92137   0.68263   0.00000  Uiso   1.00
C688   C     0.07461   0.63148   0.31481   0.00000  Uiso   1.00
C689   C     0.26095   0.53123   0.54182   0.00000  Uiso   1.00
C690   C     0.42573   0.86880   0.68543   0.00000  Uiso   1.00
C691   C     0.13563   0.92177   0.31713   0.00000  Uiso   1.00
C692   C     0.36395   0.57863   0.68263   0.00000  Uiso   1.00
C693   C     0.26095   0.96877   0.45818   0.00000  Uiso   1.00
C694   C     0.21858   0.51066   0.08206   0.00000  Uiso   1.00
C695   C     0.28142   0.51066   0.91794   0.00000  Uiso   1.00
C696   C     0.01070   0.71869   0.08207   0.00000  Uiso   1.00
C697   C     0.28134   0.51091   0.95819   0.00000  Uiso   1.00
C698   C     0.01070   0.78131   0.91793   0.00000  Uiso   1.00
C699   C     0.28142   0.98934   0.08206   0.00000  Uiso   1.00
C700   C     0.21858   0.98934   0.91794   0.00000  Uiso   1.00
C701   C     0.48930   0.78131   0.08207   0.00000  Uiso   1.00
C702   C     0.48930   0.71869   0.91793   0.00000  Uiso   1.00
C703   C     0.46858   0.76066   0.58206   0.00000  Uiso   1.00
C704   C     0.03142   0.76066   0.41794   0.00000  Uiso   1.00
C705   C     0.23930   0.96869   0.58207   0.00000  Uiso   1.00
C706   C     0.23930   0.53131   0.41793   0.00000  Uiso   1.00
C707   C     0.03142   0.73934   0.58206   0.00000  Uiso   1.00
C708   C     0.01095   0.71877   0.04182   0.00000  Uiso   1.00
C709   C     0.46858   0.73934   0.41794   0.00000  Uiso   1.00
C710   C     0.26070   0.53131   0.58207   0.00000  Uiso   1.00
C711   C     0.26070   0.96869   0.41793   0.00000  Uiso   1.00
C712   C     0.25000   0.50000   0.02132   0.00000  Uiso   1.00
C713   C     0.25000   0.50000   0.97868   0.00000  Uiso   1.00
C714   C    -0.00000   0.75000   0.02132   0.00000  Uiso   1.00
C715   C     0.00000   0.75000   0.97868   0.00000  Uiso   1.00
C716   C    -0.00000   0.75000   0.52132   0.00000  Uiso   1.00
C717   C     0.00000   0.75000   0.47868   0.00000  Uiso   1.00
C718   C     0.25000   0.50000   0.52132   0.00000  Uiso   1.00
C719   C     0.01095   0.78123   0.95818   0.00000  Uiso   1.00
C720   C     0.25000   0.50000   0.47868   0.00000  Uiso   1.00
C721   C     0.25000   0.50000   0.35522   0.00000  Uiso   1.00
C722   C     0.25000   0.50000   0.64479   0.00000  Uiso   1.00
C723   C     0.00000   0.75000   0.35525   0.00000  Uiso   1.00
C724   C     0.00000   0.75000   0.64475   0.00000  Uiso   1.00
C725   C    -0.00000   0.75000   0.85522   0.00000  Uiso   1.00
C726   C     0.00000   0.75000   0.14479   0.00000  Uiso   1.00
C727   C     0.25000   0.50000   0.85525   0.00000  Uiso   1.00
C728   C     0.25000   0.50000   0.14475   0.00000  Uiso   1.00
C729   C     0.18010   0.57003   0.24979   0.00000  Uiso   1.00
C730   C     0.28134   0.98909   0.04181   0.00000  Uiso   1.00
C731   C     0.31991   0.92997   0.75019   0.00000  Uiso   1.00
C732   C     0.43009   0.67997   0.25020   0.00000  Uiso   1.00
C733   C     0.06990   0.82003   0.74980   0.00000  Uiso   1.00
C734   C     0.31990   0.92997   0.24979   0.00000  Uiso   1.00
C735   C     0.18009   0.57003   0.75019   0.00000  Uiso   1.00
C736   C     0.06991   0.82003   0.25020   0.00000  Uiso   1.00
C737   C     0.43010   0.67997   0.74980   0.00000  Uiso   1.00
C738   C     0.18010   0.92997   0.75021   0.00000  Uiso   1.00
C739   C     0.31991   0.57003   0.24981   0.00000  Uiso   1.00
C740   C     0.43009   0.82003   0.74980   0.00000  Uiso   1.00
C741   C     0.21866   0.98909   0.95819   0.00000  Uiso   1.00
C742   C     0.06990   0.67997   0.25020   0.00000  Uiso   1.00
C743   C     0.31990   0.57003   0.75021   0.00000  Uiso   1.00
C744   C     0.18009   0.92997   0.24981   0.00000  Uiso   1.00
C745   C     0.06991   0.67997   0.74980   0.00000  Uiso   1.00
C746   C     0.43010   0.82003   0.25020   0.00000  Uiso   1.00
C747   C     0.14840   0.87877   0.21743   0.00000  Uiso   1.00
C748   C     0.35182   0.62103   0.78272   0.00000  Uiso   1.00
C749   C     0.12061   0.64793   0.21721   0.00000  Uiso   1.00
C750   C     0.37918   0.85186   0.78265   0.00000  Uiso   1.00
C751   C     0.35160   0.62123   0.21743   0.00000  Uiso   1.00
C752   C     0.48905   0.78123   0.04182   0.00000  Uiso   1.00
C753   C     0.14818   0.87897   0.78272   0.00000  Uiso   1.00
C754   C     0.37939   0.85207   0.21721   0.00000  Uiso   1.00
C755   C     0.12082   0.64814   0.78265   0.00000  Uiso   1.00
C756   C     0.14840   0.62123   0.78257   0.00000  Uiso   1.00
C757   C     0.35182   0.87897   0.21728   0.00000  Uiso   1.00
C758   C     0.12061   0.85207   0.78279   0.00000  Uiso   1.00
C759   C     0.37918   0.64814   0.21735   0.00000  Uiso   1.00
C760   C     0.35160   0.87877   0.78257   0.00000  Uiso   1.00
C761   C     0.14818   0.62103   0.21728   0.00000  Uiso   1.00
C762   C     0.37939   0.64793   0.78279   0.00000  Uiso   1.00
C763   C     0.48905   0.71877   0.95818   0.00000  Uiso   1.00
C764   C     0.12082   0.85186   0.21735   0.00000  Uiso   1.00
C765   C     0.39820   0.62896   0.71730   0.00000  Uiso   1.00
C766   C     0.10162   0.87121   0.28259   0.00000  Uiso   1.00
C767   C     0.37081   0.89813   0.71734   0.00000  Uiso   1.00
C768   C     0.12939   0.60206   0.28278   0.00000  Uiso   1.00
C769   C     0.10180   0.87104   0.71730   0.00000  Uiso   1.00
C770   C     0.39838   0.62879   0.28259   0.00000  Uiso   1.00
C771   C     0.12919   0.60187   0.71734   0.00000  Uiso   1.00
C772   C     0.37061   0.89794   0.28278   0.00000  Uiso   1.00
C773   C     0.39820   0.87105   0.28270   0.00000  Uiso   1.00
C774   C     0.46866   0.76091   0.54181   0.00000  Uiso   1.00
C775   C     0.10162   0.62879   0.71741   0.00000  Uiso   1.00
C776   C     0.37081   0.60187   0.28266   0.00000  Uiso   1.00
C777   C     0.12939   0.89794   0.71722   0.00000  Uiso   1.00
C778   C     0.10180   0.62895   0.28270   0.00000  Uiso   1.00
C779   C     0.39838   0.87121   0.71741   0.00000  Uiso   1.00
C780   C     0.12919   0.89813   0.28266   0.00000  Uiso   1.00
C781   C     0.37061   0.60206   0.71722   0.00000  Uiso   1.00
C782   C     0.09829   0.84787   0.25027   0.00000  Uiso   1.00
C783   C     0.40171   0.65212   0.74974   0.00000  Uiso   1.00
C784   C     0.15171   0.59787   0.24973   0.00000  Uiso   1.00
H785   H     0.19435   0.52008   0.02677   0.00000  Uiso   1.00
H786   H     0.05566   0.77008   0.47323   0.00000  Uiso   1.00
H787   H     0.22985   0.94453   0.52678   0.00000  Uiso   1.00
H788   H     0.22985   0.55547   0.47322   0.00000  Uiso   1.00
H789   H     0.05566   0.72992   0.52677   0.00000  Uiso   1.00
H790   H     0.44434   0.72992   0.47323   0.00000  Uiso   1.00
H791   H     0.27015   0.55547   0.52678   0.00000  Uiso   1.00
H792   H     0.27015   0.94453   0.47322   0.00000  Uiso   1.00
H793   H     0.19412   0.51929   0.09723   0.00000  Uiso   1.00
H794   H     0.30588   0.51929   0.90277   0.00000  Uiso   1.00
H795   H     0.01938   0.69431   0.09724   0.00000  Uiso   1.00
H796   H     0.30565   0.52008   0.97323   0.00000  Uiso   1.00
H797   H     0.01938   0.80569   0.90276   0.00000  Uiso   1.00
H798   H     0.30588   0.98071   0.09723   0.00000  Uiso   1.00
H799   H     0.19412   0.98071   0.90277   0.00000  Uiso   1.00
H800   H     0.48062   0.80569   0.09724   0.00000  Uiso   1.00
H801   H     0.48062   0.69431   0.90276   0.00000  Uiso   1.00
H802   H     0.44412   0.76929   0.59723   0.00000  Uiso   1.00
H803   H     0.05588   0.76929   0.40277   0.00000  Uiso   1.00
H804   H     0.23062   0.94431   0.59724   0.00000  Uiso   1.00
H805   H     0.23062   0.55569   0.40276   0.00000  Uiso   1.00
H806   H     0.05588   0.73071   0.59723   0.00000  Uiso   1.00
H807   H     0.02015   0.69453   0.02678   0.00000  Uiso   1.00
H808   H     0.44412   0.73071   0.40277   0.00000  Uiso   1.00
H809   H     0.26938   0.55569   0.59724   0.00000  Uiso   1.00
H810   H     0.26938   0.94431   0.40276   0.00000  Uiso   1.00
H811   H     0.18619   0.90739   0.17611   0.00000  Uiso   1.00
H812   H     0.31434   0.59215   0.82419   0.00000  Uiso   1.00
H813   H     0.10535   0.69951   0.18619   0.00000  Uiso   1.00
H814   H     0.39430   0.80011   0.81343   0.00000  Uiso   1.00
H815   H     0.31381   0.59261   0.17611   0.00000  Uiso   1.00
H816   H     0.18566   0.90785   0.82419   0.00000  Uiso   1.00
H817   H     0.39465   0.80049   0.18619   0.00000  Uiso   1.00
H818   H     0.02015   0.80547   0.97322   0.00000  Uiso   1.00
H819   H     0.10570   0.69989   0.81343   0.00000  Uiso   1.00
H820   H     0.18619   0.59261   0.82389   0.00000  Uiso   1.00
H821   H     0.31434   0.90785   0.17581   0.00000  Uiso   1.00
H822   H     0.10535   0.80048   0.81381   0.00000  Uiso   1.00
H823   H     0.39430   0.69989   0.18657   0.00000  Uiso   1.00
H824   H     0.31381   0.90739   0.82389   0.00000  Uiso   1.00
H825   H     0.18566   0.59215   0.17581   0.00000  Uiso   1.00
H826   H     0.39465   0.69951   0.81381   0.00000  Uiso   1.00
H827   H     0.10570   0.80011   0.18657   0.00000  Uiso   1.00
H828   H     0.43576   0.65777   0.67589   0.00000  Uiso   1.00
H829   H     0.30565   0.97992   0.02677   0.00000  Uiso   1.00
H830   H     0.06391   0.84253   0.32396   0.00000  Uiso   1.00
H831   H     0.35571   0.94989   0.68657   0.00000  Uiso   1.00
H832   H     0.14467   0.55049   0.31380   0.00000  Uiso   1.00
H833   H     0.06424   0.84223   0.67589   0.00000  Uiso   1.00
H834   H     0.43609   0.65747   0.32396   0.00000  Uiso   1.00
H835   H     0.14429   0.55011   0.68657   0.00000  Uiso   1.00
H836   H     0.35533   0.94951   0.31380   0.00000  Uiso   1.00
H837   H     0.43576   0.84223   0.32411   0.00000  Uiso   1.00
H838   H     0.06391   0.65747   0.67604   0.00000  Uiso   1.00
H839   H     0.35571   0.55011   0.31343   0.00000  Uiso   1.00
H840   H     0.19435   0.97992   0.97323   0.00000  Uiso   1.00
H841   H     0.14467   0.94951   0.68620   0.00000  Uiso   1.00
H842   H     0.06424   0.65777   0.32411   0.00000  Uiso   1.00
H843   H     0.43609   0.84253   0.67604   0.00000  Uiso   1.00
H844   H     0.14429   0.94989   0.31343   0.00000  Uiso   1.00
H845   H     0.35533   0.55049   0.68620   0.00000  Uiso   1.00
H846   H     0.47984   0.80547   0.02678   0.00000  Uiso   1.00
H847   H     0.47985   0.69453   0.97322   0.00000  Uiso   1.00
H848   H     0.44434   0.77008   0.52677   0.00000  Uiso   1.00
O849   O     0.25000   0.50000   0.25000   0.00000  Uiso   1.00
O850   O     0.25000   0.96964   0.66317   0.00000  Uiso   1.00
O851   O     0.46964   0.75000   0.33683   0.00000  Uiso   1.00
O852   O     0.03036   0.75000   0.66317   0.00000  Uiso   1.00
O853   O     0.00000   0.71964   0.83683   0.00000  Uiso   1.00
O854   O    -0.00000   0.78036   0.16317   0.00000  Uiso   1.00
O855   O     0.28036   0.50000   0.83683   0.00000  Uiso   1.00
O856   O     0.21964   0.50000   0.16317   0.00000  Uiso   1.00
O857   O    -0.00000   0.78036   0.83683   0.00000  Uiso   1.00
O858   O     0.00000   0.71964   0.16317   0.00000  Uiso   1.00
O859   O     0.21964   0.50000   0.83683   0.00000  Uiso   1.00
O860   O     0.25000   0.50000   0.75000   0.00000  Uiso   1.00
O861   O     0.28036   0.50000   0.16317   0.00000  Uiso   1.00
O862   O     0.20725   0.57307   0.27282   0.00000  Uiso   1.00
O863   O     0.29274   0.92693   0.72718   0.00000  Uiso   1.00
O864   O     0.42693   0.70726   0.27282   0.00000  Uiso   1.00
O865   O     0.07307   0.79274   0.72718   0.00000  Uiso   1.00
O866   O     0.29274   0.92693   0.27282   0.00000  Uiso   1.00
O867   O     0.20725   0.57307   0.72718   0.00000  Uiso   1.00
O868   O     0.07307   0.79274   0.27282   0.00000  Uiso   1.00
O869   O     0.42693   0.70726   0.72718   0.00000  Uiso   1.00
O870   O     0.20725   0.92693   0.72718   0.00000  Uiso   1.00
O871   O     0.00000   0.75000   0.25000   0.00000  Uiso   1.00
O872   O     0.29274   0.57307   0.27282   0.00000  Uiso   1.00
O873   O     0.42693   0.79275   0.72718   0.00000  Uiso   1.00
O874   O     0.07307   0.70725   0.27282   0.00000  Uiso   1.00
O875   O     0.29274   0.57307   0.72718   0.00000  Uiso   1.00
O876   O     0.20725   0.92693   0.27282   0.00000  Uiso   1.00
O877   O     0.07307   0.70725   0.72718   0.00000  Uiso   1.00
O878   O     0.42693   0.79275   0.27282   0.00000  Uiso   1.00
O879   O     0.45725   0.82307   0.77282   0.00000  Uiso   1.00
O880   O     0.04274   0.67693   0.22718   0.00000  Uiso   1.00
O881   O     0.17693   0.95725   0.77282   0.00000  Uiso   1.00
O882   O    -0.00000   0.75000   0.75000   0.00000  Uiso   1.00
O883   O     0.32307   0.54275   0.22718   0.00000  Uiso   1.00
O884   O     0.04274   0.67693   0.77282   0.00000  Uiso   1.00
O885   O     0.45725   0.82307   0.22718   0.00000  Uiso   1.00
O886   O     0.32307   0.54275   0.77282   0.00000  Uiso   1.00
O887   O     0.17693   0.95725   0.22718   0.00000  Uiso   1.00
O888   O     0.45725   0.67693   0.22718   0.00000  Uiso   1.00
O889   O     0.04274   0.82307   0.77282   0.00000  Uiso   1.00
O890   O     0.17693   0.54275   0.22718   0.00000  Uiso   1.00
O891   O     0.32307   0.95725   0.77282   0.00000  Uiso   1.00
O892   O     0.04274   0.82307   0.22718   0.00000  Uiso   1.00
O893   O     0.25000   0.96964   0.33683   0.00000  Uiso   1.00
O894   O     0.45725   0.67693   0.77282   0.00000  Uiso   1.00
O895   O     0.32307   0.95725   0.22718   0.00000  Uiso   1.00
O896   O     0.17693   0.54275   0.77282   0.00000  Uiso   1.00
O897   O     0.18822   0.85364   0.17050   0.00000  Uiso   1.00
O898   O     0.31228   0.64588   0.83008   0.00000  Uiso   1.00
O899   O     0.11639   0.65903   0.14992   0.00000  Uiso   1.00
O900   O     0.38295   0.84036   0.84989   0.00000  Uiso   1.00
O901   O     0.31178   0.64636   0.17050   0.00000  Uiso   1.00
O902   O     0.18772   0.85412   0.83008   0.00000  Uiso   1.00
O903   O     0.38361   0.84097   0.14992   0.00000  Uiso   1.00
O904   O     0.25000   0.53036   0.66317   0.00000  Uiso   1.00
O905   O     0.11704   0.65964   0.84989   0.00000  Uiso   1.00
O906   O     0.18822   0.64636   0.82950   0.00000  Uiso   1.00
O907   O     0.31227   0.85412   0.16992   0.00000  Uiso   1.00
O908   O     0.11639   0.84097   0.85008   0.00000  Uiso   1.00
O909   O     0.38295   0.65964   0.15011   0.00000  Uiso   1.00
O910   O     0.31178   0.85364   0.82950   0.00000  Uiso   1.00
O911   O     0.18772   0.64588   0.16992   0.00000  Uiso   1.00
O912   O     0.38361   0.65903   0.85008   0.00000  Uiso   1.00
O913   O     0.11704   0.84036   0.15011   0.00000  Uiso   1.00
O914   O     0.43774   0.60405   0.66998   0.00000  Uiso   1.00
O915   O     0.03036   0.75000   0.33683   0.00000  Uiso   1.00
O916   O     0.06180   0.89629   0.32955   0.00000  Uiso   1.00
O917   O     0.36703   0.90964   0.65010   0.00000  Uiso   1.00
O918   O     0.13360   0.59098   0.35007   0.00000  Uiso   1.00
O919   O     0.06226   0.89595   0.66998   0.00000  Uiso   1.00
O920   O     0.43820   0.60371   0.32955   0.00000  Uiso   1.00
O921   O     0.13297   0.59036   0.65010   0.00000  Uiso   1.00
O922   O     0.36640   0.90902   0.35007   0.00000  Uiso   1.00
O923   O     0.43774   0.89595   0.33002   0.00000  Uiso   1.00
O924   O     0.06180   0.60371   0.67045   0.00000  Uiso   1.00
O925   O     0.36703   0.59036   0.34990   0.00000  Uiso   1.00
O926   O     0.46964   0.75000   0.66317   0.00000  Uiso   1.00
O927   O     0.13360   0.90902   0.64993   0.00000  Uiso   1.00
O928   O     0.06226   0.60405   0.33003   0.00000  Uiso   1.00
O929   O     0.43820   0.89629   0.67045   0.00000  Uiso   1.00
O930   O     0.13297   0.90964   0.34990   0.00000  Uiso   1.00
O931   O     0.36640   0.59098   0.64993   0.00000  Uiso   1.00
O932   O     0.25000   0.53036   0.33683   0.00000  Uiso   1.00
Zn933  Zn    0.20660   0.50000   0.21760   0.00000  Uiso   1.00
Zn934  Zn    0.04340   0.75000   0.28240   0.00000  Uiso   1.00
Zn935  Zn    0.25000   0.95660   0.71760   0.00000  Uiso   1.00
Zn936  Zn    0.25000   0.54340   0.28240   0.00000  Uiso   1.00
Zn937  Zn    0.04340   0.75000   0.71760   0.00000  Uiso   1.00
Zn938  Zn    0.45660   0.75000   0.28240   0.00000  Uiso   1.00
Zn939  Zn    0.25000   0.54340   0.71760   0.00000  Uiso   1.00
Zn940  Zn    0.25000   0.95660   0.28240   0.00000  Uiso   1.00
Zn941  Zn    0.29340   0.50000   0.78240   0.00000  Uiso   1.00
Zn942  Zn    0.00000   0.70660   0.21760   0.00000  Uiso   1.00
Zn943  Zn    0.00000   0.79340   0.78240   0.00000  Uiso   1.00
Zn944  Zn    0.29340   0.50000   0.21760   0.00000  Uiso   1.00
Zn945  Zn    0.20660   0.50000   0.78240   0.00000  Uiso   1.00
Zn946  Zn   -0.00000   0.79340   0.21760   0.00000  Uiso   1.00
Zn947  Zn   -0.00000   0.70660   0.78240   0.00000  Uiso   1.00
Zn948  Zn    0.45660   0.75000   0.71760   0.00000  Uiso   1.00
C949   C     0.71866   0.51091   0.04181   0.00000  Uiso   1.00
C950   C     0.53134   0.76091   0.45819   0.00000  Uiso   1.00
C951   C     0.84829   0.90213   0.75026   0.00000  Uiso   1.00
C952   C     0.90171   0.65213   0.25027   0.00000  Uiso   1.00
C953   C     0.59829   0.84788   0.74974   0.00000  Uiso   1.00
C954   C     0.84829   0.90213   0.24973   0.00000  Uiso   1.00
C955   C     0.65171   0.59787   0.75026   0.00000  Uiso   1.00
C956   C     0.59829   0.65213   0.74973   0.00000  Uiso   1.00
C957   C     0.90171   0.84788   0.25026   0.00000  Uiso   1.00
C958   C     0.65171   0.90213   0.75027   0.00000  Uiso   1.00
C959   C     0.84829   0.59787   0.24974   0.00000  Uiso   1.00
C960   C     0.90171   0.84787   0.74973   0.00000  Uiso   1.00
C961   C     0.73905   0.96877   0.54182   0.00000  Uiso   1.00
C962   C     0.59829   0.65212   0.25026   0.00000  Uiso   1.00
C963   C     0.84829   0.59787   0.75027   0.00000  Uiso   1.00
C964   C     0.65171   0.90213   0.24974   0.00000  Uiso   1.00
C965   C     0.75000   0.50000   0.10242   0.00000  Uiso   1.00
C966   C     0.75000   0.50000   0.89758   0.00000  Uiso   1.00
C967   C     0.50000   0.75000   0.10244   0.00000  Uiso   1.00
C968   C     0.50000   0.75000   0.89756   0.00000  Uiso   1.00
C969   C     0.50000   0.75000   0.60242   0.00000  Uiso   1.00
C970   C     0.50000   0.75000   0.39758   0.00000  Uiso   1.00
C971   C     0.75000   0.50000   0.60244   0.00000  Uiso   1.00
C972   C     0.73905   0.53123   0.45818   0.00000  Uiso   1.00
C973   C     0.75000   0.50000   0.39756   0.00000  Uiso   1.00
C974   C     0.67577   0.88114   0.18548   0.00000  Uiso   1.00
C975   C     0.82465   0.61846   0.81486   0.00000  Uiso   1.00
C976   C     0.61395   0.67137   0.18262   0.00000  Uiso   1.00
C977   C     0.88563   0.82822   0.81712   0.00000  Uiso   1.00
C978   C     0.82422   0.61886   0.18548   0.00000  Uiso   1.00
C979   C     0.67535   0.88154   0.81486   0.00000  Uiso   1.00
C980   C     0.88605   0.82863   0.18262   0.00000  Uiso   1.00
C981   C     0.61437   0.67177   0.81712   0.00000  Uiso   1.00
C982   C     0.67577   0.61886   0.81452   0.00000  Uiso   1.00
C983   C     0.53134   0.73909   0.54181   0.00000  Uiso   1.00
C984   C     0.82465   0.88154   0.18514   0.00000  Uiso   1.00
C985   C     0.61395   0.82863   0.81738   0.00000  Uiso   1.00
C986   C     0.88563   0.67178   0.18288   0.00000  Uiso   1.00
C987   C     0.82422   0.88114   0.81452   0.00000  Uiso   1.00
C988   C     0.67535   0.61846   0.18514   0.00000  Uiso   1.00
C989   C     0.88605   0.67137   0.81738   0.00000  Uiso   1.00
C990   C     0.61437   0.82822   0.18288   0.00000  Uiso   1.00
C991   C     0.92539   0.63148   0.68519   0.00000  Uiso   1.00
C992   C     0.57427   0.86880   0.31457   0.00000  Uiso   1.00
C993   C     0.86437   0.92178   0.68287   0.00000  Uiso   1.00
C994   C     0.96866   0.73909   0.45819   0.00000  Uiso   1.00
C995   C     0.63605   0.57863   0.31737   0.00000  Uiso   1.00
C996   C     0.57461   0.86852   0.68519   0.00000  Uiso   1.00
C997   C     0.92573   0.63120   0.31457   0.00000  Uiso   1.00
C998   C     0.63563   0.57823   0.68287   0.00000  Uiso   1.00
C999   C     0.86395   0.92137   0.31737   0.00000  Uiso   1.00
C1000  C     0.92539   0.86852   0.31481   0.00000  Uiso   1.00
C1001  C     0.57427   0.63120   0.68543   0.00000  Uiso   1.00
C1002  C     0.86437   0.57823   0.31713   0.00000  Uiso   1.00
C1003  C     0.63605   0.92137   0.68263   0.00000  Uiso   1.00
C1004  C     0.57461   0.63148   0.31481   0.00000  Uiso   1.00
C1005  C     0.76095   0.53123   0.54182   0.00000  Uiso   1.00
C1006  C     0.92573   0.86880   0.68543   0.00000  Uiso   1.00
C1007  C     0.63563   0.92177   0.31713   0.00000  Uiso   1.00
C1008  C     0.86395   0.57863   0.68263   0.00000  Uiso   1.00
C1009  C     0.76095   0.96877   0.45818   0.00000  Uiso   1.00
C1010  C     0.71858   0.51066   0.08206   0.00000  Uiso   1.00
C1011  C     0.78142   0.51066   0.91794   0.00000  Uiso   1.00
C1012  C     0.51070   0.71869   0.08207   0.00000  Uiso   1.00
C1013  C     0.78134   0.51091   0.95819   0.00000  Uiso   1.00
C1014  C     0.51070   0.78131   0.91793   0.00000  Uiso   1.00
C1015  C     0.78142   0.98934   0.08206   0.00000  Uiso   1.00
C1016  C     0.71858   0.98934   0.91794   0.00000  Uiso   1.00
C1017  C     0.98930   0.78131   0.08207   0.00000  Uiso   1.00
C1018  C     0.98930   0.71869   0.91793   0.00000  Uiso   1.00
C1019  C     0.96858   0.76066   0.58206   0.00000  Uiso   1.00
C1020  C     0.53142   0.76066   0.41794   0.00000  Uiso   1.00
C1021  C     0.73930   0.96869   0.58207   0.00000  Uiso   1.00
C1022  C     0.73930   0.53131   0.41793   0.00000  Uiso   1.00
C1023  C     0.53142   0.73934   0.58206   0.00000  Uiso   1.00
C1024  C     0.51095   0.71877   0.04182   0.00000  Uiso   1.00
C1025  C     0.96858   0.73934   0.41794   0.00000  Uiso   1.00
C1026  C     0.76070   0.53131   0.58207   0.00000  Uiso   1.00
C1027  C     0.76070   0.96869   0.41793   0.00000  Uiso   1.00
C1028  C     0.75000   0.50000   0.02132   0.00000  Uiso   1.00
C1029  C     0.75000   0.50000   0.97868   0.00000  Uiso   1.00
C1030  C     0.50000   0.75000   0.02132   0.00000  Uiso   1.00
C1031  C     0.50000   0.75000   0.97868   0.00000  Uiso   1.00
C1032  C     0.50000   0.75000   0.52132   0.00000  Uiso   1.00
C1033  C     0.50000   0.75000   0.47868   0.00000  Uiso   1.00
C1034  C     0.75000   0.50000   0.52132   0.00000  Uiso   1.00
C1035  C     0.51095   0.78123   0.95818   0.00000  Uiso   1.00
C1036  C     0.75000   0.50000   0.47868   0.00000  Uiso   1.00
C1037  C     0.75000   0.50000   0.35522   0.00000  Uiso   1.00
C1038  C     0.75000   0.50000   0.64479   0.00000  Uiso   1.00
C1039  C     0.50000   0.75000   0.35525   0.00000  Uiso   1.00
C1040  C     0.50000   0.75000   0.64475   0.00000  Uiso   1.00
C1041  C     0.50000   0.75000   0.85522   0.00000  Uiso   1.00
C1042  C     0.50000   0.75000   0.14479   0.00000  Uiso   1.00
C1043  C     0.75000   0.50000   0.85525   0.00000  Uiso   1.00
C1044  C     0.75000   0.50000   0.14475   0.00000  Uiso   1.00
C1045  C     0.68010   0.57003   0.24979   0.00000  Uiso   1.00
C1046  C     0.78134   0.98909   0.04181   0.00000  Uiso   1.00
C1047  C     0.81991   0.92997   0.75019   0.00000  Uiso   1.00
C1048  C     0.93009   0.67997   0.25020   0.00000  Uiso   1.00
C1049  C     0.56990   0.82003   0.74980   0.00000  Uiso   1.00
C1050  C     0.81990   0.92997   0.24979   0.00000  Uiso   1.00
C1051  C     0.68009   0.57003   0.75019   0.00000  Uiso   1.00
C1052  C     0.56991   0.82003   0.25020   0.00000  Uiso   1.00
C1053  C     0.93010   0.67997   0.74980   0.00000  Uiso   1.00
C1054  C     0.68010   0.92997   0.75021   0.00000  Uiso   1.00
C1055  C     0.81991   0.57003   0.24981   0.00000  Uiso   1.00
C1056  C     0.93009   0.82003   0.74980   0.00000  Uiso   1.00
C1057  C     0.71866   0.98909   0.95819   0.00000  Uiso   1.00
C1058  C     0.56990   0.67997   0.25020   0.00000  Uiso   1.00
C1059  C     0.81990   0.57003   0.75021   0.00000  Uiso   1.00
C1060  C     0.68009   0.92997   0.24981   0.00000  Uiso   1.00
C1061  C     0.56991   0.67997   0.74980   0.00000  Uiso   1.00
C1062  C     0.93010   0.82003   0.25020   0.00000  Uiso   1.00
C1063  C     0.64840   0.87877   0.21743   0.00000  Uiso   1.00
C1064  C     0.85182   0.62103   0.78272   0.00000  Uiso   1.00
C1065  C     0.62061   0.64793   0.21721   0.00000  Uiso   1.00
C1066  C     0.87918   0.85186   0.78265   0.00000  Uiso   1.00
C1067  C     0.85160   0.62123   0.21743   0.00000  Uiso   1.00
C1068  C     0.98905   0.78123   0.04182   0.00000  Uiso   1.00
C1069  C     0.64818   0.87897   0.78272   0.00000  Uiso   1.00
C1070  C     0.87939   0.85207   0.21721   0.00000  Uiso   1.00
C1071  C     0.62082   0.64814   0.78265   0.00000  Uiso   1.00
C1072  C     0.64840   0.62123   0.78257   0.00000  Uiso   1.00
C1073  C     0.85182   0.87897   0.21728   0.00000  Uiso   1.00
C1074  C     0.62061   0.85207   0.78279   0.00000  Uiso   1.00
C1075  C     0.87918   0.64814   0.21735   0.00000  Uiso   1.00
C1076  C     0.85160   0.87877   0.78257   0.00000  Uiso   1.00
C1077  C     0.64818   0.62103   0.21728   0.00000  Uiso   1.00
C1078  C     0.87939   0.64793   0.78279   0.00000  Uiso   1.00
C1079  C     0.98905   0.71877   0.95818   0.00000  Uiso   1.00
C1080  C     0.62082   0.85186   0.21735   0.00000  Uiso   1.00
C1081  C     0.89820   0.62896   0.71730   0.00000  Uiso   1.00
C1082  C     0.60162   0.87121   0.28259   0.00000  Uiso   1.00
C1083  C     0.87081   0.89813   0.71734   0.00000  Uiso   1.00
C1084  C     0.62939   0.60206   0.28278   0.00000  Uiso   1.00
C1085  C     0.60180   0.87104   0.71730   0.00000  Uiso   1.00
C1086  C     0.89838   0.62879   0.28259   0.00000  Uiso   1.00
C1087  C     0.62919   0.60187   0.71734   0.00000  Uiso   1.00
C1088  C     0.87061   0.89794   0.28278   0.00000  Uiso   1.00
C1089  C     0.89820   0.87105   0.28270   0.00000  Uiso   1.00
C1090  C     0.96866   0.76091   0.54181   0.00000  Uiso   1.00
C1091  C     0.60162   0.62879   0.71741   0.00000  Uiso   1.00
C1092  C     0.87081   0.60187   0.28266   0.00000  Uiso   1.00
C1093  C     0.62939   0.89794   0.71722   0.00000  Uiso   1.00
C1094  C     0.60180   0.62895   0.28270   0.00000  Uiso   1.00
C1095  C     0.89838   0.87121   0.71741   0.00000  Uiso   1.00
C1096  C     0.62919   0.89813   0.28266   0.00000  Uiso   1.00
C1097  C     0.87061   0.60206   0.71722   0.00000  Uiso   1.00
C1098  C     0.59829   0.84787   0.25027   0.00000  Uiso   1.00
C1099  C     0.90171   0.65212   0.74974   0.00000  Uiso   1.00
C1100  C     0.65171   0.59787   0.24973   0.00000  Uiso   1.00
H1101  H     0.69435   0.52008   0.02677   0.00000  Uiso   1.00
H1102  H     0.55566   0.77008   0.47323   0.00000  Uiso   1.00
H1103  H     0.72985   0.94453   0.52678   0.00000  Uiso   1.00
H1104  H     0.72985   0.55547   0.47322   0.00000  Uiso   1.00
H1105  H     0.55566   0.72992   0.52677   0.00000  Uiso   1.00
H1106  H     0.94434   0.72992   0.47323   0.00000  Uiso   1.00
H1107  H     0.77015   0.55547   0.52678   0.00000  Uiso   1.00
H1108  H     0.77015   0.94453   0.47322   0.00000  Uiso   1.00
H1109  H     0.69412   0.51929   0.09723   0.00000  Uiso   1.00
H1110  H     0.80588   0.51929   0.90277   0.00000  Uiso   1.00
H1111  H     0.51938   0.69431   0.09724   0.00000  Uiso   1.00
H1112  H     0.80565   0.52008   0.97323   0.00000  Uiso   1.00
H1113  H     0.51938   0.80569   0.90276   0.00000  Uiso   1.00
H1114  H     0.80588   0.98071   0.09723   0.00000  Uiso   1.00
H1115  H     0.69412   0.98071   0.90277   0.00000  Uiso   1.00
H1116  H     0.98062   0.80569   0.09724   0.00000  Uiso   1.00
H1117  H     0.98062   0.69431   0.90276   0.00000  Uiso   1.00
H1118  H     0.94412   0.76929   0.59723   0.00000  Uiso   1.00
H1119  H     0.55588   0.76929   0.40277   0.00000  Uiso   1.00
H1120  H     0.73062   0.94431   0.59724   0.00000  Uiso   1.00
H1121  H     0.73062   0.55569   0.40276   0.00000  Uiso   1.00
H1122  H     0.55588   0.73071   0.59723   0.00000  Uiso   1.00
H1123  H     0.52015   0.69453   0.02678   0.00000  Uiso   1.00
H1124  H     0.94412   0.73071   0.40277   0.00000  Uiso   1.00
H1125  H     0.76938   0.55569   0.59724   0.00000  Uiso   1.00
H1126  H     0.76938   0.94431   0.40276   0.00000  Uiso   1.00
H1127  H     0.68619   0.90739   0.17611   0.00000  Uiso   1.00
H1128  H     0.81434   0.59215   0.82419   0.00000  Uiso   1.00
H1129  H     0.60535   0.69951   0.18619   0.00000  Uiso   1.00
H1130  H     0.89430   0.80011   0.81343   0.00000  Uiso   1.00
H1131  H     0.81381   0.59261   0.17611   0.00000  Uiso   1.00
H1132  H     0.68566   0.90785   0.82419   0.00000  Uiso   1.00
H1133  H     0.89465   0.80049   0.18619   0.00000  Uiso   1.00
H1134  H     0.52015   0.80547   0.97322   0.00000  Uiso   1.00
H1135  H     0.60570   0.69989   0.81343   0.00000  Uiso   1.00
H1136  H     0.68619   0.59261   0.82389   0.00000  Uiso   1.00
H1137  H     0.81434   0.90785   0.17581   0.00000  Uiso   1.00
H1138  H     0.60535   0.80048   0.81381   0.00000  Uiso   1.00
H1139  H     0.89430   0.69989   0.18657   0.00000  Uiso   1.00
H1140  H     0.81381   0.90739   0.82389   0.00000  Uiso   1.00
H1141  H     0.68566   0.59215   0.17581   0.00000  Uiso   1.00
H1142  H     0.89465   0.69951   0.81381   0.00000  Uiso   1.00
H1143  H     0.60570   0.80011   0.18657   0.00000  Uiso   1.00
H1144  H     0.93576   0.65777   0.67589   0.00000  Uiso   1.00
H1145  H     0.80565   0.97992   0.02677   0.00000  Uiso   1.00
H1146  H     0.56391   0.84253   0.32396   0.00000  Uiso   1.00
H1147  H     0.85571   0.94989   0.68657   0.00000  Uiso   1.00
H1148  H     0.64467   0.55049   0.31380   0.00000  Uiso   1.00
H1149  H     0.56424   0.84223   0.67589   0.00000  Uiso   1.00
H1150  H     0.93609   0.65747   0.32396   0.00000  Uiso   1.00
H1151  H     0.64429   0.55011   0.68657   0.00000  Uiso   1.00
H1152  H     0.85533   0.94951   0.31380   0.00000  Uiso   1.00
H1153  H     0.93576   0.84223   0.32411   0.00000  Uiso   1.00
H1154  H     0.56391   0.65747   0.67604   0.00000  Uiso   1.00
H1155  H     0.85571   0.55011   0.31343   0.00000  Uiso   1.00
H1156  H     0.69435   0.97992   0.97323   0.00000  Uiso   1.00
H1157  H     0.64467   0.94951   0.68620   0.00000  Uiso   1.00
H1158  H     0.56424   0.65777   0.32411   0.00000  Uiso   1.00
H1159  H     0.93609   0.84253   0.67604   0.00000  Uiso   1.00
H1160  H     0.64429   0.94989   0.31343   0.00000  Uiso   1.00
H1161  H     0.85533   0.55049   0.68620   0.00000  Uiso   1.00
H1162  H     0.97984   0.80547   0.02678   0.00000  Uiso   1.00
H1163  H     0.97985   0.69453   0.97322   0.00000  Uiso   1.00
H1164  H     0.94434   0.77008   0.52677   0.00000  Uiso   1.00
O1165  O     0.75000   0.50000   0.25000   0.00000  Uiso   1.00
O1166  O     0.75000   0.96964   0.66317   0.00000  Uiso   1.00
O1167  O     0.96964   0.75000   0.33683   0.00000  Uiso   1.00
O1168  O     0.53036   0.75000   0.66317   0.00000  Uiso   1.00
O1169  O     0.50000   0.71964   0.83683   0.00000  Uiso   1.00
O1170  O     0.50000   0.78036   0.16317   0.00000  Uiso   1.00
O1171  O     0.78036   0.50000   0.83683   0.00000  Uiso   1.00
O1172  O     0.71964   0.50000   0.16317   0.00000  Uiso   1.00
O1173  O     0.50000   0.78036   0.83683   0.00000  Uiso   1.00
O1174  O     0.50000   0.71964   0.16317   0.00000  Uiso   1.00
O1175  O     0.71964   0.50000   0.83683   0.00000  Uiso   1.00
O1176  O     0.75000   0.50000   0.75000   0.00000  Uiso   1.00
O1177  O     0.78036   0.50000   0.16317   0.00000  Uiso   1.00
O1178  O     0.70725   0.57307   0.27282   0.00000  Uiso   1.00
O1179  O     0.79274   0.92693   0.72718   0.00000  Uiso   1.00
O1180  O     0.92693   0.70726   0.27282   0.00000  Uiso   1.00
O1181  O     0.57307   0.79274   0.72718   0.00000  Uiso   1.00
O1182  O     0.79274   0.92693   0.27282   0.00000  Uiso   1.00
O1183  O     0.70725   0.57307   0.72718   0.00000  Uiso   1.00
O1184  O     0.57307   0.79274   0.27282   0.00000  Uiso   1.00
O1185  O     0.92693   0.70726   0.72718   0.00000  Uiso   1.00
O1186  O     0.70725   0.92693   0.72718   0.00000  Uiso   1.00
O1187  O     0.50000   0.75000   0.25000   0.00000  Uiso   1.00
O1188  O     0.79274   0.57307   0.27282   0.00000  Uiso   1.00
O1189  O     0.92693   0.79275   0.72718   0.00000  Uiso   1.00
O1190  O     0.57307   0.70725   0.27282   0.00000  Uiso   1.00
O1191  O     0.79274   0.57307   0.72718   0.00000  Uiso   1.00
O1192  O     0.70725   0.92693   0.27282   0.00000  Uiso   1.00
O1193  O     0.57307   0.70725   0.72718   0.00000  Uiso   1.00
O1194  O     0.92693   0.79275   0.27282   0.00000  Uiso   1.00
O1195  O     0.95725   0.82307   0.77282   0.00000  Uiso   1.00
O1196  O     0.54274   0.67693   0.22718   0.00000  Uiso   1.00
O1197  O     0.67693   0.95725   0.77282   0.00000  Uiso   1.00
O1198  O     0.50000   0.75000   0.75000   0.00000  Uiso   1.00
O1199  O     0.82307   0.54275   0.22718   0.00000  Uiso   1.00
O1200  O     0.54274   0.67693   0.77282   0.00000  Uiso   1.00
O1201  O     0.95725   0.82307   0.22718   0.00000  Uiso   1.00
O1202  O     0.82307   0.54275   0.77282   0.00000  Uiso   1.00
O1203  O     0.67693   0.95725   0.22718   0.00000  Uiso   1.00
O1204  O     0.95725   0.67693   0.22718   0.00000  Uiso   1.00
O1205  O     0.54274   0.82307   0.77282   0.00000  Uiso   1.00
O1206  O     0.67693   0.54275   0.22718   0.00000  Uiso   1.00
O1207  O     0.82307   0.95725   0.77282   0.00000  Uiso   1.00
O1208  O     0.54274   0.82307   0.22718   0.00000  Uiso   1.00
O1209  O     0.75000   0.96964   0.33683   0.00000  Uiso   1.00
O1210  O     0.95725   0.67693   0.77282   0.00000  Uiso   1.00
O1211  O     0.82307   0.95725   0.22718   0.00000  Uiso   1.00
O1212  O     0.67693   0.54275   0.77282   0.00000  Uiso   1.00
O1213  O     0.68822   0.85364   0.17050   0.00000  Uiso   1.00
O1214  O     0.81228   0.64588   0.83008   0.00000  Uiso   1.00
O1215  O     0.61639   0.65903   0.14992   0.00000  Uiso   1.00
O1216  O     0.88295   0.84036   0.84989   0.00000  Uiso   1.00
O1217  O     0.81178   0.64636   0.17050   0.00000  Uiso   1.00
O1218  O     0.68772   0.85412   0.83008   0.00000  Uiso   1.00
O1219  O     0.88361   0.84097   0.14992   0.00000  Uiso   1.00
O1220  O     0.75000   0.53036   0.66317   0.00000  Uiso   1.00
O1221  O     0.61704   0.65964   0.84989   0.00000  Uiso   1.00
O1222  O     0.68822   0.64636   0.82950   0.00000  Uiso   1.00
O1223  O     0.81227   0.85412   0.16992   0.00000  Uiso   1.00
O1224  O     0.61639   0.84097   0.85008   0.00000  Uiso   1.00
O1225  O     0.88295   0.65964   0.15011   0.00000  Uiso   1.00
O1226  O     0.81178   0.85364   0.82950   0.00000  Uiso   1.00
O1227  O     0.68772   0.64588   0.16992   0.00000  Uiso   1.00
O1228  O     0.88361   0.65903   0.85008   0.00000  Uiso   1.00
O1229  O     0.61704   0.84036   0.15011   0.00000  Uiso   1.00
O1230  O     0.93774   0.60405   0.66998   0.00000  Uiso   1.00
O1231  O     0.53036   0.75000   0.33683   0.00000  Uiso   1.00
O1232  O     0.56180   0.89629   0.32955   0.00000  Uiso   1.00
O1233  O     0.86703   0.90964   0.65010   0.00000  Uiso   1.00
O1234  O     0.63360   0.59098   0.35007   0.00000  Uiso   1.00
O1235  O     0.56226   0.89595   0.66998   0.00000  Uiso   1.00
O1236  O     0.93820   0.60371   0.32955   0.00000  Uiso   1.00
O1237  O     0.63297   0.59036   0.65010   0.00000  Uiso   1.00
O1238  O     0.86640   0.90902   0.35007   0.00000  Uiso   1.00
O1239  O     0.93774   0.89595   0.33002   0.00000  Uiso   1.00
O1240  O     0.56180   0.60371   0.67045   0.00000  Uiso   1.00
O1241  O     0.86703   0.59036   0.34990   0.00000  Uiso   1.00
O1242  O     0.96964   0.75000   0.66317   0.00000  Uiso   1.00
O1243  O     0.63360   0.90902   0.64993   0.00000  Uiso   1.00
O1244  O     0.56226   0.60405   0.33003   0.00000  Uiso   1.00
O1245  O     0.93820   0.89629   0.67045   0.00000  Uiso   1.00
O1246  O     0.63297   0.90964   0.34990   0.00000  Uiso   1.00
O1247  O     0.86640   0.59098   0.64993   0.00000  Uiso   1.00
O1248  O     0.75000   0.53036   0.33683   0.00000  Uiso   1.00
Zn1249 Zn    0.70660   0.50000   0.21760   0.00000  Uiso   1.00
Zn1250 Zn    0.54340   0.75000   0.28240   0.00000  Uiso   1.00
Zn1251 Zn    0.75000   0.95660   0.71760   0.00000  Uiso   1.00
Zn1252 Zn    0.75000   0.54340   0.28240   0.00000  Uiso   1.00
Zn1253 Zn    0.54340   0.75000   0.71760   0.00000  Uiso   1.00
Zn1254 Zn    0.95660   0.75000   0.28240   0.00000  Uiso   1.00
Zn1255 Zn    0.75000   0.54340   0.71760   0.00000  Uiso   1.00
Zn1256 Zn    0.75000   0.95660   0.28240   0.00000  Uiso   1.00
Zn1257 Zn    0.79340   0.50000   0.78240   0.00000  Uiso   1.00
Zn1258 Zn    0.50000   0.70660   0.21760   0.00000  Uiso   1.00
Zn1259 Zn    0.50000   0.79340   0.78240   0.00000  Uiso   1.00
Zn1260 Zn    0.79340   0.50000   0.21760   0.00000  Uiso   1.00
Zn1261 Zn    0.70660   0.50000   0.78240   0.00000  Uiso   1.00
Zn1262 Zn    0.50000   0.79340   0.21760   0.00000  Uiso   1.00
Zn1263 Zn    0.50000   0.70660   0.78240   0.00000  Uiso   1.00
Zn1264 Zn    0.95660   0.75000   0.71760   0.00000  Uiso   1.00
loop_
_geom_bond_atom_site_label_1
_geom_bond_atom_site_label_2
_geom_bond_distance
_geom_bond_site_symmetry_2
_ccdc_geom_bond_type
C1     C62     1.391   .     A
C1     H153    1.083   .     S
C1     C80     1.405   .     A
C2     H154    1.083   .     S
C2     C85     1.405   .     A
C2     C72     1.391   .     A
C3     C128    1.413   .     A
C3     C99     1.455   .     S
C3     C135    1.412   .     A
C4     C127    1.412   .     A
C4     C138    1.413   .     A
C4     C100    1.455   .     S
C5     C126    1.412   .     A
C5     C101    1.455   .     S
C5     C137    1.413   .     A
C6     C125    1.413   .     A
C6     C102    1.455   .     S
C6     C140    1.412   .     A
C7     C103    1.455   .     S
C7     C124    1.413   .     A
C7     C139    1.412   .     A
C8     C123    1.412   .     A
C8     C143    1.413   .     A
C8     C113    1.455   .     S
C9     C114    1.455   .     S
C9     C122    1.412   .     A
C9     C141    1.413   .     A
C10    C106    1.455   .     S
C10    C121    1.413   .     A
C10    C145    1.412   .     A
C11    C119    1.413   .     A
C11    C144    1.412   .     A
C11    C107    1.455   .     S
C12    C108    1.455   .     S
C12    C147    1.413   .     A
C12    C118    1.412   .     A
C13    C73     1.392   .     A
C13    H155    1.083   .     S
C13    C718    1.405   .     S
C14    C117    1.412   .     A
C14    C110    1.455   .     S
C14    C146    1.413   .     A
C15    C149    1.412   .     A
C15    C116    1.413   .     A
C15    C111    1.455   .     S
C16    C115    1.413   .     A
C16    C112    1.455   .     S
C16    C148    1.412   .     A
C17    C699    1.402   1_545 A
C17    C62     1.402   .     S
C17    C96     1.464   .     S
C18    C63     1.402   .     A
C18    C700    1.402   1_545 S
C18    C95     1.464   .     S
C19    C385    1.402   1_455 A
C19    C64     1.402   .     S
C19    C94     1.464   .     S
C20    C66     1.402   .     A
C20    C386    1.402   1_455 S
C20    C93     1.464   .     S
C21    C92     1.464   .     S
C21    C75     1.402   .     A
C21    C387    1.402   1_455 S
C22    C91     1.464   .     S
C22    C72     1.402   .     A
C22    C393    1.402   1_455 S
C23    C90     1.464   .     S
C23    C78     1.402   .     A
C23    C705    1.402   1_545 S
C24    H156    1.083   .     S
C24    C88     1.405   .     A
C24    C74     1.392   .     A
C25    C74     1.402   .     A
C25    C89     1.464   .     S
C25    C711    1.402   1_545 S
C26    H179    1.084   .     S
C26    C115    1.493   .     S
C26    O265    1.221   .     D
C27    H180    1.084   .     S
C27    O266    1.221   .     D
C27    C116    1.493   .     S
C28    H181    1.085   .     S
C28    O267    1.221   .     D
C28    C117    1.492   .     S
C29    O268    1.221   .     D
C29    H182    1.085   .     S
C29    C118    1.492   .     S
C30    O269    1.221   .     D
C30    H183    1.084   .     S
C30    C119    1.493   .     S
C31    C121    1.493   .     S
C31    O270    1.221   .     D
C31    H184    1.084   .     S
C32    O271    1.221   .     D
C32    H185    1.085   .     S
C32    C122    1.492   .     S
C33    O273    1.221   .     D
C33    H187    1.085   .     S
C33    C123    1.492   .     S
C34    C124    1.493   .     S
C34    O274    1.221   .     D
C34    H188    1.084   .     S
C35    H157    1.083   .     S
C35    C75     1.391   .     A
C35    C84     1.405   .     S
C36    C125    1.493   .     S
C36    O275    1.221   .     D
C36    H189    1.084   .     S
C37    H190    1.085   .     S
C37    C126    1.492   .     S
C37    O276    1.221   .     D
C38    O277    1.221   .     D
C38    H191    1.085   .     S
C38    C127    1.492   .     S
C39    C128    1.493   .     S
C39    O278    1.221   .     D
C39    H192    1.084   .     S
C40    C129    1.493   .     S
C40    O279    1.221   .     D
C40    H193    1.084   .     S
C41    O280    1.221   .     D
C41    C130    1.492   .     S
C41    H194    1.085   .     S
C42    H195    1.085   .     S
C42    O281    1.221   .     D
C42    C132    1.492   .     S
C43    C133    1.493   .     S
C43    H196    1.084   .     S
C43    O282    1.221   .     D
C44    H198    1.084   .     S
C44    C134    1.493   .     S
C44    O284    1.221   .     D
C45    C135    1.492   .     S
C45    H199    1.085   .     S
C45    O285    1.221   .     D
C46    C77     1.391   .     A
C46    H158    1.083   .     S
C46    C401    1.405   .     S
C47    C136    1.492   .     S
C47    O286    1.221   .     D
C47    H200    1.085   .     S
C48    O287    1.221   .     D
C48    C137    1.493   .     S
C48    H201    1.084   .     S
C49    O288    1.221   .     D
C49    C138    1.493   .     S
C49    H202    1.084   .     S
C50    O289    1.221   .     D
C50    H203    1.085   .     S
C50    C139    1.492   .     S
C51    C140    1.492   .     S
C51    O290    1.221   .     D
C51    H204    1.085   .     S
C52    H205    1.084   .     S
C52    O291    1.221   .     D
C52    C141    1.493   .     S
C53    H206    1.084   .     S
C53    C143    1.493   .     S
C53    O292    1.221   .     D
C54    C144    1.492   .     S
C54    O293    1.221   .     D
C54    H207    1.085   .     S
C55    C145    1.492   .     S
C55    H209    1.085   .     S
C55    O295    1.221   .     D
C56    O296    1.221   .     D
C56    H210    1.084   .     S
C56    C146    1.493   .     S
C57    H159    1.083   .     S
C57    C78     1.392   .     A
C57    C86     1.405   .     A
C58    C147    1.493   .     S
C58    H211    1.084   .     S
C58    O297    1.221   .     D
C59    O298    1.221   .     D
C59    C148    1.492   .     S
C59    H212    1.085   .     S
C60    O299    1.221   .     D
C60    H213    1.085   .     S
C60    C149    1.492   .     S
C61    H160    1.083   .     S
C61    C79     1.392   .     A
C61    C720    1.405   .     S
C62    H161    1.083   .     S
C63    C65     1.391   .     A
C63    H162    1.083   .     S
C64    H163    1.083   .     S
C64    C76     1.392   .     A
C65    C81     1.405   .     A
C65    H164    1.083   .     S
C66    H165    1.083   .     S
C66    C87     1.392   .     A
C67    C649    1.402   .     A
C67    C98     1.391   .     A
C67    H166    1.083   .     S
C68    C109    1.391   .     A
C68    H167    1.083   .     S
C68    C650    1.402   .     S
C69    H168    1.083   .     S
C69    C335    1.402   .     A
C69    C120    1.392   .     A
C70    H169    1.083   .     S
C70    C131    1.392   .     A
C70    C336    1.402   .     S
C71    H170    1.083   .     S
C71    C142    1.391   .     A
C71    C337    1.402   .     S
C72    H171    1.083   .     S
C73    H172    1.083   .     S
C73    C655    1.402   .     S
C74    H173    1.083   .     S
C75    H174    1.083   .     S
C76    H175    1.083   .     S
C76    C82     1.405   .     S
C77    H176    1.083   .     S
C77    C338    1.402   .     S
C78    H177    1.083   .     S
C79    H178    1.083   .     S
C79    C657    1.402   .     S
C80    C81     1.474   1_554 S
C80    C730    1.405   1_545 S
C81    C80     1.474   1_556 S
C81    C741    1.405   1_545 S
C82    C436    1.405   1_455 A
C82    C83     1.474   1_554 S
C83    C87     1.405   .     A
C83    C82     1.474   1_556 S
C83    C447    1.405   1_455 S
C84    C458    1.405   1_455 A
C84    C85     1.474   .     S
C85    C362    1.405   1_455 S
C86    C88     1.474   .     S
C86    C645    1.405   1_545 S
C87    H186    1.083   .     S
C88    C693    1.405   1_545 S
C89    O300    1.281   .     A
C89    O893    1.281   1_545 S
C90    O272    1.281   .     A
C90    O850    1.281   1_545 S
C91    O283    1.279   .     A
C91    O535    1.279   1_455 S
C92    O220    1.279   .     A
C92    O610    1.279   1_455 S
C93    O225    1.281   .     A
C93    O221    1.281   .     S
C94    O226    1.281   .     A
C94    O222    1.281   .     S
C95    O223    1.279   .     S
C95    O227    1.279   .     S
C96    O229    1.279   .     A
C96    O224    1.279   .     A
C97    C152    1.455   .     S
C97    O258    1.275   .     A
C97    O230    1.277   .     A
C98    H197    1.083   .     S
C98    C712    1.405   .     S
C99    O231    1.277   .     A
C99    O259    1.275   .     A
C100   O256    1.277   .     A
C100   O232    1.275   .     A
C101   O257    1.277   .     A
C101   O233    1.275   .     A
C102   O234    1.277   .     A
C102   O263    1.275   .     A
C103   O235    1.277   .     A
C103   O264    1.275   .     A
C104   C150    1.455   .     S
C104   O236    1.275   .     A
C104   O260    1.277   .     A
C105   C151    1.455   .     S
C105   O237    1.275   .     A
C105   O262    1.277   .     A
C106   O238    1.277   .     A
C106   O249    1.275   .     A
C107   O240    1.277   .     A
C107   O251    1.275   .     A
C108   O241    1.275   .     A
C108   O247    1.277   .     A
C109   H208    1.083   .     S
C109   C713    1.405   .     S
C110   O242    1.275   .     A
C110   O248    1.277   .     A
C111   O243    1.277   .     A
C111   O254    1.275   .     A
C112   O255    1.275   .     A
C112   O244    1.277   .     A
C113   O252    1.277   .     A
C113   O245    1.275   .     A
C114   O253    1.277   .     A
C114   O246    1.275   .     A
C115   C132    1.410   .     A
C116   C130    1.410   .     A
C117   C129    1.410   .     A
C118   C128    1.410   .     A
C119   C127    1.410   .     A
C120   C398    1.405   .     A
C120   H214    1.083   .     S
C121   C126    1.410   .     A
C122   C125    1.410   .     A
C123   C124    1.410   .     A
C129   C152    1.413   .     A
C130   C151    1.412   .     A
C131   H215    1.083   .     S
C131   C399    1.405   .     S
C132   C150    1.412   .     A
C133   C151    1.413   .     A
C133   C149    1.410   .     A
C134   C150    1.413   .     A
C134   C148    1.410   .     A
C135   C147    1.410   .     A
C136   C152    1.412   .     A
C136   C146    1.410   .     A
C137   C145    1.410   .     A
C138   C144    1.410   .     A
C139   C143    1.410   .     A
C140   C141    1.410   .     A
C142   C400    1.405   .     A
C142   H216    1.083   .     S
O217   Zn304   1.945   .     S
O217   Zn301   1.941   .     S
O217   Zn312   1.941   .     S
O217   Zn940   1.945   1_545 S
O218   Zn303   1.942   .     S
O218   C722    1.281   .     S
O219   Zn306   1.941   .     S
O219   C407    1.279   .     S
O220   Zn305   1.941   .     S
O221   Zn315   1.942   .     S
O222   Zn314   1.942   .     S
O223   Zn309   1.941   .     S
O224   Zn301   1.941   .     S
O225   Zn311   1.942   .     S
O226   Zn310   1.942   .     S
O227   Zn313   1.941   .     S
O228   Zn307   1.945   .     S
O228   Zn309   1.941   .     S
O228   Zn313   1.941   .     S
O228   Zn935   1.945   1_545 S
O229   Zn312   1.941   .     S
O230   Zn304   1.931   .     S
O231   Zn303   1.931   .     S
O232   Zn306   1.933   .     S
O233   Zn305   1.933   .     S
O234   Zn308   1.931   .     S
O235   Zn307   1.931   .     S
O236   Zn302   1.933   .     S
O237   Zn316   1.933   .     S
O238   Zn303   1.931   .     S
O239   Zn302   1.941   .     S
O239   Zn310   1.945   .     S
O239   Zn622   1.941   1_455 S
O239   Zn314   1.945   .     S
O240   Zn304   1.931   .     S
O241   Zn316   1.933   .     S
O242   Zn302   1.933   .     S
O243   Zn307   1.931   .     S
O244   Zn308   1.931   .     S
O245   Zn305   1.933   .     S
O246   Zn306   1.933   .     S
O247   Zn627   1.931   .     S
O248   Zn310   1.931   .     S
O249   Zn945   1.933   .     S
O250   Zn632   1.941   1_455 S
O250   Zn315   1.945   .     S
O250   Zn305   1.941   .     S
O250   Zn311   1.945   .     S
O251   Zn312   1.933   .     S
O252   Zn315   1.931   .     S
O253   Zn630   1.931   .     S
O254   Zn309   1.933   .     S
O255   Zn933   1.933   .     S
O256   Zn626   1.931   .     S
O257   Zn311   1.931   .     S
O258   Zn301   1.933   .     S
O259   Zn941   1.933   .     S
O260   Zn314   1.931   .     S
O261   Zn308   1.942   .     S
O261   C721    1.281   .     S
O262   Zn631   1.931   .     S
O263   Zn944   1.933   .     S
O264   Zn313   1.933   .     S
O272   Zn307   1.942   .     S
O283   Zn302   1.941   .     S
O294   Zn316   1.941   .     S
O294   C408    1.279   .     S
O300   Zn304   1.942   .     S
Zn301  O887    1.933   1_545 S
Zn303  O860    1.945   .     S
Zn306  O555    1.941   .     S
Zn308  O849    1.945   .     S
Zn309  O891    1.933   1_545 S
Zn310  O572    1.931   1_455 S
Zn311  O563    1.931   1_455 S
Zn312  O895    1.933   1_545 S
Zn313  O881    1.933   1_545 S
Zn314  O569    1.931   1_455 S
Zn315  O578    1.931   1_455 S
Zn316  O566    1.941   .     S
C317   C378    1.391   .     A
C317   H469    1.083   .     S
C317   C396    1.405   .     A
C318   H470    1.083   .     S
C318   C401    1.405   .     A
C318   C388    1.391   .     A
C319   C444    1.413   .     A
C319   C415    1.455   .     S
C319   C451    1.412   .     A
C320   C443    1.412   .     A
C320   C454    1.413   .     A
C320   C416    1.455   .     S
C321   C442    1.412   .     A
C321   C417    1.455   .     S
C321   C453    1.413   .     A
C322   C441    1.413   .     A
C322   C418    1.455   .     S
C322   C456    1.412   .     A
C323   C419    1.455   .     S
C323   C440    1.413   .     A
C323   C455    1.412   .     A
C324   C439    1.412   .     A
C324   C459    1.413   .     A
C324   C429    1.455   .     S
C325   C430    1.455   .     S
C325   C438    1.412   .     A
C325   C457    1.413   .     A
C326   C422    1.455   .     S
C326   C437    1.413   .     A
C326   C461    1.412   .     A
C327   C435    1.413   .     A
C327   C460    1.412   .     A
C327   C423    1.455   .     S
C328   C424    1.455   .     S
C328   C463    1.413   .     A
C328   C434    1.412   .     A
C329   C389    1.392   .     A
C329   H471    1.083   .     S
C329   C1034   1.405   .     S
C330   C433    1.412   .     A
C330   C426    1.455   .     S
C330   C462    1.413   .     A
C331   C465    1.412   .     A
C331   C432    1.413   .     A
C331   C427    1.455   .     S
C332   C431    1.413   .     A
C332   C428    1.455   .     S
C332   C464    1.412   .     A
C333   C1015   1.402   1_545 A
C333   C378    1.402   .     S
C333   C412    1.464   .     S
C334   C379    1.402   .     A
C334   C1016   1.402   1_545 S
C334   C411    1.464   .     S
C335   C380    1.402   .     S
C335   C410    1.464   .     S
C336   C382    1.402   .     A
C336   C409    1.464   .     S
C337   C408    1.464   .     S
C337   C391    1.402   .     A
C338   C407    1.464   .     S
C338   C388    1.402   .     A
C339   C406    1.464   .     S
C339   C394    1.402   .     A
C339   C1021   1.402   1_545 S
C340   H472    1.083   .     S
C340   C404    1.405   .     A
C340   C390    1.392   .     A
C341   C390    1.402   .     A
C341   C405    1.464   .     S
C341   C1027   1.402   1_545 S
C342   H495    1.084   .     S
C342   C431    1.493   .     S
C342   O581    1.221   .     D
C343   H496    1.084   .     S
C343   O582    1.221   .     D
C343   C432    1.493   .     S
C344   H497    1.085   .     S
C344   O583    1.221   .     D
C344   C433    1.492   .     S
C345   O584    1.221   .     D
C345   H498    1.085   .     S
C345   C434    1.492   .     S
C346   O585    1.221   .     D
C346   H499    1.084   .     S
C346   C435    1.493   .     S
C347   C437    1.493   .     S
C347   O586    1.221   .     D
C347   H500    1.084   .     S
C348   O587    1.221   .     D
C348   H501    1.085   .     S
C348   C438    1.492   .     S
C349   O589    1.221   .     D
C349   H503    1.085   .     S
C349   C439    1.492   .     S
C350   C440    1.493   .     S
C350   O590    1.221   .     D
C350   H504    1.084   .     S
C351   H473    1.083   .     S
C351   C391    1.391   .     A
C351   C400    1.405   .     S
C352   C441    1.493   .     S
C352   O591    1.221   .     D
C352   H505    1.084   .     S
C353   H506    1.085   .     S
C353   C442    1.492   .     S
C353   O592    1.221   .     D
C354   O593    1.221   .     D
C354   H507    1.085   .     S
C354   C443    1.492   .     S
C355   C444    1.493   .     S
C355   O594    1.221   .     D
C355   H508    1.084   .     S
C356   C445    1.493   .     S
C356   O595    1.221   .     D
C356   H509    1.084   .     S
C357   O596    1.221   .     D
C357   C446    1.492   .     S
C357   H510    1.085   .     S
C358   H511    1.085   .     S
C358   O597    1.221   .     D
C358   C448    1.492   .     S
C359   C449    1.493   .     S
C359   H512    1.084   .     S
C359   O598    1.221   .     D
C360   H514    1.084   .     S
C360   C450    1.493   .     S
C360   O600    1.221   .     D
C361   C451    1.492   .     S
C361   H515    1.085   .     S
C361   O601    1.221   .     D
C362   C393    1.391   .     A
C362   H474    1.083   .     S
C362   C85     1.405   1_655 S
C363   C452    1.492   .     S
C363   O602    1.221   .     D
C363   H516    1.085   .     S
C364   O603    1.221   .     D
C364   C453    1.493   .     S
C364   H517    1.084   .     S
C365   O604    1.221   .     D
C365   C454    1.493   .     S
C365   H518    1.084   .     S
C366   O605    1.221   .     D
C366   H519    1.085   .     S
C366   C455    1.492   .     S
C367   C456    1.492   .     S
C367   O606    1.221   .     D
C367   H520    1.085   .     S
C368   H521    1.084   .     S
C368   O607    1.221   .     D
C368   C457    1.493   .     S
C369   H522    1.084   .     S
C369   C459    1.493   .     S
C369   O608    1.221   .     D
C370   C460    1.492   .     S
C370   O609    1.221   .     D
C370   H523    1.085   .     S
C371   C461    1.492   .     S
C371   H525    1.085   .     S
C371   O611    1.221   .     D
C372   O612    1.221   .     D
C372   H526    1.084   .     S
C372   C462    1.493   .     S
C373   H475    1.083   .     S
C373   C394    1.392   .     A
C373   C402    1.405   .     A
C374   C463    1.493   .     S
C374   H527    1.084   .     S
C374   O613    1.221   .     D
C375   O614    1.221   .     D
C375   C464    1.492   .     S
C375   H528    1.085   .     S
C376   O615    1.221   .     D
C376   H529    1.085   .     S
C376   C465    1.492   .     S
C377   H476    1.083   .     S
C377   C395    1.392   .     A
C377   C1036   1.405   .     S
C378   H477    1.083   .     S
C379   C381    1.391   .     A
C379   H478    1.083   .     S
C380   H479    1.083   .     S
C380   C392    1.392   .     A
C381   C397    1.405   .     A
C381   H480    1.083   .     S
C382   H481    1.083   .     S
C382   C403    1.392   .     A
C383   C965    1.402   .     A
C383   C414    1.391   .     A
C383   H482    1.083   .     S
C384   C425    1.391   .     A
C384   H483    1.083   .     S
C384   C966    1.402   .     S
C385   H484    1.083   .     S
C385   C19     1.402   1_655 A
C385   C436    1.392   .     A
C386   H485    1.083   .     S
C386   C447    1.392   .     A
C386   C20     1.402   1_655 S
C387   H486    1.083   .     S
C387   C458    1.391   .     A
C387   C21     1.402   1_655 S
C388   H487    1.083   .     S
C389   H488    1.083   .     S
C389   C971    1.402   .     S
C390   H489    1.083   .     S
C391   H490    1.083   .     S
C392   H491    1.083   .     S
C392   C398    1.405   .     S
C393   H492    1.083   .     S
C393   C22     1.402   1_655 S
C394   H493    1.083   .     S
C395   H494    1.083   .     S
C395   C973    1.402   .     S
C396   C397    1.474   1_554 S
C396   C1046   1.405   1_545 S
C397   C396    1.474   1_556 S
C397   C1057   1.405   1_545 S
C398   C399    1.474   1_554 S
C399   C403    1.405   .     A
C399   C398    1.474   1_556 S
C400   C401    1.474   .     S
C402   C404    1.474   .     S
C402   C961    1.405   1_545 S
C403   H502    1.083   .     S
C404   C1009   1.405   1_545 S
C405   O616    1.281   .     A
C405   O1209   1.281   1_545 S
C406   O588    1.281   .     A
C406   O1166   1.281   1_545 S
C407   O599    1.279   .     A
C408   O536    1.279   .     A
C409   O541    1.281   .     A
C409   O537    1.281   .     S
C410   O542    1.281   .     A
C410   O538    1.281   .     S
C411   O539    1.279   .     S
C411   O543    1.279   .     S
C412   O545    1.279   .     A
C412   O540    1.279   .     A
C413   C468    1.455   .     S
C413   O574    1.275   .     A
C413   O546    1.277   .     A
C414   H513    1.083   .     S
C414   C1028   1.405   .     S
C415   O547    1.277   .     A
C415   O575    1.275   .     A
C416   O572    1.277   .     A
C416   O548    1.275   .     A
C417   O573    1.277   .     A
C417   O549    1.275   .     A
C418   O550    1.277   .     A
C418   O579    1.275   .     A
C419   O551    1.277   .     A
C419   O580    1.275   .     A
C420   C466    1.455   .     S
C420   O552    1.275   .     A
C420   O576    1.277   .     A
C421   C467    1.455   .     S
C421   O553    1.275   .     A
C421   O578    1.277   .     A
C422   O554    1.277   .     A
C422   O565    1.275   .     A
C423   O556    1.277   .     A
C423   O567    1.275   .     A
C424   O557    1.275   .     A
C424   O563    1.277   .     A
C425   H524    1.083   .     S
C425   C1029   1.405   .     S
C426   O558    1.275   .     A
C426   O564    1.277   .     A
C427   O559    1.277   .     A
C427   O570    1.275   .     A
C428   O571    1.275   .     A
C428   O560    1.277   .     A
C429   O568    1.277   .     A
C429   O561    1.275   .     A
C430   O569    1.277   .     A
C430   O562    1.275   .     A
C431   C448    1.410   .     A
C432   C446    1.410   .     A
C433   C445    1.410   .     A
C434   C444    1.410   .     A
C435   C443    1.410   .     A
C436   C82     1.405   1_655 A
C436   H530    1.083   .     S
C437   C442    1.410   .     A
C438   C441    1.410   .     A
C439   C440    1.410   .     A
C445   C468    1.413   .     A
C446   C467    1.412   .     A
C447   H531    1.083   .     S
C447   C83     1.405   1_655 S
C448   C466    1.412   .     A
C449   C467    1.413   .     A
C449   C465    1.410   .     A
C450   C466    1.413   .     A
C450   C464    1.410   .     A
C451   C463    1.410   .     A
C452   C468    1.412   .     A
C452   C462    1.410   .     A
C453   C461    1.410   .     A
C454   C460    1.410   .     A
C455   C459    1.410   .     A
C456   C457    1.410   .     A
C458   C84     1.405   1_655 A
C458   H532    1.083   .     S
O533   Zn620   1.945   .     S
O533   Zn617   1.941   .     S
O533   Zn628   1.941   .     S
O533   Zn1256  1.945   1_545 S
O534   Zn619   1.942   .     S
O534   C1038   1.281   .     S
O535   Zn622   1.941   .     S
O535   C91     1.279   1_655 S
O536   Zn621   1.941   .     S
O537   Zn631   1.942   .     S
O538   Zn630   1.942   .     S
O539   Zn625   1.941   .     S
O540   Zn617   1.941   .     S
O541   Zn627   1.942   .     S
O542   Zn626   1.942   .     S
O543   Zn629   1.941   .     S
O544   Zn623   1.945   .     S
O544   Zn625   1.941   .     S
O544   Zn629   1.941   .     S
O544   Zn1251  1.945   1_545 S
O545   Zn628   1.941   .     S
O546   Zn620   1.931   .     S
O547   Zn619   1.931   .     S
O548   Zn622   1.933   .     S
O549   Zn621   1.933   .     S
O550   Zn624   1.931   .     S
O551   Zn623   1.931   .     S
O552   Zn618   1.933   .     S
O553   Zn632   1.933   .     S
O554   Zn619   1.931   .     S
O555   Zn618   1.941   .     S
O555   Zn626   1.945   .     S
O555   Zn630   1.945   .     S
O556   Zn620   1.931   .     S
O557   Zn632   1.933   .     S
O558   Zn618   1.933   .     S
O559   Zn623   1.931   .     S
O560   Zn624   1.931   .     S
O561   Zn621   1.933   .     S
O562   Zn622   1.933   .     S
O563   Zn311   1.931   1_655 S
O564   Zn626   1.931   .     S
O565   Zn1261  1.933   .     S
O566   Zn631   1.945   .     S
O566   Zn621   1.941   .     S
O566   Zn627   1.945   .     S
O567   Zn628   1.933   .     S
O568   Zn631   1.931   .     S
O569   Zn314   1.931   1_655 S
O570   Zn625   1.933   .     S
O571   Zn1249  1.933   .     S
O572   Zn310   1.931   1_655 S
O573   Zn627   1.931   .     S
O574   Zn617   1.933   .     S
O575   Zn1257  1.933   .     S
O576   Zn630   1.931   .     S
O577   Zn624   1.942   .     S
O577   C1037   1.281   .     S
O578   Zn315   1.931   1_655 S
O579   Zn1260  1.933   .     S
O580   Zn629   1.933   .     S
O588   Zn623   1.942   .     S
O599   Zn618   1.941   .     S
O610   Zn632   1.941   .     S
O610   C92     1.279   1_655 S
O616   Zn620   1.942   .     S
Zn617  O1203   1.933   1_545 S
Zn619  O1176   1.945   .     S
Zn622  O239    1.941   1_655 S
Zn624  O1165   1.945   .     S
Zn625  O1207   1.933   1_545 S
Zn628  O1211   1.933   1_545 S
Zn629  O1197   1.933   1_545 S
Zn632  O250    1.941   1_655 S
C633   C694    1.391   .     A
C633   H785    1.083   .     S
C633   C712    1.405   .     A
C634   H786    1.083   .     S
C634   C717    1.405   .     A
C634   C704    1.391   .     A
C635   C760    1.413   .     A
C635   C731    1.455   .     S
C635   C767    1.412   .     A
C636   C759    1.412   .     A
C636   C770    1.413   .     A
C636   C732    1.455   .     S
C637   C758    1.412   .     A
C637   C733    1.455   .     S
C637   C769    1.413   .     A
C638   C757    1.413   .     A
C638   C734    1.455   .     S
C638   C772    1.412   .     A
C639   C735    1.455   .     S
C639   C756    1.413   .     A
C639   C771    1.412   .     A
C640   C755    1.412   .     A
C640   C775    1.413   .     A
C640   C745    1.455   .     S
C641   C746    1.455   .     S
C641   C754    1.412   .     A
C641   C773    1.413   .     A
C642   C738    1.455   .     S
C642   C753    1.413   .     A
C642   C777    1.412   .     A
C643   C751    1.413   .     A
C643   C776    1.412   .     A
C643   C739    1.455   .     S
C644   C740    1.455   .     S
C644   C779    1.413   .     A
C644   C750    1.412   .     A
C645   C705    1.392   .     A
C645   H787    1.083   .     S
C645   C86     1.405   1_565 S
C646   C749    1.412   .     A
C646   C742    1.455   .     S
C646   C778    1.413   .     A
C647   C781    1.412   .     A
C647   C748    1.413   .     A
C647   C743    1.455   .     S
C648   C747    1.413   .     A
C648   C744    1.455   .     S
C648   C780    1.412   .     A
C649   C694    1.402   .     S
C649   C728    1.464   .     S
C650   C695    1.402   .     A
C650   C727    1.464   .     S
C651   C1017   1.402   1_455 A
C651   C696    1.402   .     S
C651   C726    1.464   .     S
C652   C698    1.402   .     A
C652   C1018   1.402   1_455 S
C652   C725    1.464   .     S
C653   C724    1.464   .     S
C653   C707    1.402   .     A
C653   C1019   1.402   1_455 S
C654   C723    1.464   .     S
C654   C704    1.402   .     A
C654   C1025   1.402   1_455 S
C655   C722    1.464   .     S
C655   C710    1.402   .     A
C656   H788    1.083   .     S
C656   C720    1.405   .     A
C656   C706    1.392   .     A
C657   C706    1.402   .     A
C657   C721    1.464   .     S
C658   H811    1.084   .     S
C658   C747    1.493   .     S
C658   O897    1.221   .     D
C659   H812    1.084   .     S
C659   O898    1.221   .     D
C659   C748    1.493   .     S
C660   H813    1.085   .     S
C660   O899    1.221   .     D
C660   C749    1.492   .     S
C661   O900    1.221   .     D
C661   H814    1.085   .     S
C661   C750    1.492   .     S
C662   O901    1.221   .     D
C662   H815    1.084   .     S
C662   C751    1.493   .     S
C663   C753    1.493   .     S
C663   O902    1.221   .     D
C663   H816    1.084   .     S
C664   O903    1.221   .     D
C664   H817    1.085   .     S
C664   C754    1.492   .     S
C665   O905    1.221   .     D
C665   H819    1.085   .     S
C665   C755    1.492   .     S
C666   C756    1.493   .     S
C666   O906    1.221   .     D
C666   H820    1.084   .     S
C667   H789    1.083   .     S
C667   C707    1.391   .     A
C667   C716    1.405   .     S
C668   C757    1.493   .     S
C668   O907    1.221   .     D
C668   H821    1.084   .     S
C669   H822    1.085   .     S
C669   C758    1.492   .     S
C669   O908    1.221   .     D
C670   O909    1.221   .     D
C670   H823    1.085   .     S
C670   C759    1.492   .     S
C671   C760    1.493   .     S
C671   O910    1.221   .     D
C671   H824    1.084   .     S
C672   C761    1.493   .     S
C672   O911    1.221   .     D
C672   H825    1.084   .     S
C673   O912    1.221   .     D
C673   C762    1.492   .     S
C673   H826    1.085   .     S
C674   H827    1.085   .     S
C674   O913    1.221   .     D
C674   C764    1.492   .     S
C675   C765    1.493   .     S
C675   H828    1.084   .     S
C675   O914    1.221   .     D
C676   H830    1.084   .     S
C676   C766    1.493   .     S
C676   O916    1.221   .     D
C677   C767    1.492   .     S
C677   H831    1.085   .     S
C677   O917    1.221   .     D
C678   C709    1.391   .     A
C678   H790    1.083   .     S
C678   C1033   1.405   .     S
C679   C768    1.492   .     S
C679   O918    1.221   .     D
C679   H832    1.085   .     S
C680   O919    1.221   .     D
C680   C769    1.493   .     S
C680   H833    1.084   .     S
C681   O920    1.221   .     D
C681   C770    1.493   .     S
C681   H834    1.084   .     S
C682   O921    1.221   .     D
C682   H835    1.085   .     S
C682   C771    1.492   .     S
C683   C772    1.492   .     S
C683   O922    1.221   .     D
C683   H836    1.085   .     S
C684   H837    1.084   .     S
C684   O923    1.221   .     D
C684   C773    1.493   .     S
C685   H838    1.084   .     S
C685   C775    1.493   .     S
C685   O924    1.221   .     D
C686   C776    1.492   .     S
C686   O925    1.221   .     D
C686   H839    1.085   .     S
C687   C777    1.492   .     S
C687   H841    1.085   .     S
C687   O927    1.221   .     D
C688   O928    1.221   .     D
C688   H842    1.084   .     S
C688   C778    1.493   .     S
C689   H791    1.083   .     S
C689   C710    1.392   .     A
C689   C718    1.405   .     A
C690   C779    1.493   .     S
C690   H843    1.084   .     S
C690   O929    1.221   .     D
C691   O930    1.221   .     D
C691   C780    1.492   .     S
C691   H844    1.085   .     S
C692   O931    1.221   .     D
C692   H845    1.085   .     S
C692   C781    1.492   .     S
C693   H792    1.083   .     S
C693   C711    1.392   .     A
C693   C88     1.405   1_565 S
C694   H793    1.083   .     S
C695   C697    1.391   .     A
C695   H794    1.083   .     S
C696   H795    1.083   .     S
C696   C708    1.392   .     A
C697   C713    1.405   .     A
C697   H796    1.083   .     S
C698   H797    1.083   .     S
C698   C719    1.392   .     A
C699   C17     1.402   1_565 A
C699   C730    1.391   .     A
C699   H798    1.083   .     S
C700   C741    1.391   .     A
C700   H799    1.083   .     S
C700   C18     1.402   1_565 S
C701   H800    1.083   .     S
C701   C967    1.402   .     A
C701   C752    1.392   .     A
C702   H801    1.083   .     S
C702   C763    1.392   .     A
C702   C968    1.402   .     S
C703   H802    1.083   .     S
C703   C774    1.391   .     A
C703   C969    1.402   .     S
C704   H803    1.083   .     S
C705   H804    1.083   .     S
C705   C23     1.402   1_565 S
C706   H805    1.083   .     S
C707   H806    1.083   .     S
C708   H807    1.083   .     S
C708   C714    1.405   .     S
C709   H808    1.083   .     S
C709   C970    1.402   .     S
C710   H809    1.083   .     S
C711   H810    1.083   .     S
C711   C25     1.402   1_565 S
C712   C713    1.474   1_554 S
C713   C712    1.474   1_556 S
C714   C1068   1.405   1_455 A
C714   C715    1.474   1_554 S
C715   C719    1.405   .     A
C715   C714    1.474   1_556 S
C715   C1079   1.405   1_455 S
C716   C1090   1.405   1_455 A
C716   C717    1.474   .     S
C717   C994    1.405   1_455 S
C718   C720    1.474   .     S
C719   H818    1.083   .     S
C721   O932    1.281   .     A
C722   O904    1.281   .     A
C723   O915    1.279   .     A
C723   O1167   1.279   1_455 S
C724   O852    1.279   .     A
C724   O1242   1.279   1_455 S
C725   O857    1.281   .     A
C725   O853    1.281   .     S
C726   O858    1.281   .     A
C726   O854    1.281   .     S
C727   O855    1.279   .     S
C727   O859    1.279   .     S
C728   O861    1.279   .     A
C728   O856    1.279   .     A
C729   C784    1.455   .     S
C729   O890    1.275   .     A
C729   O862    1.277   .     A
C730   H829    1.083   .     S
C730   C80     1.405   1_565 S
C731   O863    1.277   .     A
C731   O891    1.275   .     A
C732   O888    1.277   .     A
C732   O864    1.275   .     A
C733   O889    1.277   .     A
C733   O865    1.275   .     A
C734   O866    1.277   .     A
C734   O895    1.275   .     A
C735   O867    1.277   .     A
C735   O896    1.275   .     A
C736   C782    1.455   .     S
C736   O868    1.275   .     A
C736   O892    1.277   .     A
C737   C783    1.455   .     S
C737   O869    1.275   .     A
C737   O894    1.277   .     A
C738   O870    1.277   .     A
C738   O881    1.275   .     A
C739   O872    1.277   .     A
C739   O883    1.275   .     A
C740   O873    1.275   .     A
C740   O879    1.277   .     A
C741   H840    1.083   .     S
C741   C81     1.405   1_565 S
C742   O874    1.275   .     A
C742   O880    1.277   .     A
C743   O875    1.277   .     A
C743   O886    1.275   .     A
C744   O887    1.275   .     A
C744   O876    1.277   .     A
C745   O884    1.277   .     A
C745   O877    1.275   .     A
C746   O885    1.277   .     A
C746   O878    1.275   .     A
C747   C764    1.410   .     A
C748   C762    1.410   .     A
C749   C761    1.410   .     A
C750   C760    1.410   .     A
C751   C759    1.410   .     A
C752   C1030   1.405   .     A
C752   H846    1.083   .     S
C753   C758    1.410   .     A
C754   C757    1.410   .     A
C755   C756    1.410   .     A
C761   C784    1.413   .     A
C762   C783    1.412   .     A
C763   H847    1.083   .     S
C763   C1031   1.405   .     S
C764   C782    1.412   .     A
C765   C783    1.413   .     A
C765   C781    1.410   .     A
C766   C782    1.413   .     A
C766   C780    1.410   .     A
C767   C779    1.410   .     A
C768   C784    1.412   .     A
C768   C778    1.410   .     A
C769   C777    1.410   .     A
C770   C776    1.410   .     A
C771   C775    1.410   .     A
C772   C773    1.410   .     A
C774   C1032   1.405   .     A
C774   H848    1.083   .     S
O849   Zn936   1.945   .     S
O849   Zn933   1.941   .     S
O849   Zn944   1.941   .     S
O850   Zn935   1.942   .     S
O850   C90     1.281   1_565 S
O851   Zn938   1.941   .     S
O851   C1039   1.279   .     S
O852   Zn937   1.941   .     S
O853   Zn947   1.942   .     S
O854   Zn946   1.942   .     S
O855   Zn941   1.941   .     S
O856   Zn933   1.941   .     S
O857   Zn943   1.942   .     S
O858   Zn942   1.942   .     S
O859   Zn945   1.941   .     S
O860   Zn939   1.945   .     S
O860   Zn941   1.941   .     S
O860   Zn945   1.941   .     S
O861   Zn944   1.941   .     S
O862   Zn936   1.931   .     S
O863   Zn935   1.931   .     S
O864   Zn938   1.933   .     S
O865   Zn937   1.933   .     S
O866   Zn940   1.931   .     S
O867   Zn939   1.931   .     S
O868   Zn934   1.933   .     S
O869   Zn948   1.933   .     S
O870   Zn935   1.931   .     S
O871   Zn934   1.941   .     S
O871   Zn942   1.945   .     S
O871   Zn1254  1.941   1_455 S
O871   Zn946   1.945   .     S
O872   Zn936   1.931   .     S
O873   Zn948   1.933   .     S
O874   Zn934   1.933   .     S
O875   Zn939   1.931   .     S
O876   Zn940   1.931   .     S
O877   Zn937   1.933   .     S
O878   Zn938   1.933   .     S
O879   Zn1259  1.931   .     S
O880   Zn942   1.931   .     S
O881   Zn313   1.933   1_565 S
O882   Zn1264  1.941   1_455 S
O882   Zn947   1.945   .     S
O882   Zn937   1.941   .     S
O882   Zn943   1.945   .     S
O883   Zn944   1.933   .     S
O884   Zn947   1.931   .     S
O885   Zn1262  1.931   .     S
O886   Zn941   1.933   .     S
O887   Zn301   1.933   1_565 S
O888   Zn1258  1.931   .     S
O889   Zn943   1.931   .     S
O890   Zn933   1.933   .     S
O891   Zn309   1.933   1_565 S
O892   Zn946   1.931   .     S
O893   Zn940   1.942   .     S
O893   C89     1.281   1_565 S
O894   Zn1263  1.931   .     S
O895   Zn312   1.933   1_565 S
O896   Zn945   1.933   .     S
O904   Zn939   1.942   .     S
O915   Zn934   1.941   .     S
O926   Zn948   1.941   .     S
O926   C1040   1.279   .     S
O932   Zn936   1.942   .     S
Zn935  O228    1.945   1_565 S
Zn938  O1187   1.941   .     S
Zn940  O217    1.945   1_565 S
Zn942  O1204   1.931   1_455 S
Zn943  O1195   1.931   1_455 S
Zn946  O1201   1.931   1_455 S
Zn947  O1210   1.931   1_455 S
Zn948  O1198   1.941   .     S
C949   C1010   1.391   .     A
C949   H1101   1.083   .     S
C949   C1028   1.405   .     A
C950   H1102   1.083   .     S
C950   C1033   1.405   .     A
C950   C1020   1.391   .     A
C951   C1076   1.413   .     A
C951   C1047   1.455   .     S
C951   C1083   1.412   .     A
C952   C1075   1.412   .     A
C952   C1086   1.413   .     A
C952   C1048   1.455   .     S
C953   C1074   1.412   .     A
C953   C1049   1.455   .     S
C953   C1085   1.413   .     A
C954   C1073   1.413   .     A
C954   C1050   1.455   .     S
C954   C1088   1.412   .     A
C955   C1051   1.455   .     S
C955   C1072   1.413   .     A
C955   C1087   1.412   .     A
C956   C1071   1.412   .     A
C956   C1091   1.413   .     A
C956   C1061   1.455   .     S
C957   C1062   1.455   .     S
C957   C1070   1.412   .     A
C957   C1089   1.413   .     A
C958   C1054   1.455   .     S
C958   C1069   1.413   .     A
C958   C1093   1.412   .     A
C959   C1067   1.413   .     A
C959   C1092   1.412   .     A
C959   C1055   1.455   .     S
C960   C1056   1.455   .     S
C960   C1095   1.413   .     A
C960   C1066   1.412   .     A
C961   C1021   1.392   .     A
C961   H1103   1.083   .     S
C961   C402    1.405   1_565 S
C962   C1065   1.412   .     A
C962   C1058   1.455   .     S
C962   C1094   1.413   .     A
C963   C1097   1.412   .     A
C963   C1064   1.413   .     A
C963   C1059   1.455   .     S
C964   C1063   1.413   .     A
C964   C1060   1.455   .     S
C964   C1096   1.412   .     A
C965   C1010   1.402   .     S
C965   C1044   1.464   .     S
C966   C1011   1.402   .     A
C966   C1043   1.464   .     S
C967   C1012   1.402   .     S
C967   C1042   1.464   .     S
C968   C1014   1.402   .     A
C968   C1041   1.464   .     S
C969   C1040   1.464   .     S
C969   C1023   1.402   .     A
C970   C1039   1.464   .     S
C970   C1020   1.402   .     A
C971   C1038   1.464   .     S
C971   C1026   1.402   .     A
C972   H1104   1.083   .     S
C972   C1036   1.405   .     A
C972   C1022   1.392   .     A
C973   C1022   1.402   .     A
C973   C1037   1.464   .     S
C974   H1127   1.084   .     S
C974   C1063   1.493   .     S
C974   O1213   1.221   .     D
C975   H1128   1.084   .     S
C975   O1214   1.221   .     D
C975   C1064   1.493   .     S
C976   H1129   1.085   .     S
C976   O1215   1.221   .     D
C976   C1065   1.492   .     S
C977   O1216   1.221   .     D
C977   H1130   1.085   .     S
C977   C1066   1.492   .     S
C978   O1217   1.221   .     D
C978   H1131   1.084   .     S
C978   C1067   1.493   .     S
C979   C1069   1.493   .     S
C979   O1218   1.221   .     D
C979   H1132   1.084   .     S
C980   O1219   1.221   .     D
C980   H1133   1.085   .     S
C980   C1070   1.492   .     S
C981   O1221   1.221   .     D
C981   H1135   1.085   .     S
C981   C1071   1.492   .     S
C982   C1072   1.493   .     S
C982   O1222   1.221   .     D
C982   H1136   1.084   .     S
C983   H1105   1.083   .     S
C983   C1023   1.391   .     A
C983   C1032   1.405   .     S
C984   C1073   1.493   .     S
C984   O1223   1.221   .     D
C984   H1137   1.084   .     S
C985   H1138   1.085   .     S
C985   C1074   1.492   .     S
C985   O1224   1.221   .     D
C986   O1225   1.221   .     D
C986   H1139   1.085   .     S
C986   C1075   1.492   .     S
C987   C1076   1.493   .     S
C987   O1226   1.221   .     D
C987   H1140   1.084   .     S
C988   C1077   1.493   .     S
C988   O1227   1.221   .     D
C988   H1141   1.084   .     S
C989   O1228   1.221   .     D
C989   C1078   1.492   .     S
C989   H1142   1.085   .     S
C990   H1143   1.085   .     S
C990   O1229   1.221   .     D
C990   C1080   1.492   .     S
C991   C1081   1.493   .     S
C991   H1144   1.084   .     S
C991   O1230   1.221   .     D
C992   H1146   1.084   .     S
C992   C1082   1.493   .     S
C992   O1232   1.221   .     D
C993   C1083   1.492   .     S
C993   H1147   1.085   .     S
C993   O1233   1.221   .     D
C994   C1025   1.391   .     A
C994   H1106   1.083   .     S
C994   C717    1.405   1_655 S
C995   C1084   1.492   .     S
C995   O1234   1.221   .     D
C995   H1148   1.085   .     S
C996   O1235   1.221   .     D
C996   C1085   1.493   .     S
C996   H1149   1.084   .     S
C997   O1236   1.221   .     D
C997   C1086   1.493   .     S
C997   H1150   1.084   .     S
C998   O1237   1.221   .     D
C998   H1151   1.085   .     S
C998   C1087   1.492   .     S
C999   C1088   1.492   .     S
C999   O1238   1.221   .     D
C999   H1152   1.085   .     S
C1000  H1153   1.084   .     S
C1000  O1239   1.221   .     D
C1000  C1089   1.493   .     S
C1001  H1154   1.084   .     S
C1001  C1091   1.493   .     S
C1001  O1240   1.221   .     D
C1002  C1092   1.492   .     S
C1002  O1241   1.221   .     D
C1002  H1155   1.085   .     S
C1003  C1093   1.492   .     S
C1003  H1157   1.085   .     S
C1003  O1243   1.221   .     D
C1004  O1244   1.221   .     D
C1004  H1158   1.084   .     S
C1004  C1094   1.493   .     S
C1005  H1107   1.083   .     S
C1005  C1026   1.392   .     A
C1005  C1034   1.405   .     A
C1006  C1095   1.493   .     S
C1006  H1159   1.084   .     S
C1006  O1245   1.221   .     D
C1007  O1246   1.221   .     D
C1007  C1096   1.492   .     S
C1007  H1160   1.085   .     S
C1008  O1247   1.221   .     D
C1008  H1161   1.085   .     S
C1008  C1097   1.492   .     S
C1009  H1108   1.083   .     S
C1009  C1027   1.392   .     A
C1009  C404    1.405   1_565 S
C1010  H1109   1.083   .     S
C1011  C1013   1.391   .     A
C1011  H1110   1.083   .     S
C1012  H1111   1.083   .     S
C1012  C1024   1.392   .     A
C1013  C1029   1.405   .     A
C1013  H1112   1.083   .     S
C1014  H1113   1.083   .     S
C1014  C1035   1.392   .     A
C1015  C333    1.402   1_565 A
C1015  C1046   1.391   .     A
C1015  H1114   1.083   .     S
C1016  C1057   1.391   .     A
C1016  H1115   1.083   .     S
C1016  C334    1.402   1_565 S
C1017  H1116   1.083   .     S
C1017  C651    1.402   1_655 A
C1017  C1068   1.392   .     A
C1018  H1117   1.083   .     S
C1018  C1079   1.392   .     A
C1018  C652    1.402   1_655 S
C1019  H1118   1.083   .     S
C1019  C1090   1.391   .     A
C1019  C653    1.402   1_655 S
C1020  H1119   1.083   .     S
C1021  H1120   1.083   .     S
C1021  C339    1.402   1_565 S
C1022  H1121   1.083   .     S
C1023  H1122   1.083   .     S
C1024  H1123   1.083   .     S
C1024  C1030   1.405   .     S
C1025  H1124   1.083   .     S
C1025  C654    1.402   1_655 S
C1026  H1125   1.083   .     S
C1027  H1126   1.083   .     S
C1027  C341    1.402   1_565 S
C1028  C1029   1.474   1_554 S
C1029  C1028   1.474   1_556 S
C1030  C1031   1.474   1_554 S
C1031  C1035   1.405   .     A
C1031  C1030   1.474   1_556 S
C1032  C1033   1.474   .     S
C1034  C1036   1.474   .     S
C1035  H1134   1.083   .     S
C1037  O1248   1.281   .     A
C1038  O1220   1.281   .     A
C1039  O1231   1.279   .     A
C1040  O1168   1.279   .     A
C1041  O1173   1.281   .     A
C1041  O1169   1.281   .     S
C1042  O1174   1.281   .     A
C1042  O1170   1.281   .     S
C1043  O1171   1.279   .     S
C1043  O1175   1.279   .     S
C1044  O1177   1.279   .     A
C1044  O1172   1.279   .     A
C1045  C1100   1.455   .     S
C1045  O1206   1.275   .     A
C1045  O1178   1.277   .     A
C1046  H1145   1.083   .     S
C1046  C396    1.405   1_565 S
C1047  O1179   1.277   .     A
C1047  O1207   1.275   .     A
C1048  O1204   1.277   .     A
C1048  O1180   1.275   .     A
C1049  O1205   1.277   .     A
C1049  O1181   1.275   .     A
C1050  O1182   1.277   .     A
C1050  O1211   1.275   .     A
C1051  O1183   1.277   .     A
C1051  O1212   1.275   .     A
C1052  C1098   1.455   .     S
C1052  O1184   1.275   .     A
C1052  O1208   1.277   .     A
C1053  C1099   1.455   .     S
C1053  O1185   1.275   .     A
C1053  O1210   1.277   .     A
C1054  O1186   1.277   .     A
C1054  O1197   1.275   .     A
C1055  O1188   1.277   .     A
C1055  O1199   1.275   .     A
C1056  O1189   1.275   .     A
C1056  O1195   1.277   .     A
C1057  H1156   1.083   .     S
C1057  C397    1.405   1_565 S
C1058  O1190   1.275   .     A
C1058  O1196   1.277   .     A
C1059  O1191   1.277   .     A
C1059  O1202   1.275   .     A
C1060  O1203   1.275   .     A
C1060  O1192   1.277   .     A
C1061  O1200   1.277   .     A
C1061  O1193   1.275   .     A
C1062  O1201   1.277   .     A
C1062  O1194   1.275   .     A
C1063  C1080   1.410   .     A
C1064  C1078   1.410   .     A
C1065  C1077   1.410   .     A
C1066  C1076   1.410   .     A
C1067  C1075   1.410   .     A
C1068  C714    1.405   1_655 A
C1068  H1162   1.083   .     S
C1069  C1074   1.410   .     A
C1070  C1073   1.410   .     A
C1071  C1072   1.410   .     A
C1077  C1100   1.413   .     A
C1078  C1099   1.412   .     A
C1079  H1163   1.083   .     S
C1079  C715    1.405   1_655 S
C1080  C1098   1.412   .     A
C1081  C1099   1.413   .     A
C1081  C1097   1.410   .     A
C1082  C1098   1.413   .     A
C1082  C1096   1.410   .     A
C1083  C1095   1.410   .     A
C1084  C1100   1.412   .     A
C1084  C1094   1.410   .     A
C1085  C1093   1.410   .     A
C1086  C1092   1.410   .     A
C1087  C1091   1.410   .     A
C1088  C1089   1.410   .     A
C1090  C716    1.405   1_655 A
C1090  H1164   1.083   .     S
O1165  Zn1252  1.945   .     S
O1165  Zn1249  1.941   .     S
O1165  Zn1260  1.941   .     S
O1166  Zn1251  1.942   .     S
O1166  C406    1.281   1_565 S
O1167  Zn1254  1.941   .     S
O1167  C723    1.279   1_655 S
O1168  Zn1253  1.941   .     S
O1169  Zn1263  1.942   .     S
O1170  Zn1262  1.942   .     S
O1171  Zn1257  1.941   .     S
O1172  Zn1249  1.941   .     S
O1173  Zn1259  1.942   .     S
O1174  Zn1258  1.942   .     S
O1175  Zn1261  1.941   .     S
O1176  Zn1255  1.945   .     S
O1176  Zn1257  1.941   .     S
O1176  Zn1261  1.941   .     S
O1177  Zn1260  1.941   .     S
O1178  Zn1252  1.931   .     S
O1179  Zn1251  1.931   .     S
O1180  Zn1254  1.933   .     S
O1181  Zn1253  1.933   .     S
O1182  Zn1256  1.931   .     S
O1183  Zn1255  1.931   .     S
O1184  Zn1250  1.933   .     S
O1185  Zn1264  1.933   .     S
O1186  Zn1251  1.931   .     S
O1187  Zn1250  1.941   .     S
O1187  Zn1258  1.945   .     S
O1187  Zn1262  1.945   .     S
O1188  Zn1252  1.931   .     S
O1189  Zn1264  1.933   .     S
O1190  Zn1250  1.933   .     S
O1191  Zn1255  1.931   .     S
O1192  Zn1256  1.931   .     S
O1193  Zn1253  1.933   .     S
O1194  Zn1254  1.933   .     S
O1195  Zn943   1.931   1_655 S
O1196  Zn1258  1.931   .     S
O1197  Zn629   1.933   1_565 S
O1198  Zn1263  1.945   .     S
O1198  Zn1253  1.941   .     S
O1198  Zn1259  1.945   .     S
O1199  Zn1260  1.933   .     S
O1200  Zn1263  1.931   .     S
O1201  Zn946   1.931   1_655 S
O1202  Zn1257  1.933   .     S
O1203  Zn617   1.933   1_565 S
O1204  Zn942   1.931   1_655 S
O1205  Zn1259  1.931   .     S
O1206  Zn1249  1.933   .     S
O1207  Zn625   1.933   1_565 S
O1208  Zn1262  1.931   .     S
O1209  Zn1256  1.942   .     S
O1209  C405    1.281   1_565 S
O1210  Zn947   1.931   1_655 S
O1211  Zn628   1.933   1_565 S
O1212  Zn1261  1.933   .     S
O1220  Zn1255  1.942   .     S
O1231  Zn1250  1.941   .     S
O1242  Zn1264  1.941   .     S
O1242  C724    1.279   1_655 S
O1248  Zn1252  1.942   .     S
Zn1251 O544    1.945   1_565 S
Zn1254 O871    1.941   1_655 S
Zn1256 O533    1.945   1_565 S
Zn1264 O882    1.941   1_655 S
