data_str_m1_o10_o18_pcu_sym.246
_audit_creation_date              2020-01-03
_audit_creation_method            'Materials Studio'
_symmetry_space_group_name_H-M    'P1'
_symmetry_Int_Tables_number       1
_symmetry_cell_setting            triclinic
loop_
_symmetry_equiv_pos_as_xyz
  x,y,z
_cell_length_a                    32.6605
_cell_length_b                    32.6227
_cell_length_c                    35.6304
_cell_angle_alpha                 98.1752
_cell_angle_beta                  72.8465
_cell_angle_gamma                 98.0858
loop_
_atom_site_label
_atom_site_type_symbol
_atom_site_fract_x
_atom_site_fract_y
_atom_site_fract_z
_atom_site_U_iso_or_equiv
_atom_site_adp_type
_atom_site_occupancy
Br1    Br    0.30651   0.13566   0.31215   0.00000  Uiso   1.00
Br2    Br    0.09948   0.32952   0.30405   0.00000  Uiso   1.00
Br3    Br    0.27770   0.10681   0.10316   0.00000  Uiso   1.00
Br4    Br    0.04209   0.19789   0.39482   0.00000  Uiso   1.00
Br5    Br    0.21840   0.20330   0.39888   0.00000  Uiso   1.00
C6     C     0.05284   0.16057   0.25836   0.00000  Uiso   1.00
C7     C     0.20424   0.13708   0.45837   0.00000  Uiso   1.00
C8     C     0.23008   0.12334   0.47768   0.00000  Uiso   1.00
C9     C     0.28091   0.17341   0.24149   0.00000  Uiso   1.00
C10    C     0.21904   0.12756   0.01880   0.00000  Uiso   1.00
C11    C     0.17952   0.14297   0.04117   0.00000  Uiso   1.00
C12    C     0.24716   0.11633   0.03777   0.00000  Uiso   1.00
C13    C     0.23728   0.12130   0.07883   0.00000  Uiso   1.00
C14    C     0.16978   0.14705   0.08268   0.00000  Uiso   1.00
C15    C     0.32654   0.17431   0.23794   0.00000  Uiso   1.00
C16    C     0.00745   0.15807   0.26391   0.00000  Uiso   1.00
C17    C     0.08524   0.19203   0.42007   0.00000  Uiso   1.00
C18    C     0.17966   0.32206   0.23932   0.00000  Uiso   1.00
C19    C     0.15051   0.01303   0.26331   0.00000  Uiso   1.00
C20    C     0.15649   0.05633   0.25854   0.00000  Uiso   1.00
C21    C     0.17654   0.27765   0.24163   0.00000  Uiso   1.00
C22    C     0.18845   0.14524   0.14405   0.00000  Uiso   1.00
C23    C     0.14457   0.18709   0.35632   0.00000  Uiso   1.00
C24    C     0.12928   0.18953   0.39975   0.00000  Uiso   1.00
C25    C     0.19841   0.13670   0.10126   0.00000  Uiso   1.00
C26    C     0.07090   0.18898   0.46052   0.00000  Uiso   1.00
C27    C     0.15811   0.18394   0.42074   0.00000  Uiso   1.00
C28    C     0.14188   0.17302   0.45996   0.00000  Uiso   1.00
C29    C     0.09854   0.17912   0.48049   0.00000  Uiso   1.00
C30    C     0.16691   0.15627   0.47956   0.00000  Uiso   1.00
C31    C     0.15197   0.15504   0.02121   0.00000  Uiso   1.00
C32    C     0.10953   0.16441   0.04114   0.00000  Uiso   1.00
C33    C     0.08293   0.17486   0.02075   0.00000  Uiso   1.00
H34    H     0.04991   0.17994   0.03673   0.00000  Uiso   1.00
H35    H     0.27725   0.10442   0.02064   0.00000  Uiso   1.00
H36    H     0.01619   0.18827   0.21304   0.00000  Uiso   1.00
H37    H     0.20688   0.00232   0.21717   0.00000  Uiso   1.00
H38    H     0.14140   0.16050   0.10143   0.00000  Uiso   1.00
H39    H     0.25912   0.10968   0.46028   0.00000  Uiso   1.00
H40    H     0.03738   0.19229   0.47604   0.00000  Uiso   1.00
H41    H     0.09502   0.16150   0.07212   0.00000  Uiso   1.00
H42    H     0.21295   0.13084   0.42659   0.00000  Uiso   1.00
O43    O     0.16667   0.16667   0.25000   0.00000  Uiso   1.00
O44    O     0.15693   0.12393   0.16625   0.00000  Uiso   1.00
O45    O     0.12687   0.20646   0.33749   0.00000  Uiso   1.00
O46    O     0.21088   0.17493   0.15877   0.00000  Uiso   1.00
O47    O     0.17198   0.16135   0.33749   0.00000  Uiso   1.00
O48    O     0.17849   0.08101   0.27820   0.00000  Uiso   1.00
O49    O     0.14581   0.26136   0.26767   0.00000  Uiso   1.00
O50    O     0.07452   0.13251   0.23607   0.00000  Uiso   1.00
O51    O     0.26785   0.19179   0.21805   0.00000  Uiso   1.00
O52    O     0.06990   0.18960   0.27820   0.00000  Uiso   1.00
O53    O     0.25440   0.15277   0.26767   0.00000  Uiso   1.00
O54    O     0.13800   0.06903   0.23607   0.00000  Uiso   1.00
O55    O     0.20437   0.25527   0.21805   0.00000  Uiso   1.00
Zn56   Zn    0.19244   0.14090   0.28277   0.00000  Uiso   1.00
Zn57   Zn    0.13459   0.12378   0.22257   0.00000  Uiso   1.00
Zn58   Zn    0.21166   0.19664   0.21188   0.00000  Uiso   1.00
Zn59   Zn    0.12798   0.20535   0.28277   0.00000  Uiso   1.00
Br60   Br    0.63984   0.13566   0.31215   0.00000  Uiso   1.00
Br61   Br    0.43282   0.32952   0.30405   0.00000  Uiso   1.00
Br62   Br    0.61103   0.10681   0.10316   0.00000  Uiso   1.00
Br63   Br    0.37543   0.19789   0.39482   0.00000  Uiso   1.00
Br64   Br    0.55173   0.20330   0.39888   0.00000  Uiso   1.00
C65    C     0.38618   0.16057   0.25836   0.00000  Uiso   1.00
C66    C     0.53757   0.13708   0.45837   0.00000  Uiso   1.00
C67    C     0.56342   0.12334   0.47768   0.00000  Uiso   1.00
C68    C     0.61424   0.17341   0.24149   0.00000  Uiso   1.00
C69    C     0.55237   0.12756   0.01880   0.00000  Uiso   1.00
C70    C     0.51285   0.14297   0.04117   0.00000  Uiso   1.00
C71    C     0.58049   0.11633   0.03777   0.00000  Uiso   1.00
C72    C     0.57061   0.12130   0.07883   0.00000  Uiso   1.00
C73    C     0.50311   0.14705   0.08268   0.00000  Uiso   1.00
C74    C     0.65987   0.17431   0.23794   0.00000  Uiso   1.00
C75    C     0.34078   0.15807   0.26391   0.00000  Uiso   1.00
C76    C     0.41857   0.19203   0.42007   0.00000  Uiso   1.00
C77    C     0.51299   0.32206   0.23932   0.00000  Uiso   1.00
C78    C     0.48384   0.01303   0.26331   0.00000  Uiso   1.00
C79    C     0.48982   0.05633   0.25854   0.00000  Uiso   1.00
C80    C     0.50987   0.27765   0.24163   0.00000  Uiso   1.00
C81    C     0.52178   0.14524   0.14405   0.00000  Uiso   1.00
C82    C     0.47791   0.18709   0.35632   0.00000  Uiso   1.00
C83    C     0.46262   0.18953   0.39975   0.00000  Uiso   1.00
C84    C     0.53174   0.13670   0.10126   0.00000  Uiso   1.00
C85    C     0.40424   0.18898   0.46052   0.00000  Uiso   1.00
C86    C     0.49144   0.18394   0.42074   0.00000  Uiso   1.00
C87    C     0.47522   0.17302   0.45996   0.00000  Uiso   1.00
C88    C     0.43188   0.17912   0.48049   0.00000  Uiso   1.00
C89    C     0.50024   0.15627   0.47956   0.00000  Uiso   1.00
C90    C     0.48531   0.15504   0.02121   0.00000  Uiso   1.00
C91    C     0.44287   0.16441   0.04114   0.00000  Uiso   1.00
C92    C     0.41626   0.17486   0.02075   0.00000  Uiso   1.00
H93    H     0.38324   0.17994   0.03673   0.00000  Uiso   1.00
H94    H     0.61058   0.10442   0.02064   0.00000  Uiso   1.00
H95    H     0.34952   0.18827   0.21304   0.00000  Uiso   1.00
H96    H     0.54021   0.00232   0.21717   0.00000  Uiso   1.00
H97    H     0.47473   0.16050   0.10143   0.00000  Uiso   1.00
H98    H     0.59245   0.10968   0.46028   0.00000  Uiso   1.00
H99    H     0.37071   0.19229   0.47604   0.00000  Uiso   1.00
H100   H     0.42835   0.16150   0.07212   0.00000  Uiso   1.00
H101   H     0.54628   0.13084   0.42659   0.00000  Uiso   1.00
O102   O     0.50000   0.16667   0.25000   0.00000  Uiso   1.00
O103   O     0.49027   0.12393   0.16625   0.00000  Uiso   1.00
O104   O     0.46020   0.20646   0.33749   0.00000  Uiso   1.00
O105   O     0.54421   0.17493   0.15877   0.00000  Uiso   1.00
O106   O     0.50532   0.16135   0.33749   0.00000  Uiso   1.00
O107   O     0.51182   0.08101   0.27820   0.00000  Uiso   1.00
O108   O     0.47914   0.26136   0.26767   0.00000  Uiso   1.00
O109   O     0.40785   0.13251   0.23607   0.00000  Uiso   1.00
O110   O     0.60119   0.19179   0.21805   0.00000  Uiso   1.00
O111   O     0.40323   0.18960   0.27820   0.00000  Uiso   1.00
O112   O     0.58773   0.15277   0.26767   0.00000  Uiso   1.00
O113   O     0.47133   0.06903   0.23607   0.00000  Uiso   1.00
O114   O     0.53771   0.25527   0.21805   0.00000  Uiso   1.00
Zn115  Zn    0.52577   0.14090   0.28277   0.00000  Uiso   1.00
Zn116  Zn    0.46792   0.12378   0.22257   0.00000  Uiso   1.00
Zn117  Zn    0.54500   0.19664   0.21188   0.00000  Uiso   1.00
Zn118  Zn    0.46131   0.20535   0.28277   0.00000  Uiso   1.00
Br119  Br    0.97318   0.13566   0.31215   0.00000  Uiso   1.00
Br120  Br    0.76615   0.32952   0.30405   0.00000  Uiso   1.00
Br121  Br    0.94437   0.10681   0.10316   0.00000  Uiso   1.00
Br122  Br    0.70876   0.19789   0.39482   0.00000  Uiso   1.00
Br123  Br    0.88506   0.20330   0.39888   0.00000  Uiso   1.00
C124   C     0.71951   0.16057   0.25836   0.00000  Uiso   1.00
C125   C     0.87090   0.13708   0.45837   0.00000  Uiso   1.00
C126   C     0.89675   0.12334   0.47768   0.00000  Uiso   1.00
C127   C     0.94757   0.17341   0.24149   0.00000  Uiso   1.00
C128   C     0.88570   0.12756   0.01880   0.00000  Uiso   1.00
C129   C     0.84619   0.14297   0.04117   0.00000  Uiso   1.00
C130   C     0.91382   0.11633   0.03777   0.00000  Uiso   1.00
C131   C     0.90395   0.12130   0.07883   0.00000  Uiso   1.00
C132   C     0.83645   0.14705   0.08268   0.00000  Uiso   1.00
C133   C     0.99321   0.17431   0.23794   0.00000  Uiso   1.00
C134   C     0.67412   0.15807   0.26391   0.00000  Uiso   1.00
C135   C     0.75191   0.19203   0.42007   0.00000  Uiso   1.00
C136   C     0.84633   0.32206   0.23932   0.00000  Uiso   1.00
C137   C     0.81718   0.01303   0.26331   0.00000  Uiso   1.00
C138   C     0.82316   0.05633   0.25854   0.00000  Uiso   1.00
C139   C     0.84320   0.27765   0.24163   0.00000  Uiso   1.00
C140   C     0.85511   0.14524   0.14405   0.00000  Uiso   1.00
C141   C     0.81124   0.18709   0.35632   0.00000  Uiso   1.00
C142   C     0.79595   0.18953   0.39975   0.00000  Uiso   1.00
C143   C     0.86507   0.13670   0.10126   0.00000  Uiso   1.00
C144   C     0.73757   0.18898   0.46052   0.00000  Uiso   1.00
C145   C     0.82478   0.18394   0.42074   0.00000  Uiso   1.00
C146   C     0.80855   0.17302   0.45996   0.00000  Uiso   1.00
C147   C     0.76521   0.17912   0.48049   0.00000  Uiso   1.00
C148   C     0.83358   0.15627   0.47956   0.00000  Uiso   1.00
C149   C     0.81864   0.15504   0.02121   0.00000  Uiso   1.00
C150   C     0.77620   0.16441   0.04114   0.00000  Uiso   1.00
C151   C     0.74959   0.17486   0.02075   0.00000  Uiso   1.00
H152   H     0.71658   0.17994   0.03673   0.00000  Uiso   1.00
H153   H     0.94391   0.10442   0.02064   0.00000  Uiso   1.00
H154   H     0.68286   0.18827   0.21304   0.00000  Uiso   1.00
H155   H     0.87355   0.00232   0.21717   0.00000  Uiso   1.00
H156   H     0.80807   0.16050   0.10143   0.00000  Uiso   1.00
H157   H     0.92578   0.10968   0.46028   0.00000  Uiso   1.00
H158   H     0.70404   0.19229   0.47604   0.00000  Uiso   1.00
H159   H     0.76168   0.16150   0.07212   0.00000  Uiso   1.00
H160   H     0.87962   0.13084   0.42659   0.00000  Uiso   1.00
O161   O     0.83333   0.16667   0.25000   0.00000  Uiso   1.00
O162   O     0.82360   0.12393   0.16625   0.00000  Uiso   1.00
O163   O     0.79354   0.20646   0.33749   0.00000  Uiso   1.00
O164   O     0.87755   0.17493   0.15877   0.00000  Uiso   1.00
O165   O     0.83865   0.16135   0.33749   0.00000  Uiso   1.00
O166   O     0.84515   0.08101   0.27820   0.00000  Uiso   1.00
O167   O     0.81247   0.26136   0.26767   0.00000  Uiso   1.00
O168   O     0.74119   0.13251   0.23607   0.00000  Uiso   1.00
O169   O     0.93452   0.19179   0.21805   0.00000  Uiso   1.00
O170   O     0.73656   0.18960   0.27820   0.00000  Uiso   1.00
O171   O     0.92106   0.15277   0.26767   0.00000  Uiso   1.00
O172   O     0.80467   0.06903   0.23607   0.00000  Uiso   1.00
O173   O     0.87104   0.25527   0.21805   0.00000  Uiso   1.00
Zn174  Zn    0.85910   0.14090   0.28277   0.00000  Uiso   1.00
Zn175  Zn    0.80125   0.12378   0.22257   0.00000  Uiso   1.00
Zn176  Zn    0.87833   0.19664   0.21188   0.00000  Uiso   1.00
Zn177  Zn    0.79465   0.20535   0.28277   0.00000  Uiso   1.00
Br178  Br    0.30651   0.46899   0.31215   0.00000  Uiso   1.00
Br179  Br    0.09948   0.66286   0.30405   0.00000  Uiso   1.00
Br180  Br    0.27770   0.44015   0.10316   0.00000  Uiso   1.00
Br181  Br    0.04209   0.53122   0.39482   0.00000  Uiso   1.00
Br182  Br    0.21840   0.53664   0.39888   0.00000  Uiso   1.00
C183   C     0.05284   0.49391   0.25836   0.00000  Uiso   1.00
C184   C     0.20424   0.47041   0.45837   0.00000  Uiso   1.00
C185   C     0.23008   0.45667   0.47768   0.00000  Uiso   1.00
C186   C     0.28091   0.50675   0.24149   0.00000  Uiso   1.00
C187   C     0.21904   0.46089   0.01880   0.00000  Uiso   1.00
C188   C     0.17952   0.47631   0.04117   0.00000  Uiso   1.00
C189   C     0.24716   0.44967   0.03777   0.00000  Uiso   1.00
C190   C     0.23728   0.45464   0.07883   0.00000  Uiso   1.00
C191   C     0.16978   0.48038   0.08268   0.00000  Uiso   1.00
C192   C     0.32654   0.50764   0.23794   0.00000  Uiso   1.00
C193   C     0.00745   0.49140   0.26391   0.00000  Uiso   1.00
C194   C     0.08524   0.52536   0.42007   0.00000  Uiso   1.00
C195   C     0.17966   0.65539   0.23932   0.00000  Uiso   1.00
C196   C     0.15051   0.34637   0.26331   0.00000  Uiso   1.00
C197   C     0.15649   0.38967   0.25854   0.00000  Uiso   1.00
C198   C     0.17654   0.61099   0.24163   0.00000  Uiso   1.00
C199   C     0.18845   0.47858   0.14405   0.00000  Uiso   1.00
C200   C     0.14457   0.52042   0.35632   0.00000  Uiso   1.00
C201   C     0.12928   0.52286   0.39975   0.00000  Uiso   1.00
C202   C     0.19841   0.47003   0.10126   0.00000  Uiso   1.00
C203   C     0.07090   0.52231   0.46052   0.00000  Uiso   1.00
C204   C     0.15811   0.51727   0.42074   0.00000  Uiso   1.00
C205   C     0.14188   0.50635   0.45996   0.00000  Uiso   1.00
C206   C     0.09854   0.51245   0.48049   0.00000  Uiso   1.00
C207   C     0.16691   0.48961   0.47956   0.00000  Uiso   1.00
C208   C     0.15197   0.48838   0.02121   0.00000  Uiso   1.00
C209   C     0.10953   0.49775   0.04114   0.00000  Uiso   1.00
C210   C     0.08293   0.50820   0.02075   0.00000  Uiso   1.00
H211   H     0.04991   0.51328   0.03673   0.00000  Uiso   1.00
H212   H     0.27725   0.43775   0.02064   0.00000  Uiso   1.00
H213   H     0.01619   0.52160   0.21304   0.00000  Uiso   1.00
H214   H     0.20688   0.33565   0.21717   0.00000  Uiso   1.00
H215   H     0.14140   0.49384   0.10143   0.00000  Uiso   1.00
H216   H     0.25912   0.44302   0.46028   0.00000  Uiso   1.00
H217   H     0.03738   0.52563   0.47604   0.00000  Uiso   1.00
H218   H     0.09502   0.49483   0.07212   0.00000  Uiso   1.00
H219   H     0.21295   0.46417   0.42659   0.00000  Uiso   1.00
O220   O     0.16667   0.50000   0.25000   0.00000  Uiso   1.00
O221   O     0.15693   0.45726   0.16625   0.00000  Uiso   1.00
O222   O     0.12687   0.53979   0.33749   0.00000  Uiso   1.00
O223   O     0.21088   0.50826   0.15877   0.00000  Uiso   1.00
O224   O     0.17198   0.49468   0.33749   0.00000  Uiso   1.00
O225   O     0.17849   0.41434   0.27820   0.00000  Uiso   1.00
O226   O     0.14581   0.59469   0.26767   0.00000  Uiso   1.00
O227   O     0.07452   0.46584   0.23607   0.00000  Uiso   1.00
O228   O     0.26785   0.52512   0.21805   0.00000  Uiso   1.00
O229   O     0.06990   0.52293   0.27820   0.00000  Uiso   1.00
O230   O     0.25440   0.48610   0.26767   0.00000  Uiso   1.00
O231   O     0.13800   0.40236   0.23607   0.00000  Uiso   1.00
O232   O     0.20437   0.58860   0.21805   0.00000  Uiso   1.00
Zn233  Zn    0.19244   0.47423   0.28277   0.00000  Uiso   1.00
Zn234  Zn    0.13459   0.45711   0.22257   0.00000  Uiso   1.00
Zn235  Zn    0.21166   0.52997   0.21188   0.00000  Uiso   1.00
Zn236  Zn    0.12798   0.53868   0.28277   0.00000  Uiso   1.00
Br237  Br    0.63984   0.46899   0.31215   0.00000  Uiso   1.00
Br238  Br    0.43282   0.66286   0.30405   0.00000  Uiso   1.00
Br239  Br    0.61103   0.44015   0.10316   0.00000  Uiso   1.00
Br240  Br    0.37543   0.53122   0.39482   0.00000  Uiso   1.00
Br241  Br    0.55173   0.53664   0.39888   0.00000  Uiso   1.00
C242   C     0.38618   0.49391   0.25836   0.00000  Uiso   1.00
C243   C     0.53757   0.47041   0.45837   0.00000  Uiso   1.00
C244   C     0.56342   0.45667   0.47768   0.00000  Uiso   1.00
C245   C     0.61424   0.50675   0.24149   0.00000  Uiso   1.00
C246   C     0.55237   0.46089   0.01880   0.00000  Uiso   1.00
C247   C     0.51285   0.47631   0.04117   0.00000  Uiso   1.00
C248   C     0.58049   0.44967   0.03777   0.00000  Uiso   1.00
C249   C     0.57061   0.45464   0.07883   0.00000  Uiso   1.00
C250   C     0.50311   0.48038   0.08268   0.00000  Uiso   1.00
C251   C     0.65987   0.50764   0.23794   0.00000  Uiso   1.00
C252   C     0.34078   0.49140   0.26391   0.00000  Uiso   1.00
C253   C     0.41857   0.52536   0.42007   0.00000  Uiso   1.00
C254   C     0.51299   0.65539   0.23932   0.00000  Uiso   1.00
C255   C     0.48384   0.34637   0.26331   0.00000  Uiso   1.00
C256   C     0.48982   0.38967   0.25854   0.00000  Uiso   1.00
C257   C     0.50987   0.61099   0.24163   0.00000  Uiso   1.00
C258   C     0.52178   0.47858   0.14405   0.00000  Uiso   1.00
C259   C     0.47791   0.52042   0.35632   0.00000  Uiso   1.00
C260   C     0.46262   0.52286   0.39975   0.00000  Uiso   1.00
C261   C     0.53174   0.47003   0.10126   0.00000  Uiso   1.00
C262   C     0.40424   0.52231   0.46052   0.00000  Uiso   1.00
C263   C     0.49144   0.51727   0.42074   0.00000  Uiso   1.00
C264   C     0.47522   0.50635   0.45996   0.00000  Uiso   1.00
C265   C     0.43188   0.51245   0.48049   0.00000  Uiso   1.00
C266   C     0.50024   0.48961   0.47956   0.00000  Uiso   1.00
C267   C     0.48531   0.48838   0.02121   0.00000  Uiso   1.00
C268   C     0.44287   0.49775   0.04114   0.00000  Uiso   1.00
C269   C     0.41626   0.50820   0.02075   0.00000  Uiso   1.00
H270   H     0.38324   0.51328   0.03673   0.00000  Uiso   1.00
H271   H     0.61058   0.43775   0.02064   0.00000  Uiso   1.00
H272   H     0.34952   0.52160   0.21304   0.00000  Uiso   1.00
H273   H     0.54021   0.33565   0.21717   0.00000  Uiso   1.00
H274   H     0.47473   0.49384   0.10143   0.00000  Uiso   1.00
H275   H     0.59245   0.44302   0.46028   0.00000  Uiso   1.00
H276   H     0.37071   0.52563   0.47604   0.00000  Uiso   1.00
H277   H     0.42835   0.49483   0.07212   0.00000  Uiso   1.00
H278   H     0.54628   0.46417   0.42659   0.00000  Uiso   1.00
O279   O     0.50000   0.50000   0.25000   0.00000  Uiso   1.00
O280   O     0.49027   0.45726   0.16625   0.00000  Uiso   1.00
O281   O     0.46020   0.53979   0.33749   0.00000  Uiso   1.00
O282   O     0.54421   0.50826   0.15877   0.00000  Uiso   1.00
O283   O     0.50532   0.49468   0.33749   0.00000  Uiso   1.00
O284   O     0.51182   0.41434   0.27820   0.00000  Uiso   1.00
O285   O     0.47914   0.59469   0.26767   0.00000  Uiso   1.00
O286   O     0.40785   0.46584   0.23607   0.00000  Uiso   1.00
O287   O     0.60119   0.52512   0.21805   0.00000  Uiso   1.00
O288   O     0.40323   0.52293   0.27820   0.00000  Uiso   1.00
O289   O     0.58773   0.48610   0.26767   0.00000  Uiso   1.00
O290   O     0.47133   0.40236   0.23607   0.00000  Uiso   1.00
O291   O     0.53771   0.58860   0.21805   0.00000  Uiso   1.00
Zn292  Zn    0.52577   0.47423   0.28277   0.00000  Uiso   1.00
Zn293  Zn    0.46792   0.45711   0.22257   0.00000  Uiso   1.00
Zn294  Zn    0.54500   0.52997   0.21188   0.00000  Uiso   1.00
Zn295  Zn    0.46131   0.53868   0.28277   0.00000  Uiso   1.00
Br296  Br    0.97318   0.46899   0.31215   0.00000  Uiso   1.00
Br297  Br    0.76615   0.66286   0.30405   0.00000  Uiso   1.00
Br298  Br    0.94437   0.44015   0.10316   0.00000  Uiso   1.00
Br299  Br    0.70876   0.53122   0.39482   0.00000  Uiso   1.00
Br300  Br    0.88506   0.53664   0.39888   0.00000  Uiso   1.00
C301   C     0.71951   0.49391   0.25836   0.00000  Uiso   1.00
C302   C     0.87090   0.47041   0.45837   0.00000  Uiso   1.00
C303   C     0.89675   0.45667   0.47768   0.00000  Uiso   1.00
C304   C     0.94757   0.50675   0.24149   0.00000  Uiso   1.00
C305   C     0.88570   0.46089   0.01880   0.00000  Uiso   1.00
C306   C     0.84619   0.47631   0.04117   0.00000  Uiso   1.00
C307   C     0.91382   0.44967   0.03777   0.00000  Uiso   1.00
C308   C     0.90395   0.45464   0.07883   0.00000  Uiso   1.00
C309   C     0.83645   0.48038   0.08268   0.00000  Uiso   1.00
C310   C     0.99321   0.50764   0.23794   0.00000  Uiso   1.00
C311   C     0.67412   0.49140   0.26391   0.00000  Uiso   1.00
C312   C     0.75191   0.52536   0.42007   0.00000  Uiso   1.00
C313   C     0.84633   0.65539   0.23932   0.00000  Uiso   1.00
C314   C     0.81718   0.34637   0.26331   0.00000  Uiso   1.00
C315   C     0.82316   0.38967   0.25854   0.00000  Uiso   1.00
C316   C     0.84320   0.61099   0.24163   0.00000  Uiso   1.00
C317   C     0.85511   0.47858   0.14405   0.00000  Uiso   1.00
C318   C     0.81124   0.52042   0.35632   0.00000  Uiso   1.00
C319   C     0.79595   0.52286   0.39975   0.00000  Uiso   1.00
C320   C     0.86507   0.47003   0.10126   0.00000  Uiso   1.00
C321   C     0.73757   0.52231   0.46052   0.00000  Uiso   1.00
C322   C     0.82478   0.51727   0.42074   0.00000  Uiso   1.00
C323   C     0.80855   0.50635   0.45996   0.00000  Uiso   1.00
C324   C     0.76521   0.51245   0.48049   0.00000  Uiso   1.00
C325   C     0.83358   0.48961   0.47956   0.00000  Uiso   1.00
C326   C     0.81864   0.48838   0.02121   0.00000  Uiso   1.00
C327   C     0.77620   0.49775   0.04114   0.00000  Uiso   1.00
C328   C     0.74959   0.50820   0.02075   0.00000  Uiso   1.00
H329   H     0.71658   0.51328   0.03673   0.00000  Uiso   1.00
H330   H     0.94391   0.43775   0.02064   0.00000  Uiso   1.00
H331   H     0.68286   0.52160   0.21304   0.00000  Uiso   1.00
H332   H     0.87355   0.33565   0.21717   0.00000  Uiso   1.00
H333   H     0.80807   0.49384   0.10143   0.00000  Uiso   1.00
H334   H     0.92578   0.44302   0.46028   0.00000  Uiso   1.00
H335   H     0.70404   0.52563   0.47604   0.00000  Uiso   1.00
H336   H     0.76168   0.49483   0.07212   0.00000  Uiso   1.00
H337   H     0.87962   0.46417   0.42659   0.00000  Uiso   1.00
O338   O     0.83333   0.50000   0.25000   0.00000  Uiso   1.00
O339   O     0.82360   0.45726   0.16625   0.00000  Uiso   1.00
O340   O     0.79354   0.53979   0.33749   0.00000  Uiso   1.00
O341   O     0.87755   0.50826   0.15877   0.00000  Uiso   1.00
O342   O     0.83865   0.49468   0.33749   0.00000  Uiso   1.00
O343   O     0.84515   0.41434   0.27820   0.00000  Uiso   1.00
O344   O     0.81247   0.59469   0.26767   0.00000  Uiso   1.00
O345   O     0.74119   0.46584   0.23607   0.00000  Uiso   1.00
O346   O     0.93452   0.52512   0.21805   0.00000  Uiso   1.00
O347   O     0.73656   0.52293   0.27820   0.00000  Uiso   1.00
O348   O     0.92106   0.48610   0.26767   0.00000  Uiso   1.00
O349   O     0.80467   0.40236   0.23607   0.00000  Uiso   1.00
O350   O     0.87104   0.58860   0.21805   0.00000  Uiso   1.00
Zn351  Zn    0.85910   0.47423   0.28277   0.00000  Uiso   1.00
Zn352  Zn    0.80125   0.45711   0.22257   0.00000  Uiso   1.00
Zn353  Zn    0.87833   0.52997   0.21188   0.00000  Uiso   1.00
Zn354  Zn    0.79465   0.53868   0.28277   0.00000  Uiso   1.00
Br355  Br    0.30651   0.80233   0.31215   0.00000  Uiso   1.00
Br356  Br    0.09948   0.99619   0.30405   0.00000  Uiso   1.00
Br357  Br    0.27770   0.77348   0.10316   0.00000  Uiso   1.00
Br358  Br    0.04209   0.86455   0.39482   0.00000  Uiso   1.00
Br359  Br    0.21840   0.86997   0.39888   0.00000  Uiso   1.00
C360   C     0.05284   0.82724   0.25836   0.00000  Uiso   1.00
C361   C     0.20424   0.80375   0.45837   0.00000  Uiso   1.00
C362   C     0.23008   0.79000   0.47768   0.00000  Uiso   1.00
C363   C     0.28091   0.84008   0.24149   0.00000  Uiso   1.00
C364   C     0.21904   0.79423   0.01880   0.00000  Uiso   1.00
C365   C     0.17952   0.80964   0.04117   0.00000  Uiso   1.00
C366   C     0.24716   0.78300   0.03777   0.00000  Uiso   1.00
C367   C     0.23728   0.78797   0.07883   0.00000  Uiso   1.00
C368   C     0.16978   0.81371   0.08268   0.00000  Uiso   1.00
C369   C     0.32654   0.84097   0.23794   0.00000  Uiso   1.00
C370   C     0.00745   0.82474   0.26391   0.00000  Uiso   1.00
C371   C     0.08524   0.85869   0.42007   0.00000  Uiso   1.00
C372   C     0.17966   0.98872   0.23932   0.00000  Uiso   1.00
C373   C     0.15051   0.67970   0.26331   0.00000  Uiso   1.00
C374   C     0.15649   0.72300   0.25854   0.00000  Uiso   1.00
C375   C     0.17654   0.94432   0.24163   0.00000  Uiso   1.00
C376   C     0.18845   0.81191   0.14405   0.00000  Uiso   1.00
C377   C     0.14457   0.85375   0.35632   0.00000  Uiso   1.00
C378   C     0.12928   0.85619   0.39975   0.00000  Uiso   1.00
C379   C     0.19841   0.80337   0.10126   0.00000  Uiso   1.00
C380   C     0.07090   0.85564   0.46052   0.00000  Uiso   1.00
C381   C     0.15811   0.85060   0.42074   0.00000  Uiso   1.00
C382   C     0.14188   0.83968   0.45996   0.00000  Uiso   1.00
C383   C     0.09854   0.84578   0.48049   0.00000  Uiso   1.00
C384   C     0.16691   0.82294   0.47956   0.00000  Uiso   1.00
C385   C     0.15197   0.82171   0.02121   0.00000  Uiso   1.00
C386   C     0.10953   0.83108   0.04114   0.00000  Uiso   1.00
C387   C     0.08293   0.84153   0.02075   0.00000  Uiso   1.00
H388   H     0.04991   0.84661   0.03673   0.00000  Uiso   1.00
H389   H     0.27725   0.77109   0.02064   0.00000  Uiso   1.00
H390   H     0.01619   0.85493   0.21304   0.00000  Uiso   1.00
H391   H     0.20688   0.66899   0.21717   0.00000  Uiso   1.00
H392   H     0.14140   0.82717   0.10143   0.00000  Uiso   1.00
H393   H     0.25912   0.77635   0.46028   0.00000  Uiso   1.00
H394   H     0.03738   0.85896   0.47604   0.00000  Uiso   1.00
H395   H     0.09502   0.82817   0.07212   0.00000  Uiso   1.00
H396   H     0.21295   0.79750   0.42659   0.00000  Uiso   1.00
O397   O     0.16667   0.83333   0.25000   0.00000  Uiso   1.00
O398   O     0.15693   0.79060   0.16625   0.00000  Uiso   1.00
O399   O     0.12687   0.87313   0.33749   0.00000  Uiso   1.00
O400   O     0.21088   0.84159   0.15877   0.00000  Uiso   1.00
O401   O     0.17198   0.82802   0.33749   0.00000  Uiso   1.00
O402   O     0.17849   0.74768   0.27820   0.00000  Uiso   1.00
O403   O     0.14581   0.92803   0.26767   0.00000  Uiso   1.00
O404   O     0.07452   0.79917   0.23607   0.00000  Uiso   1.00
O405   O     0.26785   0.85845   0.21805   0.00000  Uiso   1.00
O406   O     0.06990   0.85627   0.27820   0.00000  Uiso   1.00
O407   O     0.25440   0.81944   0.26767   0.00000  Uiso   1.00
O408   O     0.13800   0.73570   0.23607   0.00000  Uiso   1.00
O409   O     0.20437   0.92193   0.21805   0.00000  Uiso   1.00
Zn410  Zn    0.19244   0.80756   0.28277   0.00000  Uiso   1.00
Zn411  Zn    0.13459   0.79044   0.22257   0.00000  Uiso   1.00
Zn412  Zn    0.21166   0.86331   0.21188   0.00000  Uiso   1.00
Zn413  Zn    0.12798   0.87202   0.28277   0.00000  Uiso   1.00
Br414  Br    0.63984   0.80233   0.31215   0.00000  Uiso   1.00
Br415  Br    0.43282   0.99619   0.30405   0.00000  Uiso   1.00
Br416  Br    0.61103   0.77348   0.10316   0.00000  Uiso   1.00
Br417  Br    0.37543   0.86455   0.39482   0.00000  Uiso   1.00
Br418  Br    0.55173   0.86997   0.39888   0.00000  Uiso   1.00
C419   C     0.38618   0.82724   0.25836   0.00000  Uiso   1.00
C420   C     0.53757   0.80375   0.45837   0.00000  Uiso   1.00
C421   C     0.56342   0.79000   0.47768   0.00000  Uiso   1.00
C422   C     0.61424   0.84008   0.24149   0.00000  Uiso   1.00
C423   C     0.55237   0.79423   0.01880   0.00000  Uiso   1.00
C424   C     0.51285   0.80964   0.04117   0.00000  Uiso   1.00
C425   C     0.58049   0.78300   0.03777   0.00000  Uiso   1.00
C426   C     0.57061   0.78797   0.07883   0.00000  Uiso   1.00
C427   C     0.50311   0.81371   0.08268   0.00000  Uiso   1.00
C428   C     0.65987   0.84097   0.23794   0.00000  Uiso   1.00
C429   C     0.34078   0.82474   0.26391   0.00000  Uiso   1.00
C430   C     0.41857   0.85869   0.42007   0.00000  Uiso   1.00
C431   C     0.51299   0.98872   0.23932   0.00000  Uiso   1.00
C432   C     0.48384   0.67970   0.26331   0.00000  Uiso   1.00
C433   C     0.48982   0.72300   0.25854   0.00000  Uiso   1.00
C434   C     0.50987   0.94432   0.24163   0.00000  Uiso   1.00
C435   C     0.52178   0.81191   0.14405   0.00000  Uiso   1.00
C436   C     0.47791   0.85375   0.35632   0.00000  Uiso   1.00
C437   C     0.46262   0.85619   0.39975   0.00000  Uiso   1.00
C438   C     0.53174   0.80337   0.10126   0.00000  Uiso   1.00
C439   C     0.40424   0.85564   0.46052   0.00000  Uiso   1.00
C440   C     0.49144   0.85060   0.42074   0.00000  Uiso   1.00
C441   C     0.47522   0.83968   0.45996   0.00000  Uiso   1.00
C442   C     0.43188   0.84578   0.48049   0.00000  Uiso   1.00
C443   C     0.50024   0.82294   0.47956   0.00000  Uiso   1.00
C444   C     0.48531   0.82171   0.02121   0.00000  Uiso   1.00
C445   C     0.44287   0.83108   0.04114   0.00000  Uiso   1.00
C446   C     0.41626   0.84153   0.02075   0.00000  Uiso   1.00
H447   H     0.38324   0.84661   0.03673   0.00000  Uiso   1.00
H448   H     0.61058   0.77109   0.02064   0.00000  Uiso   1.00
H449   H     0.34952   0.85493   0.21304   0.00000  Uiso   1.00
H450   H     0.54021   0.66899   0.21717   0.00000  Uiso   1.00
H451   H     0.47473   0.82717   0.10143   0.00000  Uiso   1.00
H452   H     0.59245   0.77635   0.46028   0.00000  Uiso   1.00
H453   H     0.37071   0.85896   0.47604   0.00000  Uiso   1.00
H454   H     0.42835   0.82817   0.07212   0.00000  Uiso   1.00
H455   H     0.54628   0.79750   0.42659   0.00000  Uiso   1.00
O456   O     0.50000   0.83333   0.25000   0.00000  Uiso   1.00
O457   O     0.49027   0.79060   0.16625   0.00000  Uiso   1.00
O458   O     0.46020   0.87313   0.33749   0.00000  Uiso   1.00
O459   O     0.54421   0.84159   0.15877   0.00000  Uiso   1.00
O460   O     0.50532   0.82802   0.33749   0.00000  Uiso   1.00
O461   O     0.51182   0.74768   0.27820   0.00000  Uiso   1.00
O462   O     0.47914   0.92803   0.26767   0.00000  Uiso   1.00
O463   O     0.40785   0.79917   0.23607   0.00000  Uiso   1.00
O464   O     0.60119   0.85845   0.21805   0.00000  Uiso   1.00
O465   O     0.40323   0.85627   0.27820   0.00000  Uiso   1.00
O466   O     0.58773   0.81944   0.26767   0.00000  Uiso   1.00
O467   O     0.47133   0.73570   0.23607   0.00000  Uiso   1.00
O468   O     0.53771   0.92193   0.21805   0.00000  Uiso   1.00
Zn469  Zn    0.52577   0.80756   0.28277   0.00000  Uiso   1.00
Zn470  Zn    0.46792   0.79044   0.22257   0.00000  Uiso   1.00
Zn471  Zn    0.54500   0.86331   0.21188   0.00000  Uiso   1.00
Zn472  Zn    0.46131   0.87202   0.28277   0.00000  Uiso   1.00
Br473  Br    0.97318   0.80233   0.31215   0.00000  Uiso   1.00
Br474  Br    0.76615   0.99619   0.30405   0.00000  Uiso   1.00
Br475  Br    0.94437   0.77348   0.10316   0.00000  Uiso   1.00
Br476  Br    0.70876   0.86455   0.39482   0.00000  Uiso   1.00
Br477  Br    0.88506   0.86997   0.39888   0.00000  Uiso   1.00
C478   C     0.71951   0.82724   0.25836   0.00000  Uiso   1.00
C479   C     0.87090   0.80375   0.45837   0.00000  Uiso   1.00
C480   C     0.89675   0.79000   0.47768   0.00000  Uiso   1.00
C481   C     0.94757   0.84008   0.24149   0.00000  Uiso   1.00
C482   C     0.88570   0.79423   0.01880   0.00000  Uiso   1.00
C483   C     0.84619   0.80964   0.04117   0.00000  Uiso   1.00
C484   C     0.91382   0.78300   0.03777   0.00000  Uiso   1.00
C485   C     0.90395   0.78797   0.07883   0.00000  Uiso   1.00
C486   C     0.83645   0.81371   0.08268   0.00000  Uiso   1.00
C487   C     0.99321   0.84097   0.23794   0.00000  Uiso   1.00
C488   C     0.67412   0.82474   0.26391   0.00000  Uiso   1.00
C489   C     0.75191   0.85869   0.42007   0.00000  Uiso   1.00
C490   C     0.84633   0.98872   0.23932   0.00000  Uiso   1.00
C491   C     0.81718   0.67970   0.26331   0.00000  Uiso   1.00
C492   C     0.82316   0.72300   0.25854   0.00000  Uiso   1.00
C493   C     0.84320   0.94432   0.24163   0.00000  Uiso   1.00
C494   C     0.85511   0.81191   0.14405   0.00000  Uiso   1.00
C495   C     0.81124   0.85375   0.35632   0.00000  Uiso   1.00
C496   C     0.79595   0.85619   0.39975   0.00000  Uiso   1.00
C497   C     0.86507   0.80337   0.10126   0.00000  Uiso   1.00
C498   C     0.73757   0.85564   0.46052   0.00000  Uiso   1.00
C499   C     0.82478   0.85060   0.42074   0.00000  Uiso   1.00
C500   C     0.80855   0.83968   0.45996   0.00000  Uiso   1.00
C501   C     0.76521   0.84578   0.48049   0.00000  Uiso   1.00
C502   C     0.83358   0.82294   0.47956   0.00000  Uiso   1.00
C503   C     0.81864   0.82171   0.02121   0.00000  Uiso   1.00
C504   C     0.77620   0.83108   0.04114   0.00000  Uiso   1.00
C505   C     0.74959   0.84153   0.02075   0.00000  Uiso   1.00
H506   H     0.71658   0.84661   0.03673   0.00000  Uiso   1.00
H507   H     0.94391   0.77109   0.02064   0.00000  Uiso   1.00
H508   H     0.68286   0.85493   0.21304   0.00000  Uiso   1.00
H509   H     0.87355   0.66899   0.21717   0.00000  Uiso   1.00
H510   H     0.80807   0.82717   0.10143   0.00000  Uiso   1.00
H511   H     0.92578   0.77635   0.46028   0.00000  Uiso   1.00
H512   H     0.70404   0.85896   0.47604   0.00000  Uiso   1.00
H513   H     0.76168   0.82817   0.07212   0.00000  Uiso   1.00
H514   H     0.87962   0.79750   0.42659   0.00000  Uiso   1.00
O515   O     0.83333   0.83333   0.25000   0.00000  Uiso   1.00
O516   O     0.82360   0.79060   0.16625   0.00000  Uiso   1.00
O517   O     0.79354   0.87313   0.33749   0.00000  Uiso   1.00
O518   O     0.87755   0.84159   0.15877   0.00000  Uiso   1.00
O519   O     0.83865   0.82802   0.33749   0.00000  Uiso   1.00
O520   O     0.84515   0.74768   0.27820   0.00000  Uiso   1.00
O521   O     0.81247   0.92803   0.26767   0.00000  Uiso   1.00
O522   O     0.74119   0.79917   0.23607   0.00000  Uiso   1.00
O523   O     0.93452   0.85845   0.21805   0.00000  Uiso   1.00
O524   O     0.73656   0.85627   0.27820   0.00000  Uiso   1.00
O525   O     0.92106   0.81944   0.26767   0.00000  Uiso   1.00
O526   O     0.80467   0.73570   0.23607   0.00000  Uiso   1.00
O527   O     0.87104   0.92193   0.21805   0.00000  Uiso   1.00
Zn528  Zn    0.85910   0.80756   0.28277   0.00000  Uiso   1.00
Zn529  Zn    0.80125   0.79044   0.22257   0.00000  Uiso   1.00
Zn530  Zn    0.87833   0.86331   0.21188   0.00000  Uiso   1.00
Zn531  Zn    0.79465   0.87202   0.28277   0.00000  Uiso   1.00
Br532  Br    0.30651   0.13566   0.81215   0.00000  Uiso   1.00
Br533  Br    0.09948   0.32952   0.80405   0.00000  Uiso   1.00
Br534  Br    0.27770   0.10681   0.60316   0.00000  Uiso   1.00
Br535  Br    0.04209   0.19789   0.89482   0.00000  Uiso   1.00
Br536  Br    0.21840   0.20330   0.89888   0.00000  Uiso   1.00
C537   C     0.05284   0.16057   0.75836   0.00000  Uiso   1.00
C538   C     0.20424   0.13708   0.95837   0.00000  Uiso   1.00
C539   C     0.23008   0.12334   0.97768   0.00000  Uiso   1.00
C540   C     0.28091   0.17341   0.74149   0.00000  Uiso   1.00
C541   C     0.21904   0.12756   0.51880   0.00000  Uiso   1.00
C542   C     0.17952   0.14297   0.54117   0.00000  Uiso   1.00
C543   C     0.24716   0.11633   0.53777   0.00000  Uiso   1.00
C544   C     0.23728   0.12130   0.57883   0.00000  Uiso   1.00
C545   C     0.16978   0.14705   0.58268   0.00000  Uiso   1.00
C546   C     0.32654   0.17431   0.73794   0.00000  Uiso   1.00
C547   C     0.00745   0.15807   0.76391   0.00000  Uiso   1.00
C548   C     0.08524   0.19203   0.92007   0.00000  Uiso   1.00
C549   C     0.17966   0.32206   0.73932   0.00000  Uiso   1.00
C550   C     0.15051   0.01303   0.76331   0.00000  Uiso   1.00
C551   C     0.15649   0.05633   0.75854   0.00000  Uiso   1.00
C552   C     0.17654   0.27765   0.74163   0.00000  Uiso   1.00
C553   C     0.18845   0.14524   0.64405   0.00000  Uiso   1.00
C554   C     0.14457   0.18709   0.85632   0.00000  Uiso   1.00
C555   C     0.12928   0.18953   0.89975   0.00000  Uiso   1.00
C556   C     0.19841   0.13670   0.60126   0.00000  Uiso   1.00
C557   C     0.07090   0.18898   0.96052   0.00000  Uiso   1.00
C558   C     0.15811   0.18394   0.92074   0.00000  Uiso   1.00
C559   C     0.14188   0.17302   0.95996   0.00000  Uiso   1.00
C560   C     0.09854   0.17912   0.98049   0.00000  Uiso   1.00
C561   C     0.16691   0.15627   0.97956   0.00000  Uiso   1.00
C562   C     0.15197   0.15504   0.52121   0.00000  Uiso   1.00
C563   C     0.10953   0.16441   0.54114   0.00000  Uiso   1.00
C564   C     0.08293   0.17486   0.52075   0.00000  Uiso   1.00
H565   H     0.04991   0.17994   0.53673   0.00000  Uiso   1.00
H566   H     0.27725   0.10442   0.52064   0.00000  Uiso   1.00
H567   H     0.01619   0.18827   0.71304   0.00000  Uiso   1.00
H568   H     0.20688   0.00232   0.71717   0.00000  Uiso   1.00
H569   H     0.14140   0.16050   0.60143   0.00000  Uiso   1.00
H570   H     0.25912   0.10968   0.96028   0.00000  Uiso   1.00
H571   H     0.03738   0.19229   0.97604   0.00000  Uiso   1.00
H572   H     0.09502   0.16150   0.57212   0.00000  Uiso   1.00
H573   H     0.21295   0.13084   0.92659   0.00000  Uiso   1.00
O574   O     0.16667   0.16667   0.75000   0.00000  Uiso   1.00
O575   O     0.15693   0.12393   0.66625   0.00000  Uiso   1.00
O576   O     0.12687   0.20646   0.83749   0.00000  Uiso   1.00
O577   O     0.21088   0.17493   0.65877   0.00000  Uiso   1.00
O578   O     0.17198   0.16135   0.83749   0.00000  Uiso   1.00
O579   O     0.17849   0.08101   0.77820   0.00000  Uiso   1.00
O580   O     0.14581   0.26136   0.76767   0.00000  Uiso   1.00
O581   O     0.07452   0.13251   0.73607   0.00000  Uiso   1.00
O582   O     0.26785   0.19179   0.71805   0.00000  Uiso   1.00
O583   O     0.06990   0.18960   0.77820   0.00000  Uiso   1.00
O584   O     0.25440   0.15277   0.76767   0.00000  Uiso   1.00
O585   O     0.13800   0.06903   0.73607   0.00000  Uiso   1.00
O586   O     0.20437   0.25527   0.71805   0.00000  Uiso   1.00
Zn587  Zn    0.19244   0.14090   0.78277   0.00000  Uiso   1.00
Zn588  Zn    0.13459   0.12378   0.72257   0.00000  Uiso   1.00
Zn589  Zn    0.21166   0.19664   0.71188   0.00000  Uiso   1.00
Zn590  Zn    0.12798   0.20535   0.78277   0.00000  Uiso   1.00
Br591  Br    0.63984   0.13566   0.81215   0.00000  Uiso   1.00
Br592  Br    0.43282   0.32952   0.80405   0.00000  Uiso   1.00
Br593  Br    0.61103   0.10681   0.60316   0.00000  Uiso   1.00
Br594  Br    0.37543   0.19789   0.89482   0.00000  Uiso   1.00
Br595  Br    0.55173   0.20330   0.89888   0.00000  Uiso   1.00
C596   C     0.38618   0.16057   0.75836   0.00000  Uiso   1.00
C597   C     0.53757   0.13708   0.95837   0.00000  Uiso   1.00
C598   C     0.56342   0.12334   0.97768   0.00000  Uiso   1.00
C599   C     0.61424   0.17341   0.74149   0.00000  Uiso   1.00
C600   C     0.55237   0.12756   0.51880   0.00000  Uiso   1.00
C601   C     0.51285   0.14297   0.54117   0.00000  Uiso   1.00
C602   C     0.58049   0.11633   0.53777   0.00000  Uiso   1.00
C603   C     0.57061   0.12130   0.57883   0.00000  Uiso   1.00
C604   C     0.50311   0.14705   0.58268   0.00000  Uiso   1.00
C605   C     0.65987   0.17431   0.73794   0.00000  Uiso   1.00
C606   C     0.34078   0.15807   0.76391   0.00000  Uiso   1.00
C607   C     0.41857   0.19203   0.92007   0.00000  Uiso   1.00
C608   C     0.51299   0.32206   0.73932   0.00000  Uiso   1.00
C609   C     0.48384   0.01303   0.76331   0.00000  Uiso   1.00
C610   C     0.48982   0.05633   0.75854   0.00000  Uiso   1.00
C611   C     0.50987   0.27765   0.74163   0.00000  Uiso   1.00
C612   C     0.52178   0.14524   0.64405   0.00000  Uiso   1.00
C613   C     0.47791   0.18709   0.85632   0.00000  Uiso   1.00
C614   C     0.46262   0.18953   0.89975   0.00000  Uiso   1.00
C615   C     0.53174   0.13670   0.60126   0.00000  Uiso   1.00
C616   C     0.40424   0.18898   0.96052   0.00000  Uiso   1.00
C617   C     0.49144   0.18394   0.92074   0.00000  Uiso   1.00
C618   C     0.47522   0.17302   0.95996   0.00000  Uiso   1.00
C619   C     0.43188   0.17912   0.98049   0.00000  Uiso   1.00
C620   C     0.50024   0.15627   0.97956   0.00000  Uiso   1.00
C621   C     0.48531   0.15504   0.52121   0.00000  Uiso   1.00
C622   C     0.44287   0.16441   0.54114   0.00000  Uiso   1.00
C623   C     0.41626   0.17486   0.52075   0.00000  Uiso   1.00
H624   H     0.38324   0.17994   0.53673   0.00000  Uiso   1.00
H625   H     0.61058   0.10442   0.52064   0.00000  Uiso   1.00
H626   H     0.34952   0.18827   0.71304   0.00000  Uiso   1.00
H627   H     0.54021   0.00232   0.71717   0.00000  Uiso   1.00
H628   H     0.47473   0.16050   0.60143   0.00000  Uiso   1.00
H629   H     0.59245   0.10968   0.96028   0.00000  Uiso   1.00
H630   H     0.37071   0.19229   0.97604   0.00000  Uiso   1.00
H631   H     0.42835   0.16150   0.57212   0.00000  Uiso   1.00
H632   H     0.54628   0.13084   0.92659   0.00000  Uiso   1.00
O633   O     0.50000   0.16667   0.75000   0.00000  Uiso   1.00
O634   O     0.49027   0.12393   0.66625   0.00000  Uiso   1.00
O635   O     0.46020   0.20646   0.83749   0.00000  Uiso   1.00
O636   O     0.54421   0.17493   0.65877   0.00000  Uiso   1.00
O637   O     0.50532   0.16135   0.83749   0.00000  Uiso   1.00
O638   O     0.51182   0.08101   0.77820   0.00000  Uiso   1.00
O639   O     0.47914   0.26136   0.76767   0.00000  Uiso   1.00
O640   O     0.40785   0.13251   0.73607   0.00000  Uiso   1.00
O641   O     0.60119   0.19179   0.71805   0.00000  Uiso   1.00
O642   O     0.40323   0.18960   0.77820   0.00000  Uiso   1.00
O643   O     0.58773   0.15277   0.76767   0.00000  Uiso   1.00
O644   O     0.47133   0.06903   0.73607   0.00000  Uiso   1.00
O645   O     0.53771   0.25527   0.71805   0.00000  Uiso   1.00
Zn646  Zn    0.52577   0.14090   0.78277   0.00000  Uiso   1.00
Zn647  Zn    0.46792   0.12378   0.72257   0.00000  Uiso   1.00
Zn648  Zn    0.54500   0.19664   0.71188   0.00000  Uiso   1.00
Zn649  Zn    0.46131   0.20535   0.78277   0.00000  Uiso   1.00
Br650  Br    0.97318   0.13566   0.81215   0.00000  Uiso   1.00
Br651  Br    0.76615   0.32952   0.80405   0.00000  Uiso   1.00
Br652  Br    0.94437   0.10681   0.60316   0.00000  Uiso   1.00
Br653  Br    0.70876   0.19789   0.89482   0.00000  Uiso   1.00
Br654  Br    0.88506   0.20330   0.89888   0.00000  Uiso   1.00
C655   C     0.71951   0.16057   0.75836   0.00000  Uiso   1.00
C656   C     0.87090   0.13708   0.95837   0.00000  Uiso   1.00
C657   C     0.89675   0.12334   0.97768   0.00000  Uiso   1.00
C658   C     0.94757   0.17341   0.74149   0.00000  Uiso   1.00
C659   C     0.88570   0.12756   0.51880   0.00000  Uiso   1.00
C660   C     0.84619   0.14297   0.54117   0.00000  Uiso   1.00
C661   C     0.91382   0.11633   0.53777   0.00000  Uiso   1.00
C662   C     0.90395   0.12130   0.57883   0.00000  Uiso   1.00
C663   C     0.83645   0.14705   0.58268   0.00000  Uiso   1.00
C664   C     0.99321   0.17431   0.73794   0.00000  Uiso   1.00
C665   C     0.67412   0.15807   0.76391   0.00000  Uiso   1.00
C666   C     0.75191   0.19203   0.92007   0.00000  Uiso   1.00
C667   C     0.84633   0.32206   0.73932   0.00000  Uiso   1.00
C668   C     0.81718   0.01303   0.76331   0.00000  Uiso   1.00
C669   C     0.82316   0.05633   0.75854   0.00000  Uiso   1.00
C670   C     0.84320   0.27765   0.74163   0.00000  Uiso   1.00
C671   C     0.85511   0.14524   0.64405   0.00000  Uiso   1.00
C672   C     0.81124   0.18709   0.85632   0.00000  Uiso   1.00
C673   C     0.79595   0.18953   0.89975   0.00000  Uiso   1.00
C674   C     0.86507   0.13670   0.60126   0.00000  Uiso   1.00
C675   C     0.73757   0.18898   0.96052   0.00000  Uiso   1.00
C676   C     0.82478   0.18394   0.92074   0.00000  Uiso   1.00
C677   C     0.80855   0.17302   0.95996   0.00000  Uiso   1.00
C678   C     0.76521   0.17912   0.98049   0.00000  Uiso   1.00
C679   C     0.83358   0.15627   0.97956   0.00000  Uiso   1.00
C680   C     0.81864   0.15504   0.52121   0.00000  Uiso   1.00
C681   C     0.77620   0.16441   0.54114   0.00000  Uiso   1.00
C682   C     0.74959   0.17486   0.52075   0.00000  Uiso   1.00
H683   H     0.71658   0.17994   0.53673   0.00000  Uiso   1.00
H684   H     0.94391   0.10442   0.52064   0.00000  Uiso   1.00
H685   H     0.68286   0.18827   0.71304   0.00000  Uiso   1.00
H686   H     0.87355   0.00232   0.71717   0.00000  Uiso   1.00
H687   H     0.80807   0.16050   0.60143   0.00000  Uiso   1.00
H688   H     0.92578   0.10968   0.96028   0.00000  Uiso   1.00
H689   H     0.70404   0.19229   0.97604   0.00000  Uiso   1.00
H690   H     0.76168   0.16150   0.57212   0.00000  Uiso   1.00
H691   H     0.87962   0.13084   0.92659   0.00000  Uiso   1.00
O692   O     0.83333   0.16667   0.75000   0.00000  Uiso   1.00
O693   O     0.82360   0.12393   0.66625   0.00000  Uiso   1.00
O694   O     0.79354   0.20646   0.83749   0.00000  Uiso   1.00
O695   O     0.87755   0.17493   0.65877   0.00000  Uiso   1.00
O696   O     0.83865   0.16135   0.83749   0.00000  Uiso   1.00
O697   O     0.84515   0.08101   0.77820   0.00000  Uiso   1.00
O698   O     0.81247   0.26136   0.76767   0.00000  Uiso   1.00
O699   O     0.74119   0.13251   0.73607   0.00000  Uiso   1.00
O700   O     0.93452   0.19179   0.71805   0.00000  Uiso   1.00
O701   O     0.73656   0.18960   0.77820   0.00000  Uiso   1.00
O702   O     0.92106   0.15277   0.76767   0.00000  Uiso   1.00
O703   O     0.80467   0.06903   0.73607   0.00000  Uiso   1.00
O704   O     0.87104   0.25527   0.71805   0.00000  Uiso   1.00
Zn705  Zn    0.85910   0.14090   0.78277   0.00000  Uiso   1.00
Zn706  Zn    0.80125   0.12378   0.72257   0.00000  Uiso   1.00
Zn707  Zn    0.87833   0.19664   0.71188   0.00000  Uiso   1.00
Zn708  Zn    0.79465   0.20535   0.78277   0.00000  Uiso   1.00
Br709  Br    0.30651   0.46899   0.81215   0.00000  Uiso   1.00
Br710  Br    0.09948   0.66286   0.80405   0.00000  Uiso   1.00
Br711  Br    0.27770   0.44015   0.60316   0.00000  Uiso   1.00
Br712  Br    0.04209   0.53122   0.89482   0.00000  Uiso   1.00
Br713  Br    0.21840   0.53664   0.89888   0.00000  Uiso   1.00
C714   C     0.05284   0.49391   0.75836   0.00000  Uiso   1.00
C715   C     0.20424   0.47041   0.95837   0.00000  Uiso   1.00
C716   C     0.23008   0.45667   0.97768   0.00000  Uiso   1.00
C717   C     0.28091   0.50675   0.74149   0.00000  Uiso   1.00
C718   C     0.21904   0.46089   0.51880   0.00000  Uiso   1.00
C719   C     0.17952   0.47631   0.54117   0.00000  Uiso   1.00
C720   C     0.24716   0.44967   0.53777   0.00000  Uiso   1.00
C721   C     0.23728   0.45464   0.57883   0.00000  Uiso   1.00
C722   C     0.16978   0.48038   0.58268   0.00000  Uiso   1.00
C723   C     0.32654   0.50764   0.73794   0.00000  Uiso   1.00
C724   C     0.00745   0.49140   0.76391   0.00000  Uiso   1.00
C725   C     0.08524   0.52536   0.92007   0.00000  Uiso   1.00
C726   C     0.17966   0.65539   0.73932   0.00000  Uiso   1.00
C727   C     0.15051   0.34637   0.76331   0.00000  Uiso   1.00
C728   C     0.15649   0.38967   0.75854   0.00000  Uiso   1.00
C729   C     0.17654   0.61099   0.74163   0.00000  Uiso   1.00
C730   C     0.18845   0.47858   0.64405   0.00000  Uiso   1.00
C731   C     0.14457   0.52042   0.85632   0.00000  Uiso   1.00
C732   C     0.12928   0.52286   0.89975   0.00000  Uiso   1.00
C733   C     0.19841   0.47003   0.60126   0.00000  Uiso   1.00
C734   C     0.07090   0.52231   0.96052   0.00000  Uiso   1.00
C735   C     0.15811   0.51727   0.92074   0.00000  Uiso   1.00
C736   C     0.14188   0.50635   0.95996   0.00000  Uiso   1.00
C737   C     0.09854   0.51245   0.98049   0.00000  Uiso   1.00
C738   C     0.16691   0.48961   0.97956   0.00000  Uiso   1.00
C739   C     0.15197   0.48838   0.52121   0.00000  Uiso   1.00
C740   C     0.10953   0.49775   0.54114   0.00000  Uiso   1.00
C741   C     0.08293   0.50820   0.52075   0.00000  Uiso   1.00
H742   H     0.04991   0.51328   0.53673   0.00000  Uiso   1.00
H743   H     0.27725   0.43775   0.52064   0.00000  Uiso   1.00
H744   H     0.01619   0.52160   0.71304   0.00000  Uiso   1.00
H745   H     0.20688   0.33565   0.71717   0.00000  Uiso   1.00
H746   H     0.14140   0.49384   0.60143   0.00000  Uiso   1.00
H747   H     0.25912   0.44302   0.96028   0.00000  Uiso   1.00
H748   H     0.03738   0.52563   0.97604   0.00000  Uiso   1.00
H749   H     0.09502   0.49483   0.57212   0.00000  Uiso   1.00
H750   H     0.21295   0.46417   0.92659   0.00000  Uiso   1.00
O751   O     0.16667   0.50000   0.75000   0.00000  Uiso   1.00
O752   O     0.15693   0.45726   0.66625   0.00000  Uiso   1.00
O753   O     0.12687   0.53979   0.83749   0.00000  Uiso   1.00
O754   O     0.21088   0.50826   0.65877   0.00000  Uiso   1.00
O755   O     0.17198   0.49468   0.83749   0.00000  Uiso   1.00
O756   O     0.17849   0.41434   0.77820   0.00000  Uiso   1.00
O757   O     0.14581   0.59469   0.76767   0.00000  Uiso   1.00
O758   O     0.07452   0.46584   0.73607   0.00000  Uiso   1.00
O759   O     0.26785   0.52512   0.71805   0.00000  Uiso   1.00
O760   O     0.06990   0.52293   0.77820   0.00000  Uiso   1.00
O761   O     0.25440   0.48610   0.76767   0.00000  Uiso   1.00
O762   O     0.13800   0.40236   0.73607   0.00000  Uiso   1.00
O763   O     0.20437   0.58860   0.71805   0.00000  Uiso   1.00
Zn764  Zn    0.19244   0.47423   0.78277   0.00000  Uiso   1.00
Zn765  Zn    0.13459   0.45711   0.72257   0.00000  Uiso   1.00
Zn766  Zn    0.21166   0.52997   0.71188   0.00000  Uiso   1.00
Zn767  Zn    0.12798   0.53868   0.78277   0.00000  Uiso   1.00
Br768  Br    0.63984   0.46899   0.81215   0.00000  Uiso   1.00
Br769  Br    0.43282   0.66286   0.80405   0.00000  Uiso   1.00
Br770  Br    0.61103   0.44015   0.60316   0.00000  Uiso   1.00
Br771  Br    0.37543   0.53122   0.89482   0.00000  Uiso   1.00
Br772  Br    0.55173   0.53664   0.89888   0.00000  Uiso   1.00
C773   C     0.38618   0.49391   0.75836   0.00000  Uiso   1.00
C774   C     0.53757   0.47041   0.95837   0.00000  Uiso   1.00
C775   C     0.56342   0.45667   0.97768   0.00000  Uiso   1.00
C776   C     0.61424   0.50675   0.74149   0.00000  Uiso   1.00
C777   C     0.55237   0.46089   0.51880   0.00000  Uiso   1.00
C778   C     0.51285   0.47631   0.54117   0.00000  Uiso   1.00
C779   C     0.58049   0.44967   0.53777   0.00000  Uiso   1.00
C780   C     0.57061   0.45464   0.57883   0.00000  Uiso   1.00
C781   C     0.50311   0.48038   0.58268   0.00000  Uiso   1.00
C782   C     0.65987   0.50764   0.73794   0.00000  Uiso   1.00
C783   C     0.34078   0.49140   0.76391   0.00000  Uiso   1.00
C784   C     0.41857   0.52536   0.92007   0.00000  Uiso   1.00
C785   C     0.51299   0.65539   0.73932   0.00000  Uiso   1.00
C786   C     0.48384   0.34637   0.76331   0.00000  Uiso   1.00
C787   C     0.48982   0.38967   0.75854   0.00000  Uiso   1.00
C788   C     0.50987   0.61099   0.74163   0.00000  Uiso   1.00
C789   C     0.52178   0.47858   0.64405   0.00000  Uiso   1.00
C790   C     0.47791   0.52042   0.85632   0.00000  Uiso   1.00
C791   C     0.46262   0.52286   0.89975   0.00000  Uiso   1.00
C792   C     0.53174   0.47003   0.60126   0.00000  Uiso   1.00
C793   C     0.40424   0.52231   0.96052   0.00000  Uiso   1.00
C794   C     0.49144   0.51727   0.92074   0.00000  Uiso   1.00
C795   C     0.47522   0.50635   0.95996   0.00000  Uiso   1.00
C796   C     0.43188   0.51245   0.98049   0.00000  Uiso   1.00
C797   C     0.50024   0.48961   0.97956   0.00000  Uiso   1.00
C798   C     0.48531   0.48838   0.52121   0.00000  Uiso   1.00
C799   C     0.44287   0.49775   0.54114   0.00000  Uiso   1.00
C800   C     0.41626   0.50820   0.52075   0.00000  Uiso   1.00
H801   H     0.38324   0.51328   0.53673   0.00000  Uiso   1.00
H802   H     0.61058   0.43775   0.52064   0.00000  Uiso   1.00
H803   H     0.34952   0.52160   0.71304   0.00000  Uiso   1.00
H804   H     0.54021   0.33565   0.71717   0.00000  Uiso   1.00
H805   H     0.47473   0.49384   0.60143   0.00000  Uiso   1.00
H806   H     0.59245   0.44302   0.96028   0.00000  Uiso   1.00
H807   H     0.37071   0.52563   0.97604   0.00000  Uiso   1.00
H808   H     0.42835   0.49483   0.57212   0.00000  Uiso   1.00
H809   H     0.54628   0.46417   0.92659   0.00000  Uiso   1.00
O810   O     0.50000   0.50000   0.75000   0.00000  Uiso   1.00
O811   O     0.49027   0.45726   0.66625   0.00000  Uiso   1.00
O812   O     0.46020   0.53979   0.83749   0.00000  Uiso   1.00
O813   O     0.54421   0.50826   0.65877   0.00000  Uiso   1.00
O814   O     0.50532   0.49468   0.83749   0.00000  Uiso   1.00
O815   O     0.51182   0.41434   0.77820   0.00000  Uiso   1.00
O816   O     0.47914   0.59469   0.76767   0.00000  Uiso   1.00
O817   O     0.40785   0.46584   0.73607   0.00000  Uiso   1.00
O818   O     0.60119   0.52512   0.71805   0.00000  Uiso   1.00
O819   O     0.40323   0.52293   0.77820   0.00000  Uiso   1.00
O820   O     0.58773   0.48610   0.76767   0.00000  Uiso   1.00
O821   O     0.47133   0.40236   0.73607   0.00000  Uiso   1.00
O822   O     0.53771   0.58860   0.71805   0.00000  Uiso   1.00
Zn823  Zn    0.52577   0.47423   0.78277   0.00000  Uiso   1.00
Zn824  Zn    0.46792   0.45711   0.72257   0.00000  Uiso   1.00
Zn825  Zn    0.54500   0.52997   0.71188   0.00000  Uiso   1.00
Zn826  Zn    0.46131   0.53868   0.78277   0.00000  Uiso   1.00
Br827  Br    0.97318   0.46899   0.81215   0.00000  Uiso   1.00
Br828  Br    0.76615   0.66286   0.80405   0.00000  Uiso   1.00
Br829  Br    0.94437   0.44015   0.60316   0.00000  Uiso   1.00
Br830  Br    0.70876   0.53122   0.89482   0.00000  Uiso   1.00
Br831  Br    0.88506   0.53664   0.89888   0.00000  Uiso   1.00
C832   C     0.71951   0.49391   0.75836   0.00000  Uiso   1.00
C833   C     0.87090   0.47041   0.95837   0.00000  Uiso   1.00
C834   C     0.89675   0.45667   0.97768   0.00000  Uiso   1.00
C835   C     0.94757   0.50675   0.74149   0.00000  Uiso   1.00
C836   C     0.88570   0.46089   0.51880   0.00000  Uiso   1.00
C837   C     0.84619   0.47631   0.54117   0.00000  Uiso   1.00
C838   C     0.91382   0.44967   0.53777   0.00000  Uiso   1.00
C839   C     0.90395   0.45464   0.57883   0.00000  Uiso   1.00
C840   C     0.83645   0.48038   0.58268   0.00000  Uiso   1.00
C841   C     0.99321   0.50764   0.73794   0.00000  Uiso   1.00
C842   C     0.67412   0.49140   0.76391   0.00000  Uiso   1.00
C843   C     0.75191   0.52536   0.92007   0.00000  Uiso   1.00
C844   C     0.84633   0.65539   0.73932   0.00000  Uiso   1.00
C845   C     0.81718   0.34637   0.76331   0.00000  Uiso   1.00
C846   C     0.82316   0.38967   0.75854   0.00000  Uiso   1.00
C847   C     0.84320   0.61099   0.74163   0.00000  Uiso   1.00
C848   C     0.85511   0.47858   0.64405   0.00000  Uiso   1.00
C849   C     0.81124   0.52042   0.85632   0.00000  Uiso   1.00
C850   C     0.79595   0.52286   0.89975   0.00000  Uiso   1.00
C851   C     0.86507   0.47003   0.60126   0.00000  Uiso   1.00
C852   C     0.73757   0.52231   0.96052   0.00000  Uiso   1.00
C853   C     0.82478   0.51727   0.92074   0.00000  Uiso   1.00
C854   C     0.80855   0.50635   0.95996   0.00000  Uiso   1.00
C855   C     0.76521   0.51245   0.98049   0.00000  Uiso   1.00
C856   C     0.83358   0.48961   0.97956   0.00000  Uiso   1.00
C857   C     0.81864   0.48838   0.52121   0.00000  Uiso   1.00
C858   C     0.77620   0.49775   0.54114   0.00000  Uiso   1.00
C859   C     0.74959   0.50820   0.52075   0.00000  Uiso   1.00
H860   H     0.71658   0.51328   0.53673   0.00000  Uiso   1.00
H861   H     0.94391   0.43775   0.52064   0.00000  Uiso   1.00
H862   H     0.68286   0.52160   0.71304   0.00000  Uiso   1.00
H863   H     0.87355   0.33565   0.71717   0.00000  Uiso   1.00
H864   H     0.80807   0.49384   0.60143   0.00000  Uiso   1.00
H865   H     0.92578   0.44302   0.96028   0.00000  Uiso   1.00
H866   H     0.70404   0.52563   0.97604   0.00000  Uiso   1.00
H867   H     0.76168   0.49483   0.57212   0.00000  Uiso   1.00
H868   H     0.87962   0.46417   0.92659   0.00000  Uiso   1.00
O869   O     0.83333   0.50000   0.75000   0.00000  Uiso   1.00
O870   O     0.82360   0.45726   0.66625   0.00000  Uiso   1.00
O871   O     0.79354   0.53979   0.83749   0.00000  Uiso   1.00
O872   O     0.87755   0.50826   0.65877   0.00000  Uiso   1.00
O873   O     0.83865   0.49468   0.83749   0.00000  Uiso   1.00
O874   O     0.84515   0.41434   0.77820   0.00000  Uiso   1.00
O875   O     0.81247   0.59469   0.76767   0.00000  Uiso   1.00
O876   O     0.74119   0.46584   0.73607   0.00000  Uiso   1.00
O877   O     0.93452   0.52512   0.71805   0.00000  Uiso   1.00
O878   O     0.73656   0.52293   0.77820   0.00000  Uiso   1.00
O879   O     0.92106   0.48610   0.76767   0.00000  Uiso   1.00
O880   O     0.80467   0.40236   0.73607   0.00000  Uiso   1.00
O881   O     0.87104   0.58860   0.71805   0.00000  Uiso   1.00
Zn882  Zn    0.85910   0.47423   0.78277   0.00000  Uiso   1.00
Zn883  Zn    0.80125   0.45711   0.72257   0.00000  Uiso   1.00
Zn884  Zn    0.87833   0.52997   0.71188   0.00000  Uiso   1.00
Zn885  Zn    0.79465   0.53868   0.78277   0.00000  Uiso   1.00
Br886  Br    0.30651   0.80233   0.81215   0.00000  Uiso   1.00
Br887  Br    0.09948   0.99619   0.80405   0.00000  Uiso   1.00
Br888  Br    0.27770   0.77348   0.60316   0.00000  Uiso   1.00
Br889  Br    0.04209   0.86455   0.89482   0.00000  Uiso   1.00
Br890  Br    0.21840   0.86997   0.89888   0.00000  Uiso   1.00
C891   C     0.05284   0.82724   0.75836   0.00000  Uiso   1.00
C892   C     0.20424   0.80375   0.95837   0.00000  Uiso   1.00
C893   C     0.23008   0.79000   0.97768   0.00000  Uiso   1.00
C894   C     0.28091   0.84008   0.74149   0.00000  Uiso   1.00
C895   C     0.21904   0.79423   0.51880   0.00000  Uiso   1.00
C896   C     0.17952   0.80964   0.54117   0.00000  Uiso   1.00
C897   C     0.24716   0.78300   0.53777   0.00000  Uiso   1.00
C898   C     0.23728   0.78797   0.57883   0.00000  Uiso   1.00
C899   C     0.16978   0.81371   0.58268   0.00000  Uiso   1.00
C900   C     0.32654   0.84097   0.73794   0.00000  Uiso   1.00
C901   C     0.00745   0.82474   0.76391   0.00000  Uiso   1.00
C902   C     0.08524   0.85869   0.92007   0.00000  Uiso   1.00
C903   C     0.17966   0.98872   0.73932   0.00000  Uiso   1.00
C904   C     0.15051   0.67970   0.76331   0.00000  Uiso   1.00
C905   C     0.15649   0.72300   0.75854   0.00000  Uiso   1.00
C906   C     0.17654   0.94432   0.74163   0.00000  Uiso   1.00
C907   C     0.18845   0.81191   0.64405   0.00000  Uiso   1.00
C908   C     0.14457   0.85375   0.85632   0.00000  Uiso   1.00
C909   C     0.12928   0.85619   0.89975   0.00000  Uiso   1.00
C910   C     0.19841   0.80337   0.60126   0.00000  Uiso   1.00
C911   C     0.07090   0.85564   0.96052   0.00000  Uiso   1.00
C912   C     0.15811   0.85060   0.92074   0.00000  Uiso   1.00
C913   C     0.14188   0.83968   0.95996   0.00000  Uiso   1.00
C914   C     0.09854   0.84578   0.98049   0.00000  Uiso   1.00
C915   C     0.16691   0.82294   0.97956   0.00000  Uiso   1.00
C916   C     0.15197   0.82171   0.52121   0.00000  Uiso   1.00
C917   C     0.10953   0.83108   0.54114   0.00000  Uiso   1.00
C918   C     0.08293   0.84153   0.52075   0.00000  Uiso   1.00
H919   H     0.04991   0.84661   0.53673   0.00000  Uiso   1.00
H920   H     0.27725   0.77109   0.52064   0.00000  Uiso   1.00
H921   H     0.01619   0.85493   0.71304   0.00000  Uiso   1.00
H922   H     0.20688   0.66899   0.71717   0.00000  Uiso   1.00
H923   H     0.14140   0.82717   0.60143   0.00000  Uiso   1.00
H924   H     0.25912   0.77635   0.96028   0.00000  Uiso   1.00
H925   H     0.03738   0.85896   0.97604   0.00000  Uiso   1.00
H926   H     0.09502   0.82817   0.57212   0.00000  Uiso   1.00
H927   H     0.21295   0.79750   0.92659   0.00000  Uiso   1.00
O928   O     0.16667   0.83333   0.75000   0.00000  Uiso   1.00
O929   O     0.15693   0.79060   0.66625   0.00000  Uiso   1.00
O930   O     0.12687   0.87313   0.83749   0.00000  Uiso   1.00
O931   O     0.21088   0.84159   0.65877   0.00000  Uiso   1.00
O932   O     0.17198   0.82802   0.83749   0.00000  Uiso   1.00
O933   O     0.17849   0.74768   0.77820   0.00000  Uiso   1.00
O934   O     0.14581   0.92803   0.76767   0.00000  Uiso   1.00
O935   O     0.07452   0.79917   0.73607   0.00000  Uiso   1.00
O936   O     0.26785   0.85845   0.71805   0.00000  Uiso   1.00
O937   O     0.06990   0.85627   0.77820   0.00000  Uiso   1.00
O938   O     0.25440   0.81944   0.76767   0.00000  Uiso   1.00
O939   O     0.13800   0.73570   0.73607   0.00000  Uiso   1.00
O940   O     0.20437   0.92193   0.71805   0.00000  Uiso   1.00
Zn941  Zn    0.19244   0.80756   0.78277   0.00000  Uiso   1.00
Zn942  Zn    0.13459   0.79044   0.72257   0.00000  Uiso   1.00
Zn943  Zn    0.21166   0.86331   0.71188   0.00000  Uiso   1.00
Zn944  Zn    0.12798   0.87202   0.78277   0.00000  Uiso   1.00
Br945  Br    0.63984   0.80233   0.81215   0.00000  Uiso   1.00
Br946  Br    0.43282   0.99619   0.80405   0.00000  Uiso   1.00
Br947  Br    0.61103   0.77348   0.60316   0.00000  Uiso   1.00
Br948  Br    0.37543   0.86455   0.89482   0.00000  Uiso   1.00
Br949  Br    0.55173   0.86997   0.89888   0.00000  Uiso   1.00
C950   C     0.38618   0.82724   0.75836   0.00000  Uiso   1.00
C951   C     0.53757   0.80375   0.95837   0.00000  Uiso   1.00
C952   C     0.56342   0.79000   0.97768   0.00000  Uiso   1.00
C953   C     0.61424   0.84008   0.74149   0.00000  Uiso   1.00
C954   C     0.55237   0.79423   0.51880   0.00000  Uiso   1.00
C955   C     0.51285   0.80964   0.54117   0.00000  Uiso   1.00
C956   C     0.58049   0.78300   0.53777   0.00000  Uiso   1.00
C957   C     0.57061   0.78797   0.57883   0.00000  Uiso   1.00
C958   C     0.50311   0.81371   0.58268   0.00000  Uiso   1.00
C959   C     0.65987   0.84097   0.73794   0.00000  Uiso   1.00
C960   C     0.34078   0.82474   0.76391   0.00000  Uiso   1.00
C961   C     0.41857   0.85869   0.92007   0.00000  Uiso   1.00
C962   C     0.51299   0.98872   0.73932   0.00000  Uiso   1.00
C963   C     0.48384   0.67970   0.76331   0.00000  Uiso   1.00
C964   C     0.48982   0.72300   0.75854   0.00000  Uiso   1.00
C965   C     0.50987   0.94432   0.74163   0.00000  Uiso   1.00
C966   C     0.52178   0.81191   0.64405   0.00000  Uiso   1.00
C967   C     0.47791   0.85375   0.85632   0.00000  Uiso   1.00
C968   C     0.46262   0.85619   0.89975   0.00000  Uiso   1.00
C969   C     0.53174   0.80337   0.60126   0.00000  Uiso   1.00
C970   C     0.40424   0.85564   0.96052   0.00000  Uiso   1.00
C971   C     0.49144   0.85060   0.92074   0.00000  Uiso   1.00
C972   C     0.47522   0.83968   0.95996   0.00000  Uiso   1.00
C973   C     0.43188   0.84578   0.98049   0.00000  Uiso   1.00
C974   C     0.50024   0.82294   0.97956   0.00000  Uiso   1.00
C975   C     0.48531   0.82171   0.52121   0.00000  Uiso   1.00
C976   C     0.44287   0.83108   0.54114   0.00000  Uiso   1.00
C977   C     0.41626   0.84153   0.52075   0.00000  Uiso   1.00
H978   H     0.38324   0.84661   0.53673   0.00000  Uiso   1.00
H979   H     0.61058   0.77109   0.52064   0.00000  Uiso   1.00
H980   H     0.34952   0.85493   0.71304   0.00000  Uiso   1.00
H981   H     0.54021   0.66899   0.71717   0.00000  Uiso   1.00
H982   H     0.47473   0.82717   0.60143   0.00000  Uiso   1.00
H983   H     0.59245   0.77635   0.96028   0.00000  Uiso   1.00
H984   H     0.37071   0.85896   0.97604   0.00000  Uiso   1.00
H985   H     0.42835   0.82817   0.57212   0.00000  Uiso   1.00
H986   H     0.54628   0.79750   0.92659   0.00000  Uiso   1.00
O987   O     0.50000   0.83333   0.75000   0.00000  Uiso   1.00
O988   O     0.49027   0.79060   0.66625   0.00000  Uiso   1.00
O989   O     0.46020   0.87313   0.83749   0.00000  Uiso   1.00
O990   O     0.54421   0.84159   0.65877   0.00000  Uiso   1.00
O991   O     0.50532   0.82802   0.83749   0.00000  Uiso   1.00
O992   O     0.51182   0.74768   0.77820   0.00000  Uiso   1.00
O993   O     0.47914   0.92803   0.76767   0.00000  Uiso   1.00
O994   O     0.40785   0.79917   0.73607   0.00000  Uiso   1.00
O995   O     0.60119   0.85845   0.71805   0.00000  Uiso   1.00
O996   O     0.40323   0.85627   0.77820   0.00000  Uiso   1.00
O997   O     0.58773   0.81944   0.76767   0.00000  Uiso   1.00
O998   O     0.47133   0.73570   0.73607   0.00000  Uiso   1.00
O999   O     0.53771   0.92193   0.71805   0.00000  Uiso   1.00
Zn1000 Zn    0.52577   0.80756   0.78277   0.00000  Uiso   1.00
Zn1001 Zn    0.46792   0.79044   0.72257   0.00000  Uiso   1.00
Zn1002 Zn    0.54500   0.86331   0.71188   0.00000  Uiso   1.00
Zn1003 Zn    0.46131   0.87202   0.78277   0.00000  Uiso   1.00
Br1004 Br    0.97318   0.80233   0.81215   0.00000  Uiso   1.00
Br1005 Br    0.76615   0.99619   0.80405   0.00000  Uiso   1.00
Br1006 Br    0.94437   0.77348   0.60316   0.00000  Uiso   1.00
Br1007 Br    0.70876   0.86455   0.89482   0.00000  Uiso   1.00
Br1008 Br    0.88506   0.86997   0.89888   0.00000  Uiso   1.00
C1009  C     0.71951   0.82724   0.75836   0.00000  Uiso   1.00
C1010  C     0.87090   0.80375   0.95837   0.00000  Uiso   1.00
C1011  C     0.89675   0.79000   0.97768   0.00000  Uiso   1.00
C1012  C     0.94757   0.84008   0.74149   0.00000  Uiso   1.00
C1013  C     0.88570   0.79423   0.51880   0.00000  Uiso   1.00
C1014  C     0.84619   0.80964   0.54117   0.00000  Uiso   1.00
C1015  C     0.91382   0.78300   0.53777   0.00000  Uiso   1.00
C1016  C     0.90395   0.78797   0.57883   0.00000  Uiso   1.00
C1017  C     0.83645   0.81371   0.58268   0.00000  Uiso   1.00
C1018  C     0.99321   0.84097   0.73794   0.00000  Uiso   1.00
C1019  C     0.67412   0.82474   0.76391   0.00000  Uiso   1.00
C1020  C     0.75191   0.85869   0.92007   0.00000  Uiso   1.00
C1021  C     0.84633   0.98872   0.73932   0.00000  Uiso   1.00
C1022  C     0.81718   0.67970   0.76331   0.00000  Uiso   1.00
C1023  C     0.82316   0.72300   0.75854   0.00000  Uiso   1.00
C1024  C     0.84320   0.94432   0.74163   0.00000  Uiso   1.00
C1025  C     0.85511   0.81191   0.64405   0.00000  Uiso   1.00
C1026  C     0.81124   0.85375   0.85632   0.00000  Uiso   1.00
C1027  C     0.79595   0.85619   0.89975   0.00000  Uiso   1.00
C1028  C     0.86507   0.80337   0.60126   0.00000  Uiso   1.00
C1029  C     0.73757   0.85564   0.96052   0.00000  Uiso   1.00
C1030  C     0.82478   0.85060   0.92074   0.00000  Uiso   1.00
C1031  C     0.80855   0.83968   0.95996   0.00000  Uiso   1.00
C1032  C     0.76521   0.84578   0.98049   0.00000  Uiso   1.00
C1033  C     0.83358   0.82294   0.97956   0.00000  Uiso   1.00
C1034  C     0.81864   0.82171   0.52121   0.00000  Uiso   1.00
C1035  C     0.77620   0.83108   0.54114   0.00000  Uiso   1.00
C1036  C     0.74959   0.84153   0.52075   0.00000  Uiso   1.00
H1037  H     0.71658   0.84661   0.53673   0.00000  Uiso   1.00
H1038  H     0.94391   0.77109   0.52064   0.00000  Uiso   1.00
H1039  H     0.68286   0.85493   0.71304   0.00000  Uiso   1.00
H1040  H     0.87355   0.66899   0.71717   0.00000  Uiso   1.00
H1041  H     0.80807   0.82717   0.60143   0.00000  Uiso   1.00
H1042  H     0.92578   0.77635   0.96028   0.00000  Uiso   1.00
H1043  H     0.70404   0.85896   0.97604   0.00000  Uiso   1.00
H1044  H     0.76168   0.82817   0.57212   0.00000  Uiso   1.00
H1045  H     0.87962   0.79750   0.92659   0.00000  Uiso   1.00
O1046  O     0.83333   0.83333   0.75000   0.00000  Uiso   1.00
O1047  O     0.82360   0.79060   0.66625   0.00000  Uiso   1.00
O1048  O     0.79354   0.87313   0.83749   0.00000  Uiso   1.00
O1049  O     0.87755   0.84159   0.65877   0.00000  Uiso   1.00
O1050  O     0.83865   0.82802   0.83749   0.00000  Uiso   1.00
O1051  O     0.84515   0.74768   0.77820   0.00000  Uiso   1.00
O1052  O     0.81247   0.92803   0.76767   0.00000  Uiso   1.00
O1053  O     0.74119   0.79917   0.73607   0.00000  Uiso   1.00
O1054  O     0.93452   0.85845   0.71805   0.00000  Uiso   1.00
O1055  O     0.73656   0.85627   0.77820   0.00000  Uiso   1.00
O1056  O     0.92106   0.81944   0.76767   0.00000  Uiso   1.00
O1057  O     0.80467   0.73570   0.73607   0.00000  Uiso   1.00
O1058  O     0.87104   0.92193   0.71805   0.00000  Uiso   1.00
Zn1059 Zn    0.85910   0.80756   0.78277   0.00000  Uiso   1.00
Zn1060 Zn    0.80125   0.79044   0.72257   0.00000  Uiso   1.00
Zn1061 Zn    0.87833   0.86331   0.71188   0.00000  Uiso   1.00
Zn1062 Zn    0.79465   0.87202   0.78277   0.00000  Uiso   1.00
loop_
_geom_bond_atom_site_label_1
_geom_bond_atom_site_label_2
_geom_bond_distance
_geom_bond_site_symmetry_2
_ccdc_geom_bond_type
Br1    C75     1.932   .     S
Br2    C196    1.931   .     S
Br3    C13     1.919   .     S
Br4    C17     1.925   .     S
Br5    C27     1.941   .     S
C6     O50     1.271   .     A
C6     C16     1.429   .     S
C6     O52     1.265   .     A
C7     H42     1.080   .     S
C7     C8      1.387   .     A
C7     C30     1.409   .     A
C8     H39     1.084   .     S
C8     C541    1.393   .     S
C9     C15     1.455   .     S
C9     O51     1.289   .     A
C9     O53     1.270   .     A
C10    C12     1.402   .     A
C10    C11     1.420   .     A
C10    C539    1.393   1_554 S
C11    C31     1.424   .     A
C11    C14     1.409   .     A
C12    H35     1.084   .     S
C12    C13     1.393   .     A
C13    C25     1.403   .     A
C14    H38     1.079   .     S
C14    C25     1.394   .     A
C15    C75     1.348   .     S
C15    H95     1.088   .     S
C16    Br119   1.932   1_455 S
C16    C133    1.348   1_455 S
C17    C24     1.415   .     A
C17    C26     1.391   .     A
C18    C21     1.450   .     S
C18    C196    1.344   .     S
C18    H214    1.088   .     S
C19    C20     1.426   .     S
C19    C372    1.344   1_545 S
C19    Br356   1.931   1_545 S
C20    O54     1.275   .     A
C20    O48     1.276   .     A
C21    O49     1.262   .     A
C21    O55     1.276   .     A
C22    O46     1.278   .     A
C22    O44     1.282   .     A
C22    C25     1.456   .     S
C23    O45     1.279   .     A
C23    C24     1.473   .     S
C23    O47     1.286   .     A
C24    C27     1.408   .     A
C26    H40     1.084   .     S
C26    C29     1.397   .     A
C27    C28     1.419   .     A
C28    C30     1.423   .     A
C28    C29     1.416   .     A
C29    C564    1.394   .     S
C30    C562    1.424   .     S
C31    C32     1.413   .     A
C31    C561    1.424   1_554 S
C32    H41     1.078   .     S
C32    C33     1.387   .     A
C33    H34     1.084   .     S
C33    C560    1.394   1_554 S
H36    C133    1.088   1_455 S
H37    C372    1.088   1_545 S
O43    Zn56    1.959   .     S
O43    Zn59    1.927   .     S
O43    Zn57    1.953   .     S
O43    Zn58    1.938   .     S
O44    Zn57    1.923   .     S
O45    Zn59    1.935   .     S
O46    Zn58    1.930   .     S
O47    Zn56    1.918   .     S
O48    Zn56    1.937   .     S
O49    Zn59    1.940   .     S
O50    Zn57    1.929   .     S
O51    Zn58    1.942   .     S
O52    Zn59    1.943   .     S
O53    Zn56    1.932   .     S
O54    Zn57    1.940   .     S
O55    Zn58    1.934   .     S
Br60   C134    1.932   .     S
Br61   C255    1.931   .     S
Br62   C72     1.919   .     S
Br63   C76     1.925   .     S
Br64   C86     1.941   .     S
C65    O109    1.271   .     A
C65    C75     1.429   .     S
C65    O111    1.265   .     A
C66    H101    1.080   .     S
C66    C67     1.387   .     A
C66    C89     1.409   .     A
C67    H98     1.084   .     S
C67    C600    1.393   .     S
C68    C74     1.455   .     S
C68    O110    1.289   .     A
C68    O112    1.270   .     A
C69    C71     1.402   .     A
C69    C70     1.420   .     A
C69    C598    1.393   1_554 S
C70    C90     1.424   .     A
C70    C73     1.409   .     A
C71    H94     1.084   .     S
C71    C72     1.393   .     A
C72    C84     1.403   .     A
C73    H97     1.079   .     S
C73    C84     1.394   .     A
C74    C134    1.348   .     S
C74    H154    1.088   .     S
C76    C83     1.415   .     A
C76    C85     1.391   .     A
C77    C80     1.450   .     S
C77    C255    1.344   .     S
C77    H273    1.088   .     S
C78    C79     1.426   .     S
C78    C431    1.344   1_545 S
C78    Br415   1.931   1_545 S
C79    O113    1.275   .     A
C79    O107    1.276   .     A
C80    O108    1.262   .     A
C80    O114    1.276   .     A
C81    O105    1.278   .     A
C81    O103    1.282   .     A
C81    C84     1.456   .     S
C82    O104    1.279   .     A
C82    C83     1.473   .     S
C82    O106    1.286   .     A
C83    C86     1.408   .     A
C85    H99     1.084   .     S
C85    C88     1.397   .     A
C86    C87     1.419   .     A
C87    C89     1.423   .     A
C87    C88     1.416   .     A
C88    C623    1.394   .     S
C89    C621    1.424   .     S
C90    C91     1.413   .     A
C90    C620    1.424   1_554 S
C91    H100    1.078   .     S
C91    C92     1.387   .     A
C92    H93     1.084   .     S
C92    C619    1.394   1_554 S
H96    C431    1.088   1_545 S
O102   Zn115   1.959   .     S
O102   Zn118   1.927   .     S
O102   Zn116   1.953   .     S
O102   Zn117   1.938   .     S
O103   Zn116   1.923   .     S
O104   Zn118   1.935   .     S
O105   Zn117   1.930   .     S
O106   Zn115   1.918   .     S
O107   Zn115   1.937   .     S
O108   Zn118   1.940   .     S
O109   Zn116   1.929   .     S
O110   Zn117   1.942   .     S
O111   Zn118   1.943   .     S
O112   Zn115   1.932   .     S
O113   Zn116   1.940   .     S
O114   Zn117   1.934   .     S
Br119  C16     1.932   1_655 S
Br120  C314    1.931   .     S
Br121  C131    1.919   .     S
Br122  C135    1.925   .     S
Br123  C145    1.941   .     S
C124   O168    1.271   .     A
C124   C134    1.429   .     S
C124   O170    1.265   .     A
C125   H160    1.080   .     S
C125   C126    1.387   .     A
C125   C148    1.409   .     A
C126   H157    1.084   .     S
C126   C659    1.393   .     S
C127   C133    1.455   .     S
C127   O169    1.289   .     A
C127   O171    1.270   .     A
C128   C130    1.402   .     A
C128   C129    1.420   .     A
C128   C657    1.393   1_554 S
C129   C149    1.424   .     A
C129   C132    1.409   .     A
C130   H153    1.084   .     S
C130   C131    1.393   .     A
C131   C143    1.403   .     A
C132   H156    1.079   .     S
C132   C143    1.394   .     A
C133   C16     1.348   1_655 S
C133   H36     1.088   1_655 S
C135   C142    1.415   .     A
C135   C144    1.391   .     A
C136   C139    1.450   .     S
C136   C314    1.344   .     S
C136   H332    1.088   .     S
C137   C138    1.426   .     S
C137   C490    1.344   1_545 S
C137   Br474   1.931   1_545 S
C138   O172    1.275   .     A
C138   O166    1.276   .     A
C139   O167    1.262   .     A
C139   O173    1.276   .     A
C140   O164    1.278   .     A
C140   O162    1.282   .     A
C140   C143    1.456   .     S
C141   O163    1.279   .     A
C141   C142    1.473   .     S
C141   O165    1.286   .     A
C142   C145    1.408   .     A
C144   H158    1.084   .     S
C144   C147    1.397   .     A
C145   C146    1.419   .     A
C146   C148    1.423   .     A
C146   C147    1.416   .     A
C147   C682    1.394   .     S
C148   C680    1.424   .     S
C149   C150    1.413   .     A
C149   C679    1.424   1_554 S
C150   H159    1.078   .     S
C150   C151    1.387   .     A
C151   H152    1.084   .     S
C151   C678    1.394   1_554 S
H155   C490    1.088   1_545 S
O161   Zn174   1.959   .     S
O161   Zn177   1.927   .     S
O161   Zn175   1.953   .     S
O161   Zn176   1.938   .     S
O162   Zn175   1.923   .     S
O163   Zn177   1.935   .     S
O164   Zn176   1.930   .     S
O165   Zn174   1.918   .     S
O166   Zn174   1.937   .     S
O167   Zn177   1.940   .     S
O168   Zn175   1.929   .     S
O169   Zn176   1.942   .     S
O170   Zn177   1.943   .     S
O171   Zn174   1.932   .     S
O172   Zn175   1.940   .     S
O173   Zn176   1.934   .     S
Br178  C252    1.932   .     S
Br179  C373    1.931   .     S
Br180  C190    1.919   .     S
Br181  C194    1.925   .     S
Br182  C204    1.941   .     S
C183   O227    1.271   .     A
C183   C193    1.429   .     S
C183   O229    1.265   .     A
C184   H219    1.080   .     S
C184   C185    1.387   .     A
C184   C207    1.409   .     A
C185   H216    1.084   .     S
C185   C718    1.393   .     S
C186   C192    1.455   .     S
C186   O228    1.289   .     A
C186   O230    1.270   .     A
C187   C189    1.402   .     A
C187   C188    1.420   .     A
C187   C716    1.393   1_554 S
C188   C208    1.424   .     A
C188   C191    1.409   .     A
C189   H212    1.084   .     S
C189   C190    1.393   .     A
C190   C202    1.403   .     A
C191   H215    1.079   .     S
C191   C202    1.394   .     A
C192   C252    1.348   .     S
C192   H272    1.088   .     S
C193   Br296   1.932   1_455 S
C193   C310    1.348   1_455 S
C194   C201    1.415   .     A
C194   C203    1.391   .     A
C195   C198    1.450   .     S
C195   C373    1.344   .     S
C195   H391    1.088   .     S
C196   C197    1.426   .     S
C197   O231    1.275   .     A
C197   O225    1.276   .     A
C198   O226    1.262   .     A
C198   O232    1.276   .     A
C199   O223    1.278   .     A
C199   O221    1.282   .     A
C199   C202    1.456   .     S
C200   O222    1.279   .     A
C200   C201    1.473   .     S
C200   O224    1.286   .     A
C201   C204    1.408   .     A
C203   H217    1.084   .     S
C203   C206    1.397   .     A
C204   C205    1.419   .     A
C205   C207    1.423   .     A
C205   C206    1.416   .     A
C206   C741    1.394   .     S
C207   C739    1.424   .     S
C208   C209    1.413   .     A
C208   C738    1.424   1_554 S
C209   H218    1.078   .     S
C209   C210    1.387   .     A
C210   H211    1.084   .     S
C210   C737    1.394   1_554 S
H213   C310    1.088   1_455 S
O220   Zn233   1.959   .     S
O220   Zn236   1.927   .     S
O220   Zn234   1.953   .     S
O220   Zn235   1.938   .     S
O221   Zn234   1.923   .     S
O222   Zn236   1.935   .     S
O223   Zn235   1.930   .     S
O224   Zn233   1.918   .     S
O225   Zn233   1.937   .     S
O226   Zn236   1.940   .     S
O227   Zn234   1.929   .     S
O228   Zn235   1.942   .     S
O229   Zn236   1.943   .     S
O230   Zn233   1.932   .     S
O231   Zn234   1.940   .     S
O232   Zn235   1.934   .     S
Br237  C311    1.932   .     S
Br238  C432    1.931   .     S
Br239  C249    1.919   .     S
Br240  C253    1.925   .     S
Br241  C263    1.941   .     S
C242   O286    1.271   .     A
C242   C252    1.429   .     S
C242   O288    1.265   .     A
C243   H278    1.080   .     S
C243   C244    1.387   .     A
C243   C266    1.409   .     A
C244   H275    1.084   .     S
C244   C777    1.393   .     S
C245   C251    1.455   .     S
C245   O287    1.289   .     A
C245   O289    1.270   .     A
C246   C248    1.402   .     A
C246   C247    1.420   .     A
C246   C775    1.393   1_554 S
C247   C267    1.424   .     A
C247   C250    1.409   .     A
C248   H271    1.084   .     S
C248   C249    1.393   .     A
C249   C261    1.403   .     A
C250   H274    1.079   .     S
C250   C261    1.394   .     A
C251   C311    1.348   .     S
C251   H331    1.088   .     S
C253   C260    1.415   .     A
C253   C262    1.391   .     A
C254   C257    1.450   .     S
C254   C432    1.344   .     S
C254   H450    1.088   .     S
C255   C256    1.426   .     S
C256   O290    1.275   .     A
C256   O284    1.276   .     A
C257   O285    1.262   .     A
C257   O291    1.276   .     A
C258   O282    1.278   .     A
C258   O280    1.282   .     A
C258   C261    1.456   .     S
C259   O281    1.279   .     A
C259   C260    1.473   .     S
C259   O283    1.286   .     A
C260   C263    1.408   .     A
C262   H276    1.084   .     S
C262   C265    1.397   .     A
C263   C264    1.419   .     A
C264   C266    1.423   .     A
C264   C265    1.416   .     A
C265   C800    1.394   .     S
C266   C798    1.424   .     S
C267   C268    1.413   .     A
C267   C797    1.424   1_554 S
C268   H277    1.078   .     S
C268   C269    1.387   .     A
C269   H270    1.084   .     S
C269   C796    1.394   1_554 S
O279   Zn292   1.959   .     S
O279   Zn295   1.927   .     S
O279   Zn293   1.953   .     S
O279   Zn294   1.938   .     S
O280   Zn293   1.923   .     S
O281   Zn295   1.935   .     S
O282   Zn294   1.930   .     S
O283   Zn292   1.918   .     S
O284   Zn292   1.937   .     S
O285   Zn295   1.940   .     S
O286   Zn293   1.929   .     S
O287   Zn294   1.942   .     S
O288   Zn295   1.943   .     S
O289   Zn292   1.932   .     S
O290   Zn293   1.940   .     S
O291   Zn294   1.934   .     S
Br296  C193    1.932   1_655 S
Br297  C491    1.931   .     S
Br298  C308    1.919   .     S
Br299  C312    1.925   .     S
Br300  C322    1.941   .     S
C301   O345    1.271   .     A
C301   C311    1.429   .     S
C301   O347    1.265   .     A
C302   H337    1.080   .     S
C302   C303    1.387   .     A
C302   C325    1.409   .     A
C303   H334    1.084   .     S
C303   C836    1.393   .     S
C304   C310    1.455   .     S
C304   O346    1.289   .     A
C304   O348    1.270   .     A
C305   C307    1.402   .     A
C305   C306    1.420   .     A
C305   C834    1.393   1_554 S
C306   C326    1.424   .     A
C306   C309    1.409   .     A
C307   H330    1.084   .     S
C307   C308    1.393   .     A
C308   C320    1.403   .     A
C309   H333    1.079   .     S
C309   C320    1.394   .     A
C310   C193    1.348   1_655 S
C310   H213    1.088   1_655 S
C312   C319    1.415   .     A
C312   C321    1.391   .     A
C313   C316    1.450   .     S
C313   C491    1.344   .     S
C313   H509    1.088   .     S
C314   C315    1.426   .     S
C315   O349    1.275   .     A
C315   O343    1.276   .     A
C316   O344    1.262   .     A
C316   O350    1.276   .     A
C317   O341    1.278   .     A
C317   O339    1.282   .     A
C317   C320    1.456   .     S
C318   O340    1.279   .     A
C318   C319    1.473   .     S
C318   O342    1.286   .     A
C319   C322    1.408   .     A
C321   H335    1.084   .     S
C321   C324    1.397   .     A
C322   C323    1.419   .     A
C323   C325    1.423   .     A
C323   C324    1.416   .     A
C324   C859    1.394   .     S
C325   C857    1.424   .     S
C326   C327    1.413   .     A
C326   C856    1.424   1_554 S
C327   H336    1.078   .     S
C327   C328    1.387   .     A
C328   H329    1.084   .     S
C328   C855    1.394   1_554 S
O338   Zn351   1.959   .     S
O338   Zn354   1.927   .     S
O338   Zn352   1.953   .     S
O338   Zn353   1.938   .     S
O339   Zn352   1.923   .     S
O340   Zn354   1.935   .     S
O341   Zn353   1.930   .     S
O342   Zn351   1.918   .     S
O343   Zn351   1.937   .     S
O344   Zn354   1.940   .     S
O345   Zn352   1.929   .     S
O346   Zn353   1.942   .     S
O347   Zn354   1.943   .     S
O348   Zn351   1.932   .     S
O349   Zn352   1.940   .     S
O350   Zn353   1.934   .     S
Br355  C429    1.932   .     S
Br356  C19     1.931   1_565 S
Br357  C367    1.919   .     S
Br358  C371    1.925   .     S
Br359  C381    1.941   .     S
C360   O404    1.271   .     A
C360   C370    1.429   .     S
C360   O406    1.265   .     A
C361   H396    1.080   .     S
C361   C362    1.387   .     A
C361   C384    1.409   .     A
C362   H393    1.084   .     S
C362   C895    1.393   .     S
C363   C369    1.455   .     S
C363   O405    1.289   .     A
C363   O407    1.270   .     A
C364   C366    1.402   .     A
C364   C365    1.420   .     A
C364   C893    1.393   1_554 S
C365   C385    1.424   .     A
C365   C368    1.409   .     A
C366   H389    1.084   .     S
C366   C367    1.393   .     A
C367   C379    1.403   .     A
C368   H392    1.079   .     S
C368   C379    1.394   .     A
C369   C429    1.348   .     S
C369   H449    1.088   .     S
C370   Br473   1.932   1_455 S
C370   C487    1.348   1_455 S
C371   C378    1.415   .     A
C371   C380    1.391   .     A
C372   C375    1.450   .     S
C372   C19     1.344   1_565 S
C372   H37     1.088   1_565 S
C373   C374    1.426   .     S
C374   O408    1.275   .     A
C374   O402    1.276   .     A
C375   O403    1.262   .     A
C375   O409    1.276   .     A
C376   O400    1.278   .     A
C376   O398    1.282   .     A
C376   C379    1.456   .     S
C377   O399    1.279   .     A
C377   C378    1.473   .     S
C377   O401    1.286   .     A
C378   C381    1.408   .     A
C380   H394    1.084   .     S
C380   C383    1.397   .     A
C381   C382    1.419   .     A
C382   C384    1.423   .     A
C382   C383    1.416   .     A
C383   C918    1.394   .     S
C384   C916    1.424   .     S
C385   C386    1.413   .     A
C385   C915    1.424   1_554 S
C386   H395    1.078   .     S
C386   C387    1.387   .     A
C387   H388    1.084   .     S
C387   C914    1.394   1_554 S
H390   C487    1.088   1_455 S
O397   Zn410   1.959   .     S
O397   Zn413   1.927   .     S
O397   Zn411   1.953   .     S
O397   Zn412   1.938   .     S
O398   Zn411   1.923   .     S
O399   Zn413   1.935   .     S
O400   Zn412   1.930   .     S
O401   Zn410   1.918   .     S
O402   Zn410   1.937   .     S
O403   Zn413   1.940   .     S
O404   Zn411   1.929   .     S
O405   Zn412   1.942   .     S
O406   Zn413   1.943   .     S
O407   Zn410   1.932   .     S
O408   Zn411   1.940   .     S
O409   Zn412   1.934   .     S
Br414  C488    1.932   .     S
Br415  C78     1.931   1_565 S
Br416  C426    1.919   .     S
Br417  C430    1.925   .     S
Br418  C440    1.941   .     S
C419   O463    1.271   .     A
C419   C429    1.429   .     S
C419   O465    1.265   .     A
C420   H455    1.080   .     S
C420   C421    1.387   .     A
C420   C443    1.409   .     A
C421   H452    1.084   .     S
C421   C954    1.393   .     S
C422   C428    1.455   .     S
C422   O464    1.289   .     A
C422   O466    1.270   .     A
C423   C425    1.402   .     A
C423   C424    1.420   .     A
C423   C952    1.393   1_554 S
C424   C444    1.424   .     A
C424   C427    1.409   .     A
C425   H448    1.084   .     S
C425   C426    1.393   .     A
C426   C438    1.403   .     A
C427   H451    1.079   .     S
C427   C438    1.394   .     A
C428   C488    1.348   .     S
C428   H508    1.088   .     S
C430   C437    1.415   .     A
C430   C439    1.391   .     A
C431   C434    1.450   .     S
C431   C78     1.344   1_565 S
C431   H96     1.088   1_565 S
C432   C433    1.426   .     S
C433   O467    1.275   .     A
C433   O461    1.276   .     A
C434   O462    1.262   .     A
C434   O468    1.276   .     A
C435   O459    1.278   .     A
C435   O457    1.282   .     A
C435   C438    1.456   .     S
C436   O458    1.279   .     A
C436   C437    1.473   .     S
C436   O460    1.286   .     A
C437   C440    1.408   .     A
C439   H453    1.084   .     S
C439   C442    1.397   .     A
C440   C441    1.419   .     A
C441   C443    1.423   .     A
C441   C442    1.416   .     A
C442   C977    1.394   .     S
C443   C975    1.424   .     S
C444   C445    1.413   .     A
C444   C974    1.424   1_554 S
C445   H454    1.078   .     S
C445   C446    1.387   .     A
C446   H447    1.084   .     S
C446   C973    1.394   1_554 S
O456   Zn469   1.959   .     S
O456   Zn472   1.927   .     S
O456   Zn470   1.953   .     S
O456   Zn471   1.938   .     S
O457   Zn470   1.923   .     S
O458   Zn472   1.935   .     S
O459   Zn471   1.930   .     S
O460   Zn469   1.918   .     S
O461   Zn469   1.937   .     S
O462   Zn472   1.940   .     S
O463   Zn470   1.929   .     S
O464   Zn471   1.942   .     S
O465   Zn472   1.943   .     S
O466   Zn469   1.932   .     S
O467   Zn470   1.940   .     S
O468   Zn471   1.934   .     S
Br473  C370    1.932   1_655 S
Br474  C137    1.931   1_565 S
Br475  C485    1.919   .     S
Br476  C489    1.925   .     S
Br477  C499    1.941   .     S
C478   O522    1.271   .     A
C478   C488    1.429   .     S
C478   O524    1.265   .     A
C479   H514    1.080   .     S
C479   C480    1.387   .     A
C479   C502    1.409   .     A
C480   H511    1.084   .     S
C480   C1013   1.393   .     S
C481   C487    1.455   .     S
C481   O523    1.289   .     A
C481   O525    1.270   .     A
C482   C484    1.402   .     A
C482   C483    1.420   .     A
C482   C1011   1.393   1_554 S
C483   C503    1.424   .     A
C483   C486    1.409   .     A
C484   H507    1.084   .     S
C484   C485    1.393   .     A
C485   C497    1.403   .     A
C486   H510    1.079   .     S
C486   C497    1.394   .     A
C487   C370    1.348   1_655 S
C487   H390    1.088   1_655 S
C489   C496    1.415   .     A
C489   C498    1.391   .     A
C490   C493    1.450   .     S
C490   C137    1.344   1_565 S
C490   H155    1.088   1_565 S
C491   C492    1.426   .     S
C492   O526    1.275   .     A
C492   O520    1.276   .     A
C493   O521    1.262   .     A
C493   O527    1.276   .     A
C494   O518    1.278   .     A
C494   O516    1.282   .     A
C494   C497    1.456   .     S
C495   O517    1.279   .     A
C495   C496    1.473   .     S
C495   O519    1.286   .     A
C496   C499    1.408   .     A
C498   H512    1.084   .     S
C498   C501    1.397   .     A
C499   C500    1.419   .     A
C500   C502    1.423   .     A
C500   C501    1.416   .     A
C501   C1036   1.394   .     S
C502   C1034   1.424   .     S
C503   C504    1.413   .     A
C503   C1033   1.424   1_554 S
C504   H513    1.078   .     S
C504   C505    1.387   .     A
C505   H506    1.084   .     S
C505   C1032   1.394   1_554 S
O515   Zn528   1.959   .     S
O515   Zn531   1.927   .     S
O515   Zn529   1.953   .     S
O515   Zn530   1.938   .     S
O516   Zn529   1.923   .     S
O517   Zn531   1.935   .     S
O518   Zn530   1.930   .     S
O519   Zn528   1.918   .     S
O520   Zn528   1.937   .     S
O521   Zn531   1.940   .     S
O522   Zn529   1.929   .     S
O523   Zn530   1.942   .     S
O524   Zn531   1.943   .     S
O525   Zn528   1.932   .     S
O526   Zn529   1.940   .     S
O527   Zn530   1.934   .     S
Br532  C606    1.932   .     S
Br533  C727    1.931   .     S
Br534  C544    1.919   .     S
Br535  C548    1.925   .     S
Br536  C558    1.941   .     S
C537   O581    1.271   .     A
C537   C547    1.429   .     S
C537   O583    1.265   .     A
C538   H573    1.080   .     S
C538   C539    1.387   .     A
C538   C561    1.409   .     A
C539   H570    1.084   .     S
C539   C10     1.393   1_556 S
C540   C546    1.455   .     S
C540   O582    1.289   .     A
C540   O584    1.270   .     A
C541   C543    1.402   .     A
C541   C542    1.420   .     A
C542   C562    1.424   .     A
C542   C545    1.409   .     A
C543   H566    1.084   .     S
C543   C544    1.393   .     A
C544   C556    1.403   .     A
C545   H569    1.079   .     S
C545   C556    1.394   .     A
C546   C606    1.348   .     S
C546   H626    1.088   .     S
C547   Br650   1.932   1_455 S
C547   C664    1.348   1_455 S
C548   C555    1.415   .     A
C548   C557    1.391   .     A
C549   C552    1.450   .     S
C549   C727    1.344   .     S
C549   H745    1.088   .     S
C550   C551    1.426   .     S
C550   C903    1.344   1_545 S
C550   Br887   1.931   1_545 S
C551   O585    1.275   .     A
C551   O579    1.276   .     A
C552   O580    1.262   .     A
C552   O586    1.276   .     A
C553   O577    1.278   .     A
C553   O575    1.282   .     A
C553   C556    1.456   .     S
C554   O576    1.279   .     A
C554   C555    1.473   .     S
C554   O578    1.286   .     A
C555   C558    1.408   .     A
C557   H571    1.084   .     S
C557   C560    1.397   .     A
C558   C559    1.419   .     A
C559   C561    1.423   .     A
C559   C560    1.416   .     A
C560   C33     1.394   1_556 S
C561   C31     1.424   1_556 S
C562   C563    1.413   .     A
C563   H572    1.078   .     S
C563   C564    1.387   .     A
C564   H565    1.084   .     S
H567   C664    1.088   1_455 S
H568   C903    1.088   1_545 S
O574   Zn587   1.959   .     S
O574   Zn590   1.927   .     S
O574   Zn588   1.953   .     S
O574   Zn589   1.938   .     S
O575   Zn588   1.923   .     S
O576   Zn590   1.935   .     S
O577   Zn589   1.930   .     S
O578   Zn587   1.918   .     S
O579   Zn587   1.937   .     S
O580   Zn590   1.940   .     S
O581   Zn588   1.929   .     S
O582   Zn589   1.942   .     S
O583   Zn590   1.943   .     S
O584   Zn587   1.932   .     S
O585   Zn588   1.940   .     S
O586   Zn589   1.934   .     S
Br591  C665    1.932   .     S
Br592  C786    1.931   .     S
Br593  C603    1.919   .     S
Br594  C607    1.925   .     S
Br595  C617    1.941   .     S
C596   O640    1.271   .     A
C596   C606    1.429   .     S
C596   O642    1.265   .     A
C597   H632    1.080   .     S
C597   C598    1.387   .     A
C597   C620    1.409   .     A
C598   H629    1.084   .     S
C598   C69     1.393   1_556 S
C599   C605    1.455   .     S
C599   O641    1.289   .     A
C599   O643    1.270   .     A
C600   C602    1.402   .     A
C600   C601    1.420   .     A
C601   C621    1.424   .     A
C601   C604    1.409   .     A
C602   H625    1.084   .     S
C602   C603    1.393   .     A
C603   C615    1.403   .     A
C604   H628    1.079   .     S
C604   C615    1.394   .     A
C605   C665    1.348   .     S
C605   H685    1.088   .     S
C607   C614    1.415   .     A
C607   C616    1.391   .     A
C608   C611    1.450   .     S
C608   C786    1.344   .     S
C608   H804    1.088   .     S
C609   C610    1.426   .     S
C609   C962    1.344   1_545 S
C609   Br946   1.931   1_545 S
C610   O644    1.275   .     A
C610   O638    1.276   .     A
C611   O639    1.262   .     A
C611   O645    1.276   .     A
C612   O636    1.278   .     A
C612   O634    1.282   .     A
C612   C615    1.456   .     S
C613   O635    1.279   .     A
C613   C614    1.473   .     S
C613   O637    1.286   .     A
C614   C617    1.408   .     A
C616   H630    1.084   .     S
C616   C619    1.397   .     A
C617   C618    1.419   .     A
C618   C620    1.423   .     A
C618   C619    1.416   .     A
C619   C92     1.394   1_556 S
C620   C90     1.424   1_556 S
C621   C622    1.413   .     A
C622   H631    1.078   .     S
C622   C623    1.387   .     A
C623   H624    1.084   .     S
H627   C962    1.088   1_545 S
O633   Zn646   1.959   .     S
O633   Zn649   1.927   .     S
O633   Zn647   1.953   .     S
O633   Zn648   1.938   .     S
O634   Zn647   1.923   .     S
O635   Zn649   1.935   .     S
O636   Zn648   1.930   .     S
O637   Zn646   1.918   .     S
O638   Zn646   1.937   .     S
O639   Zn649   1.940   .     S
O640   Zn647   1.929   .     S
O641   Zn648   1.942   .     S
O642   Zn649   1.943   .     S
O643   Zn646   1.932   .     S
O644   Zn647   1.940   .     S
O645   Zn648   1.934   .     S
Br650  C547    1.932   1_655 S
Br651  C845    1.931   .     S
Br652  C662    1.919   .     S
Br653  C666    1.925   .     S
Br654  C676    1.941   .     S
C655   O699    1.271   .     A
C655   C665    1.429   .     S
C655   O701    1.265   .     A
C656   H691    1.080   .     S
C656   C657    1.387   .     A
C656   C679    1.409   .     A
C657   H688    1.084   .     S
C657   C128    1.393   1_556 S
C658   C664    1.455   .     S
C658   O700    1.289   .     A
C658   O702    1.270   .     A
C659   C661    1.402   .     A
C659   C660    1.420   .     A
C660   C680    1.424   .     A
C660   C663    1.409   .     A
C661   H684    1.084   .     S
C661   C662    1.393   .     A
C662   C674    1.403   .     A
C663   H687    1.079   .     S
C663   C674    1.394   .     A
C664   C547    1.348   1_655 S
C664   H567    1.088   1_655 S
C666   C673    1.415   .     A
C666   C675    1.391   .     A
C667   C670    1.450   .     S
C667   C845    1.344   .     S
C667   H863    1.088   .     S
C668   C669    1.426   .     S
C668   C1021   1.344   1_545 S
C668   Br1005  1.931   1_545 S
C669   O703    1.275   .     A
C669   O697    1.276   .     A
C670   O698    1.262   .     A
C670   O704    1.276   .     A
C671   O695    1.278   .     A
C671   O693    1.282   .     A
C671   C674    1.456   .     S
C672   O694    1.279   .     A
C672   C673    1.473   .     S
C672   O696    1.286   .     A
C673   C676    1.408   .     A
C675   H689    1.084   .     S
C675   C678    1.397   .     A
C676   C677    1.419   .     A
C677   C679    1.423   .     A
C677   C678    1.416   .     A
C678   C151    1.394   1_556 S
C679   C149    1.424   1_556 S
C680   C681    1.413   .     A
C681   H690    1.078   .     S
C681   C682    1.387   .     A
C682   H683    1.084   .     S
H686   C1021   1.088   1_545 S
O692   Zn705   1.959   .     S
O692   Zn708   1.927   .     S
O692   Zn706   1.953   .     S
O692   Zn707   1.938   .     S
O693   Zn706   1.923   .     S
O694   Zn708   1.935   .     S
O695   Zn707   1.930   .     S
O696   Zn705   1.918   .     S
O697   Zn705   1.937   .     S
O698   Zn708   1.940   .     S
O699   Zn706   1.929   .     S
O700   Zn707   1.942   .     S
O701   Zn708   1.943   .     S
O702   Zn705   1.932   .     S
O703   Zn706   1.940   .     S
O704   Zn707   1.934   .     S
Br709  C783    1.932   .     S
Br710  C904    1.931   .     S
Br711  C721    1.919   .     S
Br712  C725    1.925   .     S
Br713  C735    1.941   .     S
C714   O758    1.271   .     A
C714   C724    1.429   .     S
C714   O760    1.265   .     A
C715   H750    1.080   .     S
C715   C716    1.387   .     A
C715   C738    1.409   .     A
C716   H747    1.084   .     S
C716   C187    1.393   1_556 S
C717   C723    1.455   .     S
C717   O759    1.289   .     A
C717   O761    1.270   .     A
C718   C720    1.402   .     A
C718   C719    1.420   .     A
C719   C739    1.424   .     A
C719   C722    1.409   .     A
C720   H743    1.084   .     S
C720   C721    1.393   .     A
C721   C733    1.403   .     A
C722   H746    1.079   .     S
C722   C733    1.394   .     A
C723   C783    1.348   .     S
C723   H803    1.088   .     S
C724   Br827   1.932   1_455 S
C724   C841    1.348   1_455 S
C725   C732    1.415   .     A
C725   C734    1.391   .     A
C726   C729    1.450   .     S
C726   C904    1.344   .     S
C726   H922    1.088   .     S
C727   C728    1.426   .     S
C728   O762    1.275   .     A
C728   O756    1.276   .     A
C729   O757    1.262   .     A
C729   O763    1.276   .     A
C730   O754    1.278   .     A
C730   O752    1.282   .     A
C730   C733    1.456   .     S
C731   O753    1.279   .     A
C731   C732    1.473   .     S
C731   O755    1.286   .     A
C732   C735    1.408   .     A
C734   H748    1.084   .     S
C734   C737    1.397   .     A
C735   C736    1.419   .     A
C736   C738    1.423   .     A
C736   C737    1.416   .     A
C737   C210    1.394   1_556 S
C738   C208    1.424   1_556 S
C739   C740    1.413   .     A
C740   H749    1.078   .     S
C740   C741    1.387   .     A
C741   H742    1.084   .     S
H744   C841    1.088   1_455 S
O751   Zn764   1.959   .     S
O751   Zn767   1.927   .     S
O751   Zn765   1.953   .     S
O751   Zn766   1.938   .     S
O752   Zn765   1.923   .     S
O753   Zn767   1.935   .     S
O754   Zn766   1.930   .     S
O755   Zn764   1.918   .     S
O756   Zn764   1.937   .     S
O757   Zn767   1.940   .     S
O758   Zn765   1.929   .     S
O759   Zn766   1.942   .     S
O760   Zn767   1.943   .     S
O761   Zn764   1.932   .     S
O762   Zn765   1.940   .     S
O763   Zn766   1.934   .     S
Br768  C842    1.932   .     S
Br769  C963    1.931   .     S
Br770  C780    1.919   .     S
Br771  C784    1.925   .     S
Br772  C794    1.941   .     S
C773   O817    1.271   .     A
C773   C783    1.429   .     S
C773   O819    1.265   .     A
C774   H809    1.080   .     S
C774   C775    1.387   .     A
C774   C797    1.409   .     A
C775   H806    1.084   .     S
C775   C246    1.393   1_556 S
C776   C782    1.455   .     S
C776   O818    1.289   .     A
C776   O820    1.270   .     A
C777   C779    1.402   .     A
C777   C778    1.420   .     A
C778   C798    1.424   .     A
C778   C781    1.409   .     A
C779   H802    1.084   .     S
C779   C780    1.393   .     A
C780   C792    1.403   .     A
C781   H805    1.079   .     S
C781   C792    1.394   .     A
C782   C842    1.348   .     S
C782   H862    1.088   .     S
C784   C791    1.415   .     A
C784   C793    1.391   .     A
C785   C788    1.450   .     S
C785   C963    1.344   .     S
C785   H981    1.088   .     S
C786   C787    1.426   .     S
C787   O821    1.275   .     A
C787   O815    1.276   .     A
C788   O816    1.262   .     A
C788   O822    1.276   .     A
C789   O813    1.278   .     A
C789   O811    1.282   .     A
C789   C792    1.456   .     S
C790   O812    1.279   .     A
C790   C791    1.473   .     S
C790   O814    1.286   .     A
C791   C794    1.408   .     A
C793   H807    1.084   .     S
C793   C796    1.397   .     A
C794   C795    1.419   .     A
C795   C797    1.423   .     A
C795   C796    1.416   .     A
C796   C269    1.394   1_556 S
C797   C267    1.424   1_556 S
C798   C799    1.413   .     A
C799   H808    1.078   .     S
C799   C800    1.387   .     A
C800   H801    1.084   .     S
O810   Zn823   1.959   .     S
O810   Zn826   1.927   .     S
O810   Zn824   1.953   .     S
O810   Zn825   1.938   .     S
O811   Zn824   1.923   .     S
O812   Zn826   1.935   .     S
O813   Zn825   1.930   .     S
O814   Zn823   1.918   .     S
O815   Zn823   1.937   .     S
O816   Zn826   1.940   .     S
O817   Zn824   1.929   .     S
O818   Zn825   1.942   .     S
O819   Zn826   1.943   .     S
O820   Zn823   1.932   .     S
O821   Zn824   1.940   .     S
O822   Zn825   1.934   .     S
Br827  C724    1.932   1_655 S
Br828  C1022   1.931   .     S
Br829  C839    1.919   .     S
Br830  C843    1.925   .     S
Br831  C853    1.941   .     S
C832   O876    1.271   .     A
C832   C842    1.429   .     S
C832   O878    1.265   .     A
C833   H868    1.080   .     S
C833   C834    1.387   .     A
C833   C856    1.409   .     A
C834   H865    1.084   .     S
C834   C305    1.393   1_556 S
C835   C841    1.455   .     S
C835   O877    1.289   .     A
C835   O879    1.270   .     A
C836   C838    1.402   .     A
C836   C837    1.420   .     A
C837   C857    1.424   .     A
C837   C840    1.409   .     A
C838   H861    1.084   .     S
C838   C839    1.393   .     A
C839   C851    1.403   .     A
C840   H864    1.079   .     S
C840   C851    1.394   .     A
C841   C724    1.348   1_655 S
C841   H744    1.088   1_655 S
C843   C850    1.415   .     A
C843   C852    1.391   .     A
C844   C847    1.450   .     S
C844   C1022   1.344   .     S
C844   H1040   1.088   .     S
C845   C846    1.426   .     S
C846   O880    1.275   .     A
C846   O874    1.276   .     A
C847   O875    1.262   .     A
C847   O881    1.276   .     A
C848   O872    1.278   .     A
C848   O870    1.282   .     A
C848   C851    1.456   .     S
C849   O871    1.279   .     A
C849   C850    1.473   .     S
C849   O873    1.286   .     A
C850   C853    1.408   .     A
C852   H866    1.084   .     S
C852   C855    1.397   .     A
C853   C854    1.419   .     A
C854   C856    1.423   .     A
C854   C855    1.416   .     A
C855   C328    1.394   1_556 S
C856   C326    1.424   1_556 S
C857   C858    1.413   .     A
C858   H867    1.078   .     S
C858   C859    1.387   .     A
C859   H860    1.084   .     S
O869   Zn882   1.959   .     S
O869   Zn885   1.927   .     S
O869   Zn883   1.953   .     S
O869   Zn884   1.938   .     S
O870   Zn883   1.923   .     S
O871   Zn885   1.935   .     S
O872   Zn884   1.930   .     S
O873   Zn882   1.918   .     S
O874   Zn882   1.937   .     S
O875   Zn885   1.940   .     S
O876   Zn883   1.929   .     S
O877   Zn884   1.942   .     S
O878   Zn885   1.943   .     S
O879   Zn882   1.932   .     S
O880   Zn883   1.940   .     S
O881   Zn884   1.934   .     S
Br886  C960    1.932   .     S
Br887  C550    1.931   1_565 S
Br888  C898    1.919   .     S
Br889  C902    1.925   .     S
Br890  C912    1.941   .     S
C891   O935    1.271   .     A
C891   C901    1.429   .     S
C891   O937    1.265   .     A
C892   H927    1.080   .     S
C892   C893    1.387   .     A
C892   C915    1.409   .     A
C893   H924    1.084   .     S
C893   C364    1.393   1_556 S
C894   C900    1.455   .     S
C894   O936    1.289   .     A
C894   O938    1.270   .     A
C895   C897    1.402   .     A
C895   C896    1.420   .     A
C896   C916    1.424   .     A
C896   C899    1.409   .     A
C897   H920    1.084   .     S
C897   C898    1.393   .     A
C898   C910    1.403   .     A
C899   H923    1.079   .     S
C899   C910    1.394   .     A
C900   C960    1.348   .     S
C900   H980    1.088   .     S
C901   Br1004  1.932   1_455 S
C901   C1018   1.348   1_455 S
C902   C909    1.415   .     A
C902   C911    1.391   .     A
C903   C906    1.450   .     S
C903   C550    1.344   1_565 S
C903   H568    1.088   1_565 S
C904   C905    1.426   .     S
C905   O939    1.275   .     A
C905   O933    1.276   .     A
C906   O934    1.262   .     A
C906   O940    1.276   .     A
C907   O931    1.278   .     A
C907   O929    1.282   .     A
C907   C910    1.456   .     S
C908   O930    1.279   .     A
C908   C909    1.473   .     S
C908   O932    1.286   .     A
C909   C912    1.408   .     A
C911   H925    1.084   .     S
C911   C914    1.397   .     A
C912   C913    1.419   .     A
C913   C915    1.423   .     A
C913   C914    1.416   .     A
C914   C387    1.394   1_556 S
C915   C385    1.424   1_556 S
C916   C917    1.413   .     A
C917   H926    1.078   .     S
C917   C918    1.387   .     A
C918   H919    1.084   .     S
H921   C1018   1.088   1_455 S
O928   Zn941   1.959   .     S
O928   Zn944   1.927   .     S
O928   Zn942   1.953   .     S
O928   Zn943   1.938   .     S
O929   Zn942   1.923   .     S
O930   Zn944   1.935   .     S
O931   Zn943   1.930   .     S
O932   Zn941   1.918   .     S
O933   Zn941   1.937   .     S
O934   Zn944   1.940   .     S
O935   Zn942   1.929   .     S
O936   Zn943   1.942   .     S
O937   Zn944   1.943   .     S
O938   Zn941   1.932   .     S
O939   Zn942   1.940   .     S
O940   Zn943   1.934   .     S
Br945  C1019   1.932   .     S
Br946  C609    1.931   1_565 S
Br947  C957    1.919   .     S
Br948  C961    1.925   .     S
Br949  C971    1.941   .     S
C950   O994    1.271   .     A
C950   C960    1.429   .     S
C950   O996    1.265   .     A
C951   H986    1.080   .     S
C951   C952    1.387   .     A
C951   C974    1.409   .     A
C952   H983    1.084   .     S
C952   C423    1.393   1_556 S
C953   C959    1.455   .     S
C953   O995    1.289   .     A
C953   O997    1.270   .     A
C954   C956    1.402   .     A
C954   C955    1.420   .     A
C955   C975    1.424   .     A
C955   C958    1.409   .     A
C956   H979    1.084   .     S
C956   C957    1.393   .     A
C957   C969    1.403   .     A
C958   H982    1.079   .     S
C958   C969    1.394   .     A
C959   C1019   1.348   .     S
C959   H1039   1.088   .     S
C961   C968    1.415   .     A
C961   C970    1.391   .     A
C962   C965    1.450   .     S
C962   C609    1.344   1_565 S
C962   H627    1.088   1_565 S
C963   C964    1.426   .     S
C964   O998    1.275   .     A
C964   O992    1.276   .     A
C965   O993    1.262   .     A
C965   O999    1.276   .     A
C966   O990    1.278   .     A
C966   O988    1.282   .     A
C966   C969    1.456   .     S
C967   O989    1.279   .     A
C967   C968    1.473   .     S
C967   O991    1.286   .     A
C968   C971    1.408   .     A
C970   H984    1.084   .     S
C970   C973    1.397   .     A
C971   C972    1.419   .     A
C972   C974    1.423   .     A
C972   C973    1.416   .     A
C973   C446    1.394   1_556 S
C974   C444    1.424   1_556 S
C975   C976    1.413   .     A
C976   H985    1.078   .     S
C976   C977    1.387   .     A
C977   H978    1.084   .     S
O987   Zn1000  1.959   .     S
O987   Zn1003  1.927   .     S
O987   Zn1001  1.953   .     S
O987   Zn1002  1.938   .     S
O988   Zn1001  1.923   .     S
O989   Zn1003  1.935   .     S
O990   Zn1002  1.930   .     S
O991   Zn1000  1.918   .     S
O992   Zn1000  1.937   .     S
O993   Zn1003  1.940   .     S
O994   Zn1001  1.929   .     S
O995   Zn1002  1.942   .     S
O996   Zn1003  1.943   .     S
O997   Zn1000  1.932   .     S
O998   Zn1001  1.940   .     S
O999   Zn1002  1.934   .     S
Br1004 C901    1.932   1_655 S
Br1005 C668    1.931   1_565 S
Br1006 C1016   1.919   .     S
Br1007 C1020   1.925   .     S
Br1008 C1030   1.941   .     S
C1009  O1053   1.271   .     A
C1009  C1019   1.429   .     S
C1009  O1055   1.265   .     A
C1010  H1045   1.080   .     S
C1010  C1011   1.387   .     A
C1010  C1033   1.409   .     A
C1011  H1042   1.084   .     S
C1011  C482    1.393   1_556 S
C1012  C1018   1.455   .     S
C1012  O1054   1.289   .     A
C1012  O1056   1.270   .     A
C1013  C1015   1.402   .     A
C1013  C1014   1.420   .     A
C1014  C1034   1.424   .     A
C1014  C1017   1.409   .     A
C1015  H1038   1.084   .     S
C1015  C1016   1.393   .     A
C1016  C1028   1.403   .     A
C1017  H1041   1.079   .     S
C1017  C1028   1.394   .     A
C1018  C901    1.348   1_655 S
C1018  H921    1.088   1_655 S
C1020  C1027   1.415   .     A
C1020  C1029   1.391   .     A
C1021  C1024   1.450   .     S
C1021  C668    1.344   1_565 S
C1021  H686    1.088   1_565 S
C1022  C1023   1.426   .     S
C1023  O1057   1.275   .     A
C1023  O1051   1.276   .     A
C1024  O1052   1.262   .     A
C1024  O1058   1.276   .     A
C1025  O1049   1.278   .     A
C1025  O1047   1.282   .     A
C1025  C1028   1.456   .     S
C1026  O1048   1.279   .     A
C1026  C1027   1.473   .     S
C1026  O1050   1.286   .     A
C1027  C1030   1.408   .     A
C1029  H1043   1.084   .     S
C1029  C1032   1.397   .     A
C1030  C1031   1.419   .     A
C1031  C1033   1.423   .     A
C1031  C1032   1.416   .     A
C1032  C505    1.394   1_556 S
C1033  C503    1.424   1_556 S
C1034  C1035   1.413   .     A
C1035  H1044   1.078   .     S
C1035  C1036   1.387   .     A
C1036  H1037   1.084   .     S
O1046  Zn1059  1.959   .     S
O1046  Zn1062  1.927   .     S
O1046  Zn1060  1.953   .     S
O1046  Zn1061  1.938   .     S
O1047  Zn1060  1.923   .     S
O1048  Zn1062  1.935   .     S
O1049  Zn1061  1.930   .     S
O1050  Zn1059  1.918   .     S
O1051  Zn1059  1.937   .     S
O1052  Zn1062  1.940   .     S
O1053  Zn1060  1.929   .     S
O1054  Zn1061  1.942   .     S
O1055  Zn1062  1.943   .     S
O1056  Zn1059  1.932   .     S
O1057  Zn1060  1.940   .     S
O1058  Zn1061  1.934   .     S
