data_str_m1_o10_o18_pcu_sym.161
_audit_creation_date              2020-01-03
_audit_creation_method            'Materials Studio'
_symmetry_space_group_name_H-M    'P1'
_symmetry_Int_Tables_number       1
_symmetry_cell_setting            triclinic
loop_
_symmetry_equiv_pos_as_xyz
  x,y,z
_cell_length_a                    32.7029
_cell_length_b                    32.6607
_cell_length_c                    35.6262
_cell_angle_alpha                 98.1321
_cell_angle_beta                  72.7056
_cell_angle_gamma                 98.4984
loop_
_atom_site_label
_atom_site_type_symbol
_atom_site_fract_x
_atom_site_fract_y
_atom_site_fract_z
_atom_site_U_iso_or_equiv
_atom_site_adp_type
_atom_site_occupancy
C1     C     0.05277   0.16006   0.25884   0.00000  Uiso   1.00
C2     C     0.20424   0.13475   0.45742   0.00000  Uiso   1.00
C3     C     0.22938   0.11908   0.47637   0.00000  Uiso   1.00
C4     C     0.28112   0.17343   0.24114   0.00000  Uiso   1.00
C5     C     0.21847   0.12312   0.01818   0.00000  Uiso   1.00
C6     C     0.18018   0.14135   0.04020   0.00000  Uiso   1.00
C7     C     0.24450   0.10964   0.03869   0.00000  Uiso   1.00
C8     C     0.23260   0.11441   0.08020   0.00000  Uiso   1.00
C9     C     0.17254   0.15131   0.08158   0.00000  Uiso   1.00
C10    C     0.32738   0.17462   0.23679   0.00000  Uiso   1.00
C11    C     0.00744   0.15797   0.26321   0.00000  Uiso   1.00
C12    C     0.08626   0.19369   0.42031   0.00000  Uiso   1.00
C13    C     0.18045   0.32227   0.23827   0.00000  Uiso   1.00
C14    C     0.15104   0.01274   0.26271   0.00000  Uiso   1.00
C15    C     0.15602   0.05642   0.25888   0.00000  Uiso   1.00
C16    C     0.17675   0.27768   0.24139   0.00000  Uiso   1.00
C17    C     0.18835   0.14533   0.14404   0.00000  Uiso   1.00
C18    C     0.14485   0.18724   0.35626   0.00000  Uiso   1.00
C19    C     0.12970   0.18941   0.39976   0.00000  Uiso   1.00
C20    C     0.19778   0.13651   0.10123   0.00000  Uiso   1.00
C21    C     0.07125   0.18837   0.46050   0.00000  Uiso   1.00
C22    C     0.03347   0.20437   0.06841   0.00000  Uiso   1.00
C23    C     0.15796   0.18155   0.42022   0.00000  Uiso   1.00
C24    C     0.24054   0.06198   0.11222   0.00000  Uiso   1.00
C25    C     0.21902   0.22640   0.41304   0.00000  Uiso   1.00
C26    C     0.14148   0.17010   0.45940   0.00000  Uiso   1.00
C27    C     0.09801   0.17592   0.48011   0.00000  Uiso   1.00
C28    C     0.16677   0.15328   0.47861   0.00000  Uiso   1.00
C29    C     0.15195   0.15122   0.01988   0.00000  Uiso   1.00
C30    C     0.10821   0.15557   0.03910   0.00000  Uiso   1.00
C31    C     0.08148   0.16834   0.01993   0.00000  Uiso   1.00
H32    H     0.03786   0.19234   0.47584   0.00000  Uiso   1.00
H33    H     0.03984   0.16943   0.18425   0.00000  Uiso   1.00
H34    H     0.31806   0.15747   0.32262   0.00000  Uiso   1.00
H35    H     0.31819   0.10996   0.29670   0.00000  Uiso   1.00
H36    H     0.24459   0.00169   0.21344   0.00000  Uiso   1.00
H37    H     0.21478   0.32571   0.18102   0.00000  Uiso   1.00
H38    H     0.08659   0.00309   0.28718   0.00000  Uiso   1.00
H39    H     0.11590   0.01217   0.31995   0.00000  Uiso   1.00
H40    H     0.15970   0.20643   0.11466   0.00000  Uiso   1.00
H41    H     0.11990   0.16666   0.12619   0.00000  Uiso   1.00
H42    H     0.23671   0.03889   0.08701   0.00000  Uiso   1.00
H43    H     0.09324   0.14626   0.06843   0.00000  Uiso   1.00
H44    H     0.20907   0.06355   0.13520   0.00000  Uiso   1.00
H45    H     0.26277   0.05056   0.12558   0.00000  Uiso   1.00
H46    H     0.28662   0.12102   0.43407   0.00000  Uiso   1.00
H47    H     0.25586   0.07452   0.43435   0.00000  Uiso   1.00
H48    H     0.04376   0.22958   0.41431   0.00000  Uiso   1.00
H49    H     0.03166   0.17794   0.40357   0.00000  Uiso   1.00
H50    H     0.21520   0.23113   0.44542   0.00000  Uiso   1.00
H51    H     0.20415   0.25068   0.40421   0.00000  Uiso   1.00
H52    H     0.25405   0.23022   0.39775   0.00000  Uiso   1.00
H53    H     0.21312   0.12905   0.42562   0.00000  Uiso   1.00
H54    H     0.04958   0.23387   0.05575   0.00000  Uiso   1.00
H55    H     0.04587   0.19936   0.09309   0.00000  Uiso   1.00
H56    H     0.33197   0.20780   0.08098   0.00000  Uiso   1.00
H57    H     0.28067   0.06131   0.02540   0.00000  Uiso   1.00
H58    H     0.30907   0.10908   0.02644   0.00000  Uiso   1.00
H59    H     0.01066   0.20886   0.18892   0.00000  Uiso   1.00
N60    N     0.28340   0.09151   0.01772   0.00000  Uiso   1.00
N61    N     0.02545   0.19343   0.20420   0.00000  Uiso   1.00
N62    N     0.31163   0.14049   0.29744   0.00000  Uiso   1.00
N63    N     0.21599   0.00738   0.20867   0.00000  Uiso   1.00
N64    N     0.11448   0.32974   0.29262   0.00000  Uiso   1.00
N65    N     0.14277   0.18061   0.10289   0.00000  Uiso   1.00
N66    N     0.26628   0.09951   0.45235   0.00000  Uiso   1.00
N67    N     0.05683   0.20217   0.40030   0.00000  Uiso   1.00
O68    O     0.16667   0.16667   0.25000   0.00000  Uiso   1.00
O69    O     0.15693   0.12393   0.16625   0.00000  Uiso   1.00
O70    O     0.12687   0.20646   0.33749   0.00000  Uiso   1.00
O71    O     0.21088   0.17493   0.15877   0.00000  Uiso   1.00
O72    O     0.17198   0.16135   0.33749   0.00000  Uiso   1.00
O73    O     0.03811   0.17009   0.03915   0.00000  Uiso   1.00
O74    O     0.25840   0.10156   0.09985   0.00000  Uiso   1.00
O75    O     0.20176   0.18608   0.40151   0.00000  Uiso   1.00
O76    O     0.17849   0.08101   0.27821   0.00000  Uiso   1.00
O77    O     0.14581   0.26136   0.26767   0.00000  Uiso   1.00
O78    O     0.07452   0.13251   0.23607   0.00000  Uiso   1.00
O79    O     0.26785   0.19179   0.21806   0.00000  Uiso   1.00
O80    O     0.06990   0.18960   0.27820   0.00000  Uiso   1.00
O81    O     0.25440   0.15277   0.26768   0.00000  Uiso   1.00
O82    O     0.13800   0.06903   0.23607   0.00000  Uiso   1.00
O83    O     0.20437   0.25527   0.21806   0.00000  Uiso   1.00
Zn84   Zn    0.19244   0.14090   0.28278   0.00000  Uiso   1.00
Zn85   Zn    0.13459   0.12378   0.22258   0.00000  Uiso   1.00
Zn86   Zn    0.21166   0.19664   0.21188   0.00000  Uiso   1.00
Zn87   Zn    0.12798   0.20535   0.28277   0.00000  Uiso   1.00
C88    C     0.38610   0.16006   0.25884   0.00000  Uiso   1.00
C89    C     0.53757   0.13475   0.45742   0.00000  Uiso   1.00
C90    C     0.56271   0.11908   0.47637   0.00000  Uiso   1.00
C91    C     0.61446   0.17343   0.24114   0.00000  Uiso   1.00
C92    C     0.55180   0.12312   0.01818   0.00000  Uiso   1.00
C93    C     0.51351   0.14135   0.04020   0.00000  Uiso   1.00
C94    C     0.57784   0.10964   0.03869   0.00000  Uiso   1.00
C95    C     0.56594   0.11441   0.08020   0.00000  Uiso   1.00
C96    C     0.50587   0.15131   0.08158   0.00000  Uiso   1.00
C97    C     0.66071   0.17462   0.23679   0.00000  Uiso   1.00
C98    C     0.34078   0.15797   0.26321   0.00000  Uiso   1.00
C99    C     0.41960   0.19369   0.42031   0.00000  Uiso   1.00
C100   C     0.51378   0.32227   0.23827   0.00000  Uiso   1.00
C101   C     0.48438   0.01274   0.26271   0.00000  Uiso   1.00
C102   C     0.48935   0.05642   0.25888   0.00000  Uiso   1.00
C103   C     0.51008   0.27768   0.24139   0.00000  Uiso   1.00
C104   C     0.52168   0.14533   0.14404   0.00000  Uiso   1.00
C105   C     0.47818   0.18724   0.35626   0.00000  Uiso   1.00
C106   C     0.46303   0.18941   0.39976   0.00000  Uiso   1.00
C107   C     0.53112   0.13651   0.10123   0.00000  Uiso   1.00
C108   C     0.40458   0.18837   0.46050   0.00000  Uiso   1.00
C109   C     0.36681   0.20437   0.06841   0.00000  Uiso   1.00
C110   C     0.49129   0.18155   0.42022   0.00000  Uiso   1.00
C111   C     0.57387   0.06198   0.11222   0.00000  Uiso   1.00
C112   C     0.55236   0.22640   0.41304   0.00000  Uiso   1.00
C113   C     0.47481   0.17010   0.45940   0.00000  Uiso   1.00
C114   C     0.43135   0.17592   0.48011   0.00000  Uiso   1.00
C115   C     0.50011   0.15328   0.47861   0.00000  Uiso   1.00
C116   C     0.48529   0.15122   0.01988   0.00000  Uiso   1.00
C117   C     0.44154   0.15557   0.03910   0.00000  Uiso   1.00
C118   C     0.41482   0.16834   0.01993   0.00000  Uiso   1.00
H119   H     0.37119   0.19234   0.47584   0.00000  Uiso   1.00
H120   H     0.37318   0.16943   0.18425   0.00000  Uiso   1.00
H121   H     0.65140   0.15747   0.32262   0.00000  Uiso   1.00
H122   H     0.65153   0.10996   0.29670   0.00000  Uiso   1.00
H123   H     0.57793   0.00169   0.21344   0.00000  Uiso   1.00
H124   H     0.54811   0.32571   0.18102   0.00000  Uiso   1.00
H125   H     0.41992   0.00309   0.28718   0.00000  Uiso   1.00
H126   H     0.44924   0.01217   0.31995   0.00000  Uiso   1.00
H127   H     0.49303   0.20643   0.11466   0.00000  Uiso   1.00
H128   H     0.45323   0.16666   0.12619   0.00000  Uiso   1.00
H129   H     0.57005   0.03889   0.08701   0.00000  Uiso   1.00
H130   H     0.42657   0.14626   0.06843   0.00000  Uiso   1.00
H131   H     0.54241   0.06355   0.13520   0.00000  Uiso   1.00
H132   H     0.59610   0.05056   0.12558   0.00000  Uiso   1.00
H133   H     0.61996   0.12102   0.43407   0.00000  Uiso   1.00
H134   H     0.58920   0.07452   0.43435   0.00000  Uiso   1.00
H135   H     0.37709   0.22958   0.41431   0.00000  Uiso   1.00
H136   H     0.36499   0.17794   0.40357   0.00000  Uiso   1.00
H137   H     0.54853   0.23113   0.44542   0.00000  Uiso   1.00
H138   H     0.53748   0.25068   0.40421   0.00000  Uiso   1.00
H139   H     0.58738   0.23022   0.39775   0.00000  Uiso   1.00
H140   H     0.54646   0.12905   0.42562   0.00000  Uiso   1.00
H141   H     0.38291   0.23387   0.05575   0.00000  Uiso   1.00
H142   H     0.37921   0.19936   0.09309   0.00000  Uiso   1.00
H143   H     0.66531   0.20780   0.08098   0.00000  Uiso   1.00
H144   H     0.61400   0.06131   0.02540   0.00000  Uiso   1.00
H145   H     0.64240   0.10908   0.02644   0.00000  Uiso   1.00
H146   H     0.34399   0.20886   0.18892   0.00000  Uiso   1.00
N147   N     0.61674   0.09151   0.01772   0.00000  Uiso   1.00
N148   N     0.35879   0.19343   0.20420   0.00000  Uiso   1.00
N149   N     0.64497   0.14049   0.29744   0.00000  Uiso   1.00
N150   N     0.54933   0.00738   0.20867   0.00000  Uiso   1.00
N151   N     0.44782   0.32974   0.29262   0.00000  Uiso   1.00
N152   N     0.47610   0.18061   0.10289   0.00000  Uiso   1.00
N153   N     0.59962   0.09951   0.45235   0.00000  Uiso   1.00
N154   N     0.39016   0.20217   0.40030   0.00000  Uiso   1.00
O155   O     0.50000   0.16667   0.25000   0.00000  Uiso   1.00
O156   O     0.49027   0.12393   0.16625   0.00000  Uiso   1.00
O157   O     0.46020   0.20646   0.33749   0.00000  Uiso   1.00
O158   O     0.54421   0.17493   0.15877   0.00000  Uiso   1.00
O159   O     0.50532   0.16135   0.33749   0.00000  Uiso   1.00
O160   O     0.37145   0.17009   0.03915   0.00000  Uiso   1.00
O161   O     0.59173   0.10156   0.09985   0.00000  Uiso   1.00
O162   O     0.53509   0.18608   0.40151   0.00000  Uiso   1.00
O163   O     0.51182   0.08101   0.27821   0.00000  Uiso   1.00
O164   O     0.47914   0.26136   0.26767   0.00000  Uiso   1.00
O165   O     0.40785   0.13251   0.23607   0.00000  Uiso   1.00
O166   O     0.60119   0.19179   0.21806   0.00000  Uiso   1.00
O167   O     0.40323   0.18960   0.27820   0.00000  Uiso   1.00
O168   O     0.58773   0.15277   0.26768   0.00000  Uiso   1.00
O169   O     0.47133   0.06903   0.23607   0.00000  Uiso   1.00
O170   O     0.53771   0.25527   0.21806   0.00000  Uiso   1.00
Zn171  Zn    0.52577   0.14090   0.28278   0.00000  Uiso   1.00
Zn172  Zn    0.46792   0.12378   0.22258   0.00000  Uiso   1.00
Zn173  Zn    0.54500   0.19664   0.21188   0.00000  Uiso   1.00
Zn174  Zn    0.46131   0.20535   0.28277   0.00000  Uiso   1.00
C175   C     0.71943   0.16006   0.25884   0.00000  Uiso   1.00
C176   C     0.87090   0.13475   0.45742   0.00000  Uiso   1.00
C177   C     0.89604   0.11908   0.47637   0.00000  Uiso   1.00
C178   C     0.94779   0.17343   0.24114   0.00000  Uiso   1.00
C179   C     0.88513   0.12312   0.01818   0.00000  Uiso   1.00
C180   C     0.84685   0.14135   0.04020   0.00000  Uiso   1.00
C181   C     0.91117   0.10964   0.03869   0.00000  Uiso   1.00
C182   C     0.89927   0.11441   0.08020   0.00000  Uiso   1.00
C183   C     0.83921   0.15131   0.08158   0.00000  Uiso   1.00
C184   C     0.99405   0.17462   0.23679   0.00000  Uiso   1.00
C185   C     0.67411   0.15797   0.26321   0.00000  Uiso   1.00
C186   C     0.75293   0.19369   0.42031   0.00000  Uiso   1.00
C187   C     0.84711   0.32227   0.23827   0.00000  Uiso   1.00
C188   C     0.81771   0.01274   0.26271   0.00000  Uiso   1.00
C189   C     0.82268   0.05642   0.25888   0.00000  Uiso   1.00
C190   C     0.84341   0.27768   0.24139   0.00000  Uiso   1.00
C191   C     0.85501   0.14533   0.14404   0.00000  Uiso   1.00
C192   C     0.81151   0.18724   0.35626   0.00000  Uiso   1.00
C193   C     0.79636   0.18941   0.39976   0.00000  Uiso   1.00
C194   C     0.86445   0.13651   0.10123   0.00000  Uiso   1.00
C195   C     0.73791   0.18837   0.46050   0.00000  Uiso   1.00
C196   C     0.70014   0.20437   0.06841   0.00000  Uiso   1.00
C197   C     0.82462   0.18155   0.42022   0.00000  Uiso   1.00
C198   C     0.90721   0.06198   0.11222   0.00000  Uiso   1.00
C199   C     0.88569   0.22640   0.41304   0.00000  Uiso   1.00
C200   C     0.80814   0.17010   0.45940   0.00000  Uiso   1.00
C201   C     0.76468   0.17592   0.48011   0.00000  Uiso   1.00
C202   C     0.83344   0.15328   0.47861   0.00000  Uiso   1.00
C203   C     0.81862   0.15122   0.01988   0.00000  Uiso   1.00
C204   C     0.77487   0.15557   0.03910   0.00000  Uiso   1.00
C205   C     0.74815   0.16834   0.01993   0.00000  Uiso   1.00
H206   H     0.70452   0.19234   0.47584   0.00000  Uiso   1.00
H207   H     0.70651   0.16943   0.18425   0.00000  Uiso   1.00
H208   H     0.98473   0.15747   0.32262   0.00000  Uiso   1.00
H209   H     0.98486   0.10996   0.29670   0.00000  Uiso   1.00
H210   H     0.91126   0.00169   0.21344   0.00000  Uiso   1.00
H211   H     0.88144   0.32571   0.18102   0.00000  Uiso   1.00
H212   H     0.75325   0.00309   0.28718   0.00000  Uiso   1.00
H213   H     0.78257   0.01217   0.31995   0.00000  Uiso   1.00
H214   H     0.82637   0.20643   0.11466   0.00000  Uiso   1.00
H215   H     0.78657   0.16666   0.12619   0.00000  Uiso   1.00
H216   H     0.90338   0.03889   0.08701   0.00000  Uiso   1.00
H217   H     0.75990   0.14626   0.06843   0.00000  Uiso   1.00
H218   H     0.87574   0.06355   0.13520   0.00000  Uiso   1.00
H219   H     0.92944   0.05056   0.12558   0.00000  Uiso   1.00
H220   H     0.95329   0.12102   0.43407   0.00000  Uiso   1.00
H221   H     0.92253   0.07452   0.43435   0.00000  Uiso   1.00
H222   H     0.71043   0.22958   0.41431   0.00000  Uiso   1.00
H223   H     0.69832   0.17794   0.40357   0.00000  Uiso   1.00
H224   H     0.88186   0.23113   0.44542   0.00000  Uiso   1.00
H225   H     0.87082   0.25068   0.40421   0.00000  Uiso   1.00
H226   H     0.92072   0.23022   0.39775   0.00000  Uiso   1.00
H227   H     0.87979   0.12905   0.42562   0.00000  Uiso   1.00
H228   H     0.71625   0.23387   0.05575   0.00000  Uiso   1.00
H229   H     0.71254   0.19936   0.09309   0.00000  Uiso   1.00
H230   H     0.99864   0.20780   0.08098   0.00000  Uiso   1.00
H231   H     0.94734   0.06131   0.02540   0.00000  Uiso   1.00
H232   H     0.97573   0.10908   0.02644   0.00000  Uiso   1.00
H233   H     0.67733   0.20886   0.18892   0.00000  Uiso   1.00
N234   N     0.95007   0.09151   0.01772   0.00000  Uiso   1.00
N235   N     0.69212   0.19343   0.20420   0.00000  Uiso   1.00
N236   N     0.97830   0.14049   0.29744   0.00000  Uiso   1.00
N237   N     0.88266   0.00738   0.20867   0.00000  Uiso   1.00
N238   N     0.78115   0.32974   0.29262   0.00000  Uiso   1.00
N239   N     0.80943   0.18061   0.10289   0.00000  Uiso   1.00
N240   N     0.93295   0.09951   0.45235   0.00000  Uiso   1.00
N241   N     0.72349   0.20217   0.40030   0.00000  Uiso   1.00
O242   O     0.83333   0.16667   0.25000   0.00000  Uiso   1.00
O243   O     0.82360   0.12393   0.16625   0.00000  Uiso   1.00
O244   O     0.79354   0.20646   0.33749   0.00000  Uiso   1.00
O245   O     0.87755   0.17493   0.15877   0.00000  Uiso   1.00
O246   O     0.83865   0.16135   0.33749   0.00000  Uiso   1.00
O247   O     0.70478   0.17009   0.03915   0.00000  Uiso   1.00
O248   O     0.92507   0.10156   0.09985   0.00000  Uiso   1.00
O249   O     0.86843   0.18608   0.40151   0.00000  Uiso   1.00
O250   O     0.84515   0.08101   0.27821   0.00000  Uiso   1.00
O251   O     0.81247   0.26136   0.26767   0.00000  Uiso   1.00
O252   O     0.74119   0.13251   0.23607   0.00000  Uiso   1.00
O253   O     0.93452   0.19179   0.21806   0.00000  Uiso   1.00
O254   O     0.73656   0.18960   0.27820   0.00000  Uiso   1.00
O255   O     0.92106   0.15277   0.26768   0.00000  Uiso   1.00
O256   O     0.80467   0.06903   0.23607   0.00000  Uiso   1.00
O257   O     0.87104   0.25527   0.21806   0.00000  Uiso   1.00
Zn258  Zn    0.85910   0.14090   0.28278   0.00000  Uiso   1.00
Zn259  Zn    0.80125   0.12378   0.22258   0.00000  Uiso   1.00
Zn260  Zn    0.87833   0.19664   0.21188   0.00000  Uiso   1.00
Zn261  Zn    0.79465   0.20535   0.28277   0.00000  Uiso   1.00
C262   C     0.05277   0.49339   0.25884   0.00000  Uiso   1.00
C263   C     0.20424   0.46808   0.45742   0.00000  Uiso   1.00
C264   C     0.22938   0.45241   0.47637   0.00000  Uiso   1.00
C265   C     0.28112   0.50676   0.24114   0.00000  Uiso   1.00
C266   C     0.21847   0.45645   0.01818   0.00000  Uiso   1.00
C267   C     0.18018   0.47468   0.04020   0.00000  Uiso   1.00
C268   C     0.24450   0.44297   0.03869   0.00000  Uiso   1.00
C269   C     0.23260   0.44774   0.08020   0.00000  Uiso   1.00
C270   C     0.17254   0.48465   0.08158   0.00000  Uiso   1.00
C271   C     0.32738   0.50795   0.23679   0.00000  Uiso   1.00
C272   C     0.00744   0.49130   0.26321   0.00000  Uiso   1.00
C273   C     0.08626   0.52703   0.42031   0.00000  Uiso   1.00
C274   C     0.18045   0.65561   0.23827   0.00000  Uiso   1.00
C275   C     0.15104   0.34608   0.26271   0.00000  Uiso   1.00
C276   C     0.15602   0.38976   0.25888   0.00000  Uiso   1.00
C277   C     0.17675   0.61102   0.24139   0.00000  Uiso   1.00
C278   C     0.18835   0.47866   0.14404   0.00000  Uiso   1.00
C279   C     0.14485   0.52057   0.35626   0.00000  Uiso   1.00
C280   C     0.12970   0.52274   0.39976   0.00000  Uiso   1.00
C281   C     0.19778   0.46985   0.10123   0.00000  Uiso   1.00
C282   C     0.07125   0.52170   0.46050   0.00000  Uiso   1.00
C283   C     0.03347   0.53770   0.06841   0.00000  Uiso   1.00
C284   C     0.15796   0.51488   0.42022   0.00000  Uiso   1.00
C285   C     0.24054   0.39532   0.11222   0.00000  Uiso   1.00
C286   C     0.21902   0.55973   0.41304   0.00000  Uiso   1.00
C287   C     0.14148   0.50344   0.45940   0.00000  Uiso   1.00
C288   C     0.09801   0.50925   0.48011   0.00000  Uiso   1.00
C289   C     0.16677   0.48661   0.47861   0.00000  Uiso   1.00
C290   C     0.15195   0.48455   0.01988   0.00000  Uiso   1.00
C291   C     0.10821   0.48890   0.03910   0.00000  Uiso   1.00
C292   C     0.08148   0.50167   0.01993   0.00000  Uiso   1.00
H293   H     0.03786   0.52568   0.47584   0.00000  Uiso   1.00
H294   H     0.03984   0.50276   0.18425   0.00000  Uiso   1.00
H295   H     0.31806   0.49080   0.32262   0.00000  Uiso   1.00
H296   H     0.31819   0.44329   0.29670   0.00000  Uiso   1.00
H297   H     0.24459   0.33503   0.21344   0.00000  Uiso   1.00
H298   H     0.21478   0.65904   0.18102   0.00000  Uiso   1.00
H299   H     0.08659   0.33642   0.28718   0.00000  Uiso   1.00
H300   H     0.11590   0.34550   0.31995   0.00000  Uiso   1.00
H301   H     0.15970   0.53976   0.11466   0.00000  Uiso   1.00
H302   H     0.11990   0.49999   0.12619   0.00000  Uiso   1.00
H303   H     0.23671   0.37222   0.08701   0.00000  Uiso   1.00
H304   H     0.09324   0.47960   0.06843   0.00000  Uiso   1.00
H305   H     0.20907   0.39689   0.13520   0.00000  Uiso   1.00
H306   H     0.26277   0.38389   0.12558   0.00000  Uiso   1.00
H307   H     0.28662   0.45436   0.43407   0.00000  Uiso   1.00
H308   H     0.25586   0.40785   0.43435   0.00000  Uiso   1.00
H309   H     0.04376   0.56291   0.41431   0.00000  Uiso   1.00
H310   H     0.03166   0.51127   0.40357   0.00000  Uiso   1.00
H311   H     0.21520   0.56446   0.44542   0.00000  Uiso   1.00
H312   H     0.20415   0.58401   0.40421   0.00000  Uiso   1.00
H313   H     0.25405   0.56355   0.39775   0.00000  Uiso   1.00
H314   H     0.21312   0.46238   0.42562   0.00000  Uiso   1.00
H315   H     0.04958   0.56720   0.05575   0.00000  Uiso   1.00
H316   H     0.04587   0.53269   0.09309   0.00000  Uiso   1.00
H317   H     0.33197   0.54113   0.08098   0.00000  Uiso   1.00
H318   H     0.28067   0.39464   0.02540   0.00000  Uiso   1.00
H319   H     0.30907   0.44242   0.02644   0.00000  Uiso   1.00
H320   H     0.01066   0.54219   0.18892   0.00000  Uiso   1.00
N321   N     0.28340   0.42484   0.01772   0.00000  Uiso   1.00
N322   N     0.02545   0.52676   0.20420   0.00000  Uiso   1.00
N323   N     0.31163   0.47382   0.29744   0.00000  Uiso   1.00
N324   N     0.21599   0.34071   0.20867   0.00000  Uiso   1.00
N325   N     0.11448   0.66307   0.29262   0.00000  Uiso   1.00
N326   N     0.14277   0.51395   0.10289   0.00000  Uiso   1.00
N327   N     0.26628   0.43284   0.45235   0.00000  Uiso   1.00
N328   N     0.05683   0.53550   0.40030   0.00000  Uiso   1.00
O329   O     0.16667   0.50000   0.25000   0.00000  Uiso   1.00
O330   O     0.15693   0.45726   0.16625   0.00000  Uiso   1.00
O331   O     0.12687   0.53979   0.33749   0.00000  Uiso   1.00
O332   O     0.21088   0.50826   0.15877   0.00000  Uiso   1.00
O333   O     0.17198   0.49468   0.33749   0.00000  Uiso   1.00
O334   O     0.03811   0.50343   0.03915   0.00000  Uiso   1.00
O335   O     0.25840   0.43490   0.09985   0.00000  Uiso   1.00
O336   O     0.20176   0.51941   0.40151   0.00000  Uiso   1.00
O337   O     0.17849   0.41434   0.27821   0.00000  Uiso   1.00
O338   O     0.14581   0.59469   0.26767   0.00000  Uiso   1.00
O339   O     0.07452   0.46584   0.23607   0.00000  Uiso   1.00
O340   O     0.26785   0.52512   0.21806   0.00000  Uiso   1.00
O341   O     0.06990   0.52293   0.27820   0.00000  Uiso   1.00
O342   O     0.25440   0.48610   0.26768   0.00000  Uiso   1.00
O343   O     0.13800   0.40236   0.23607   0.00000  Uiso   1.00
O344   O     0.20437   0.58860   0.21806   0.00000  Uiso   1.00
Zn345  Zn    0.19244   0.47423   0.28278   0.00000  Uiso   1.00
Zn346  Zn    0.13459   0.45711   0.22258   0.00000  Uiso   1.00
Zn347  Zn    0.21166   0.52997   0.21188   0.00000  Uiso   1.00
Zn348  Zn    0.12798   0.53868   0.28277   0.00000  Uiso   1.00
C349   C     0.38610   0.49339   0.25884   0.00000  Uiso   1.00
C350   C     0.53757   0.46808   0.45742   0.00000  Uiso   1.00
C351   C     0.56271   0.45241   0.47637   0.00000  Uiso   1.00
C352   C     0.61446   0.50676   0.24114   0.00000  Uiso   1.00
C353   C     0.55180   0.45645   0.01818   0.00000  Uiso   1.00
C354   C     0.51351   0.47468   0.04020   0.00000  Uiso   1.00
C355   C     0.57784   0.44297   0.03869   0.00000  Uiso   1.00
C356   C     0.56594   0.44774   0.08020   0.00000  Uiso   1.00
C357   C     0.50587   0.48465   0.08158   0.00000  Uiso   1.00
C358   C     0.66071   0.50795   0.23679   0.00000  Uiso   1.00
C359   C     0.34078   0.49130   0.26321   0.00000  Uiso   1.00
C360   C     0.41960   0.52703   0.42031   0.00000  Uiso   1.00
C361   C     0.51378   0.65561   0.23827   0.00000  Uiso   1.00
C362   C     0.48438   0.34608   0.26271   0.00000  Uiso   1.00
C363   C     0.48935   0.38976   0.25888   0.00000  Uiso   1.00
C364   C     0.51008   0.61102   0.24139   0.00000  Uiso   1.00
C365   C     0.52168   0.47866   0.14404   0.00000  Uiso   1.00
C366   C     0.47818   0.52057   0.35626   0.00000  Uiso   1.00
C367   C     0.46303   0.52274   0.39976   0.00000  Uiso   1.00
C368   C     0.53112   0.46985   0.10123   0.00000  Uiso   1.00
C369   C     0.40458   0.52170   0.46050   0.00000  Uiso   1.00
C370   C     0.36681   0.53770   0.06841   0.00000  Uiso   1.00
C371   C     0.49129   0.51488   0.42022   0.00000  Uiso   1.00
C372   C     0.57387   0.39532   0.11222   0.00000  Uiso   1.00
C373   C     0.55236   0.55973   0.41304   0.00000  Uiso   1.00
C374   C     0.47481   0.50344   0.45940   0.00000  Uiso   1.00
C375   C     0.43135   0.50925   0.48011   0.00000  Uiso   1.00
C376   C     0.50011   0.48661   0.47861   0.00000  Uiso   1.00
C377   C     0.48529   0.48455   0.01988   0.00000  Uiso   1.00
C378   C     0.44154   0.48890   0.03910   0.00000  Uiso   1.00
C379   C     0.41482   0.50167   0.01993   0.00000  Uiso   1.00
H380   H     0.37119   0.52568   0.47584   0.00000  Uiso   1.00
H381   H     0.37318   0.50276   0.18425   0.00000  Uiso   1.00
H382   H     0.65140   0.49080   0.32262   0.00000  Uiso   1.00
H383   H     0.65153   0.44329   0.29670   0.00000  Uiso   1.00
H384   H     0.57793   0.33503   0.21344   0.00000  Uiso   1.00
H385   H     0.54811   0.65904   0.18102   0.00000  Uiso   1.00
H386   H     0.41992   0.33642   0.28718   0.00000  Uiso   1.00
H387   H     0.44924   0.34550   0.31995   0.00000  Uiso   1.00
H388   H     0.49303   0.53976   0.11466   0.00000  Uiso   1.00
H389   H     0.45323   0.49999   0.12619   0.00000  Uiso   1.00
H390   H     0.57005   0.37222   0.08701   0.00000  Uiso   1.00
H391   H     0.42657   0.47960   0.06843   0.00000  Uiso   1.00
H392   H     0.54241   0.39689   0.13520   0.00000  Uiso   1.00
H393   H     0.59610   0.38389   0.12558   0.00000  Uiso   1.00
H394   H     0.61996   0.45436   0.43407   0.00000  Uiso   1.00
H395   H     0.58920   0.40785   0.43435   0.00000  Uiso   1.00
H396   H     0.37709   0.56291   0.41431   0.00000  Uiso   1.00
H397   H     0.36499   0.51127   0.40357   0.00000  Uiso   1.00
H398   H     0.54853   0.56446   0.44542   0.00000  Uiso   1.00
H399   H     0.53748   0.58401   0.40421   0.00000  Uiso   1.00
H400   H     0.58738   0.56355   0.39775   0.00000  Uiso   1.00
H401   H     0.54646   0.46238   0.42562   0.00000  Uiso   1.00
H402   H     0.38291   0.56720   0.05575   0.00000  Uiso   1.00
H403   H     0.37921   0.53269   0.09309   0.00000  Uiso   1.00
H404   H     0.66531   0.54113   0.08098   0.00000  Uiso   1.00
H405   H     0.61400   0.39464   0.02540   0.00000  Uiso   1.00
H406   H     0.64240   0.44242   0.02644   0.00000  Uiso   1.00
H407   H     0.34399   0.54219   0.18892   0.00000  Uiso   1.00
N408   N     0.61674   0.42484   0.01772   0.00000  Uiso   1.00
N409   N     0.35879   0.52676   0.20420   0.00000  Uiso   1.00
N410   N     0.64497   0.47382   0.29744   0.00000  Uiso   1.00
N411   N     0.54933   0.34071   0.20867   0.00000  Uiso   1.00
N412   N     0.44782   0.66307   0.29262   0.00000  Uiso   1.00
N413   N     0.47610   0.51395   0.10289   0.00000  Uiso   1.00
N414   N     0.59962   0.43284   0.45235   0.00000  Uiso   1.00
N415   N     0.39016   0.53550   0.40030   0.00000  Uiso   1.00
O416   O     0.50000   0.50000   0.25000   0.00000  Uiso   1.00
O417   O     0.49027   0.45726   0.16625   0.00000  Uiso   1.00
O418   O     0.46020   0.53979   0.33749   0.00000  Uiso   1.00
O419   O     0.54421   0.50826   0.15877   0.00000  Uiso   1.00
O420   O     0.50532   0.49468   0.33749   0.00000  Uiso   1.00
O421   O     0.37145   0.50343   0.03915   0.00000  Uiso   1.00
O422   O     0.59173   0.43490   0.09985   0.00000  Uiso   1.00
O423   O     0.53509   0.51941   0.40151   0.00000  Uiso   1.00
O424   O     0.51182   0.41434   0.27821   0.00000  Uiso   1.00
O425   O     0.47914   0.59469   0.26767   0.00000  Uiso   1.00
O426   O     0.40785   0.46584   0.23607   0.00000  Uiso   1.00
O427   O     0.60119   0.52512   0.21806   0.00000  Uiso   1.00
O428   O     0.40323   0.52293   0.27820   0.00000  Uiso   1.00
O429   O     0.58773   0.48610   0.26768   0.00000  Uiso   1.00
O430   O     0.47133   0.40236   0.23607   0.00000  Uiso   1.00
O431   O     0.53771   0.58860   0.21806   0.00000  Uiso   1.00
Zn432  Zn    0.52577   0.47423   0.28278   0.00000  Uiso   1.00
Zn433  Zn    0.46792   0.45711   0.22258   0.00000  Uiso   1.00
Zn434  Zn    0.54500   0.52997   0.21188   0.00000  Uiso   1.00
Zn435  Zn    0.46131   0.53868   0.28277   0.00000  Uiso   1.00
C436   C     0.71943   0.49339   0.25884   0.00000  Uiso   1.00
C437   C     0.87090   0.46808   0.45742   0.00000  Uiso   1.00
C438   C     0.89604   0.45241   0.47637   0.00000  Uiso   1.00
C439   C     0.94779   0.50676   0.24114   0.00000  Uiso   1.00
C440   C     0.88513   0.45645   0.01818   0.00000  Uiso   1.00
C441   C     0.84685   0.47468   0.04020   0.00000  Uiso   1.00
C442   C     0.91117   0.44297   0.03869   0.00000  Uiso   1.00
C443   C     0.89927   0.44774   0.08020   0.00000  Uiso   1.00
C444   C     0.83921   0.48465   0.08158   0.00000  Uiso   1.00
C445   C     0.99405   0.50795   0.23679   0.00000  Uiso   1.00
C446   C     0.67411   0.49130   0.26321   0.00000  Uiso   1.00
C447   C     0.75293   0.52703   0.42031   0.00000  Uiso   1.00
C448   C     0.84711   0.65561   0.23827   0.00000  Uiso   1.00
C449   C     0.81771   0.34608   0.26271   0.00000  Uiso   1.00
C450   C     0.82268   0.38976   0.25888   0.00000  Uiso   1.00
C451   C     0.84341   0.61102   0.24139   0.00000  Uiso   1.00
C452   C     0.85501   0.47866   0.14404   0.00000  Uiso   1.00
C453   C     0.81151   0.52057   0.35626   0.00000  Uiso   1.00
C454   C     0.79636   0.52274   0.39976   0.00000  Uiso   1.00
C455   C     0.86445   0.46985   0.10123   0.00000  Uiso   1.00
C456   C     0.73791   0.52170   0.46050   0.00000  Uiso   1.00
C457   C     0.70014   0.53770   0.06841   0.00000  Uiso   1.00
C458   C     0.82462   0.51488   0.42022   0.00000  Uiso   1.00
C459   C     0.90721   0.39532   0.11222   0.00000  Uiso   1.00
C460   C     0.88569   0.55973   0.41304   0.00000  Uiso   1.00
C461   C     0.80814   0.50344   0.45940   0.00000  Uiso   1.00
C462   C     0.76468   0.50925   0.48011   0.00000  Uiso   1.00
C463   C     0.83344   0.48661   0.47861   0.00000  Uiso   1.00
C464   C     0.81862   0.48455   0.01988   0.00000  Uiso   1.00
C465   C     0.77487   0.48890   0.03910   0.00000  Uiso   1.00
C466   C     0.74815   0.50167   0.01993   0.00000  Uiso   1.00
H467   H     0.70452   0.52568   0.47584   0.00000  Uiso   1.00
H468   H     0.70651   0.50276   0.18425   0.00000  Uiso   1.00
H469   H     0.98473   0.49080   0.32262   0.00000  Uiso   1.00
H470   H     0.98486   0.44329   0.29670   0.00000  Uiso   1.00
H471   H     0.91126   0.33503   0.21344   0.00000  Uiso   1.00
H472   H     0.88144   0.65904   0.18102   0.00000  Uiso   1.00
H473   H     0.75325   0.33642   0.28718   0.00000  Uiso   1.00
H474   H     0.78257   0.34550   0.31995   0.00000  Uiso   1.00
H475   H     0.82637   0.53976   0.11466   0.00000  Uiso   1.00
H476   H     0.78657   0.49999   0.12619   0.00000  Uiso   1.00
H477   H     0.90338   0.37222   0.08701   0.00000  Uiso   1.00
H478   H     0.75990   0.47960   0.06843   0.00000  Uiso   1.00
H479   H     0.87574   0.39689   0.13520   0.00000  Uiso   1.00
H480   H     0.92944   0.38389   0.12558   0.00000  Uiso   1.00
H481   H     0.95329   0.45436   0.43407   0.00000  Uiso   1.00
H482   H     0.92253   0.40785   0.43435   0.00000  Uiso   1.00
H483   H     0.71043   0.56291   0.41431   0.00000  Uiso   1.00
H484   H     0.69832   0.51127   0.40357   0.00000  Uiso   1.00
H485   H     0.88186   0.56446   0.44542   0.00000  Uiso   1.00
H486   H     0.87082   0.58401   0.40421   0.00000  Uiso   1.00
H487   H     0.92072   0.56355   0.39775   0.00000  Uiso   1.00
H488   H     0.87979   0.46238   0.42562   0.00000  Uiso   1.00
H489   H     0.71625   0.56720   0.05575   0.00000  Uiso   1.00
H490   H     0.71254   0.53269   0.09309   0.00000  Uiso   1.00
H491   H     0.99864   0.54113   0.08098   0.00000  Uiso   1.00
H492   H     0.94734   0.39464   0.02540   0.00000  Uiso   1.00
H493   H     0.97573   0.44242   0.02644   0.00000  Uiso   1.00
H494   H     0.67733   0.54219   0.18892   0.00000  Uiso   1.00
N495   N     0.95007   0.42484   0.01772   0.00000  Uiso   1.00
N496   N     0.69212   0.52676   0.20420   0.00000  Uiso   1.00
N497   N     0.97830   0.47382   0.29744   0.00000  Uiso   1.00
N498   N     0.88266   0.34071   0.20867   0.00000  Uiso   1.00
N499   N     0.78115   0.66307   0.29262   0.00000  Uiso   1.00
N500   N     0.80943   0.51395   0.10289   0.00000  Uiso   1.00
N501   N     0.93295   0.43284   0.45235   0.00000  Uiso   1.00
N502   N     0.72349   0.53550   0.40030   0.00000  Uiso   1.00
O503   O     0.83333   0.50000   0.25000   0.00000  Uiso   1.00
O504   O     0.82360   0.45726   0.16625   0.00000  Uiso   1.00
O505   O     0.79354   0.53979   0.33749   0.00000  Uiso   1.00
O506   O     0.87755   0.50826   0.15877   0.00000  Uiso   1.00
O507   O     0.83865   0.49468   0.33749   0.00000  Uiso   1.00
O508   O     0.70478   0.50343   0.03915   0.00000  Uiso   1.00
O509   O     0.92507   0.43490   0.09985   0.00000  Uiso   1.00
O510   O     0.86843   0.51941   0.40151   0.00000  Uiso   1.00
O511   O     0.84515   0.41434   0.27821   0.00000  Uiso   1.00
O512   O     0.81247   0.59469   0.26767   0.00000  Uiso   1.00
O513   O     0.74119   0.46584   0.23607   0.00000  Uiso   1.00
O514   O     0.93452   0.52512   0.21806   0.00000  Uiso   1.00
O515   O     0.73656   0.52293   0.27820   0.00000  Uiso   1.00
O516   O     0.92106   0.48610   0.26768   0.00000  Uiso   1.00
O517   O     0.80467   0.40236   0.23607   0.00000  Uiso   1.00
O518   O     0.87104   0.58860   0.21806   0.00000  Uiso   1.00
Zn519  Zn    0.85910   0.47423   0.28278   0.00000  Uiso   1.00
Zn520  Zn    0.80125   0.45711   0.22258   0.00000  Uiso   1.00
Zn521  Zn    0.87833   0.52997   0.21188   0.00000  Uiso   1.00
Zn522  Zn    0.79465   0.53868   0.28277   0.00000  Uiso   1.00
C523   C     0.05277   0.82673   0.25884   0.00000  Uiso   1.00
C524   C     0.20424   0.80141   0.45742   0.00000  Uiso   1.00
C525   C     0.22938   0.78574   0.47637   0.00000  Uiso   1.00
C526   C     0.28112   0.84010   0.24114   0.00000  Uiso   1.00
C527   C     0.21847   0.78978   0.01818   0.00000  Uiso   1.00
C528   C     0.18018   0.80801   0.04020   0.00000  Uiso   1.00
C529   C     0.24450   0.77630   0.03869   0.00000  Uiso   1.00
C530   C     0.23260   0.78108   0.08020   0.00000  Uiso   1.00
C531   C     0.17254   0.81798   0.08158   0.00000  Uiso   1.00
C532   C     0.32738   0.84128   0.23679   0.00000  Uiso   1.00
C533   C     0.00744   0.82464   0.26321   0.00000  Uiso   1.00
C534   C     0.08626   0.86036   0.42031   0.00000  Uiso   1.00
C535   C     0.18045   0.98894   0.23827   0.00000  Uiso   1.00
C536   C     0.15104   0.67941   0.26271   0.00000  Uiso   1.00
C537   C     0.15602   0.72309   0.25888   0.00000  Uiso   1.00
C538   C     0.17675   0.94435   0.24139   0.00000  Uiso   1.00
C539   C     0.18835   0.81200   0.14404   0.00000  Uiso   1.00
C540   C     0.14485   0.85390   0.35626   0.00000  Uiso   1.00
C541   C     0.12970   0.85608   0.39976   0.00000  Uiso   1.00
C542   C     0.19778   0.80318   0.10123   0.00000  Uiso   1.00
C543   C     0.07125   0.85503   0.46050   0.00000  Uiso   1.00
C544   C     0.03347   0.87104   0.06841   0.00000  Uiso   1.00
C545   C     0.15796   0.84821   0.42022   0.00000  Uiso   1.00
C546   C     0.24054   0.72865   0.11222   0.00000  Uiso   1.00
C547   C     0.21902   0.89307   0.41304   0.00000  Uiso   1.00
C548   C     0.14148   0.83677   0.45940   0.00000  Uiso   1.00
C549   C     0.09801   0.84258   0.48011   0.00000  Uiso   1.00
C550   C     0.16677   0.81994   0.47861   0.00000  Uiso   1.00
C551   C     0.15195   0.81788   0.01988   0.00000  Uiso   1.00
C552   C     0.10821   0.82224   0.03910   0.00000  Uiso   1.00
C553   C     0.08148   0.83501   0.01993   0.00000  Uiso   1.00
H554   H     0.03786   0.85901   0.47584   0.00000  Uiso   1.00
H555   H     0.03984   0.83610   0.18425   0.00000  Uiso   1.00
H556   H     0.31806   0.82414   0.32262   0.00000  Uiso   1.00
H557   H     0.31819   0.77663   0.29670   0.00000  Uiso   1.00
H558   H     0.24459   0.66836   0.21344   0.00000  Uiso   1.00
H559   H     0.21478   0.99237   0.18102   0.00000  Uiso   1.00
H560   H     0.08659   0.66975   0.28718   0.00000  Uiso   1.00
H561   H     0.11590   0.67883   0.31995   0.00000  Uiso   1.00
H562   H     0.15970   0.87309   0.11466   0.00000  Uiso   1.00
H563   H     0.11990   0.83333   0.12619   0.00000  Uiso   1.00
H564   H     0.23671   0.70556   0.08701   0.00000  Uiso   1.00
H565   H     0.09324   0.81293   0.06843   0.00000  Uiso   1.00
H566   H     0.20907   0.73022   0.13520   0.00000  Uiso   1.00
H567   H     0.26277   0.71723   0.12558   0.00000  Uiso   1.00
H568   H     0.28662   0.78769   0.43407   0.00000  Uiso   1.00
H569   H     0.25586   0.74118   0.43435   0.00000  Uiso   1.00
H570   H     0.04376   0.89625   0.41431   0.00000  Uiso   1.00
H571   H     0.03166   0.84461   0.40357   0.00000  Uiso   1.00
H572   H     0.21520   0.89780   0.44542   0.00000  Uiso   1.00
H573   H     0.20415   0.91734   0.40421   0.00000  Uiso   1.00
H574   H     0.25405   0.89688   0.39775   0.00000  Uiso   1.00
H575   H     0.21312   0.79571   0.42562   0.00000  Uiso   1.00
H576   H     0.04958   0.90054   0.05575   0.00000  Uiso   1.00
H577   H     0.04587   0.86602   0.09309   0.00000  Uiso   1.00
H578   H     0.33197   0.87446   0.08098   0.00000  Uiso   1.00
H579   H     0.28067   0.72798   0.02540   0.00000  Uiso   1.00
H580   H     0.30907   0.77575   0.02644   0.00000  Uiso   1.00
H581   H     0.01066   0.87552   0.18892   0.00000  Uiso   1.00
N582   N     0.28340   0.75817   0.01772   0.00000  Uiso   1.00
N583   N     0.02545   0.86010   0.20420   0.00000  Uiso   1.00
N584   N     0.31163   0.80715   0.29744   0.00000  Uiso   1.00
N585   N     0.21599   0.67405   0.20867   0.00000  Uiso   1.00
N586   N     0.11448   0.99640   0.29262   0.00000  Uiso   1.00
N587   N     0.14277   0.84728   0.10289   0.00000  Uiso   1.00
N588   N     0.26628   0.76618   0.45235   0.00000  Uiso   1.00
N589   N     0.05683   0.86883   0.40030   0.00000  Uiso   1.00
O590   O     0.16667   0.83333   0.25000   0.00000  Uiso   1.00
O591   O     0.15693   0.79060   0.16625   0.00000  Uiso   1.00
O592   O     0.12687   0.87313   0.33749   0.00000  Uiso   1.00
O593   O     0.21088   0.84159   0.15877   0.00000  Uiso   1.00
O594   O     0.17198   0.82802   0.33749   0.00000  Uiso   1.00
O595   O     0.03811   0.83676   0.03915   0.00000  Uiso   1.00
O596   O     0.25840   0.76823   0.09985   0.00000  Uiso   1.00
O597   O     0.20176   0.85274   0.40151   0.00000  Uiso   1.00
O598   O     0.17849   0.74768   0.27821   0.00000  Uiso   1.00
O599   O     0.14581   0.92803   0.26767   0.00000  Uiso   1.00
O600   O     0.07452   0.79917   0.23607   0.00000  Uiso   1.00
O601   O     0.26785   0.85845   0.21806   0.00000  Uiso   1.00
O602   O     0.06990   0.85627   0.27820   0.00000  Uiso   1.00
O603   O     0.25440   0.81944   0.26768   0.00000  Uiso   1.00
O604   O     0.13800   0.73570   0.23607   0.00000  Uiso   1.00
O605   O     0.20437   0.92193   0.21806   0.00000  Uiso   1.00
Zn606  Zn    0.19244   0.80756   0.28278   0.00000  Uiso   1.00
Zn607  Zn    0.13459   0.79044   0.22258   0.00000  Uiso   1.00
Zn608  Zn    0.21166   0.86331   0.21188   0.00000  Uiso   1.00
Zn609  Zn    0.12798   0.87202   0.28277   0.00000  Uiso   1.00
C610   C     0.38610   0.82673   0.25884   0.00000  Uiso   1.00
C611   C     0.53757   0.80141   0.45742   0.00000  Uiso   1.00
C612   C     0.56271   0.78574   0.47637   0.00000  Uiso   1.00
C613   C     0.61446   0.84010   0.24114   0.00000  Uiso   1.00
C614   C     0.55180   0.78978   0.01818   0.00000  Uiso   1.00
C615   C     0.51351   0.80801   0.04020   0.00000  Uiso   1.00
C616   C     0.57784   0.77630   0.03869   0.00000  Uiso   1.00
C617   C     0.56594   0.78108   0.08020   0.00000  Uiso   1.00
C618   C     0.50587   0.81798   0.08158   0.00000  Uiso   1.00
C619   C     0.66071   0.84128   0.23679   0.00000  Uiso   1.00
C620   C     0.34078   0.82464   0.26321   0.00000  Uiso   1.00
C621   C     0.41960   0.86036   0.42031   0.00000  Uiso   1.00
C622   C     0.51378   0.98894   0.23827   0.00000  Uiso   1.00
C623   C     0.48438   0.67941   0.26271   0.00000  Uiso   1.00
C624   C     0.48935   0.72309   0.25888   0.00000  Uiso   1.00
C625   C     0.51008   0.94435   0.24139   0.00000  Uiso   1.00
C626   C     0.52168   0.81200   0.14404   0.00000  Uiso   1.00
C627   C     0.47818   0.85390   0.35626   0.00000  Uiso   1.00
C628   C     0.46303   0.85608   0.39976   0.00000  Uiso   1.00
C629   C     0.53112   0.80318   0.10123   0.00000  Uiso   1.00
C630   C     0.40458   0.85503   0.46050   0.00000  Uiso   1.00
C631   C     0.36681   0.87104   0.06841   0.00000  Uiso   1.00
C632   C     0.49129   0.84821   0.42022   0.00000  Uiso   1.00
C633   C     0.57387   0.72865   0.11222   0.00000  Uiso   1.00
C634   C     0.55236   0.89307   0.41304   0.00000  Uiso   1.00
C635   C     0.47481   0.83677   0.45940   0.00000  Uiso   1.00
C636   C     0.43135   0.84258   0.48011   0.00000  Uiso   1.00
C637   C     0.50011   0.81994   0.47861   0.00000  Uiso   1.00
C638   C     0.48529   0.81788   0.01988   0.00000  Uiso   1.00
C639   C     0.44154   0.82224   0.03910   0.00000  Uiso   1.00
C640   C     0.41482   0.83501   0.01993   0.00000  Uiso   1.00
H641   H     0.37119   0.85901   0.47584   0.00000  Uiso   1.00
H642   H     0.37318   0.83610   0.18425   0.00000  Uiso   1.00
H643   H     0.65140   0.82414   0.32262   0.00000  Uiso   1.00
H644   H     0.65153   0.77663   0.29670   0.00000  Uiso   1.00
H645   H     0.57793   0.66836   0.21344   0.00000  Uiso   1.00
H646   H     0.54811   0.99237   0.18102   0.00000  Uiso   1.00
H647   H     0.41992   0.66975   0.28718   0.00000  Uiso   1.00
H648   H     0.44924   0.67883   0.31995   0.00000  Uiso   1.00
H649   H     0.49303   0.87309   0.11466   0.00000  Uiso   1.00
H650   H     0.45323   0.83333   0.12619   0.00000  Uiso   1.00
H651   H     0.57005   0.70556   0.08701   0.00000  Uiso   1.00
H652   H     0.42657   0.81293   0.06843   0.00000  Uiso   1.00
H653   H     0.54241   0.73022   0.13520   0.00000  Uiso   1.00
H654   H     0.59610   0.71723   0.12558   0.00000  Uiso   1.00
H655   H     0.61996   0.78769   0.43407   0.00000  Uiso   1.00
H656   H     0.58920   0.74118   0.43435   0.00000  Uiso   1.00
H657   H     0.37709   0.89625   0.41431   0.00000  Uiso   1.00
H658   H     0.36499   0.84461   0.40357   0.00000  Uiso   1.00
H659   H     0.54853   0.89780   0.44542   0.00000  Uiso   1.00
H660   H     0.53748   0.91734   0.40421   0.00000  Uiso   1.00
H661   H     0.58738   0.89688   0.39775   0.00000  Uiso   1.00
H662   H     0.54646   0.79571   0.42562   0.00000  Uiso   1.00
H663   H     0.38291   0.90054   0.05575   0.00000  Uiso   1.00
H664   H     0.37921   0.86602   0.09309   0.00000  Uiso   1.00
H665   H     0.66531   0.87446   0.08098   0.00000  Uiso   1.00
H666   H     0.61400   0.72798   0.02540   0.00000  Uiso   1.00
H667   H     0.64240   0.77575   0.02644   0.00000  Uiso   1.00
H668   H     0.34399   0.87552   0.18892   0.00000  Uiso   1.00
N669   N     0.61674   0.75817   0.01772   0.00000  Uiso   1.00
N670   N     0.35879   0.86010   0.20420   0.00000  Uiso   1.00
N671   N     0.64497   0.80715   0.29744   0.00000  Uiso   1.00
N672   N     0.54933   0.67405   0.20867   0.00000  Uiso   1.00
N673   N     0.44782   0.99640   0.29262   0.00000  Uiso   1.00
N674   N     0.47610   0.84728   0.10289   0.00000  Uiso   1.00
N675   N     0.59962   0.76618   0.45235   0.00000  Uiso   1.00
N676   N     0.39016   0.86883   0.40030   0.00000  Uiso   1.00
O677   O     0.50000   0.83333   0.25000   0.00000  Uiso   1.00
O678   O     0.49027   0.79060   0.16625   0.00000  Uiso   1.00
O679   O     0.46020   0.87313   0.33749   0.00000  Uiso   1.00
O680   O     0.54421   0.84159   0.15877   0.00000  Uiso   1.00
O681   O     0.50532   0.82802   0.33749   0.00000  Uiso   1.00
O682   O     0.37145   0.83676   0.03915   0.00000  Uiso   1.00
O683   O     0.59173   0.76823   0.09985   0.00000  Uiso   1.00
O684   O     0.53509   0.85274   0.40151   0.00000  Uiso   1.00
O685   O     0.51182   0.74768   0.27821   0.00000  Uiso   1.00
O686   O     0.47914   0.92803   0.26767   0.00000  Uiso   1.00
O687   O     0.40785   0.79917   0.23607   0.00000  Uiso   1.00
O688   O     0.60119   0.85845   0.21806   0.00000  Uiso   1.00
O689   O     0.40323   0.85627   0.27820   0.00000  Uiso   1.00
O690   O     0.58773   0.81944   0.26768   0.00000  Uiso   1.00
O691   O     0.47133   0.73570   0.23607   0.00000  Uiso   1.00
O692   O     0.53771   0.92193   0.21806   0.00000  Uiso   1.00
Zn693  Zn    0.52577   0.80756   0.28278   0.00000  Uiso   1.00
Zn694  Zn    0.46792   0.79044   0.22258   0.00000  Uiso   1.00
Zn695  Zn    0.54500   0.86331   0.21188   0.00000  Uiso   1.00
Zn696  Zn    0.46131   0.87202   0.28277   0.00000  Uiso   1.00
C697   C     0.71943   0.82673   0.25884   0.00000  Uiso   1.00
C698   C     0.87090   0.80141   0.45742   0.00000  Uiso   1.00
C699   C     0.89604   0.78574   0.47637   0.00000  Uiso   1.00
C700   C     0.94779   0.84010   0.24114   0.00000  Uiso   1.00
C701   C     0.88513   0.78978   0.01818   0.00000  Uiso   1.00
C702   C     0.84685   0.80801   0.04020   0.00000  Uiso   1.00
C703   C     0.91117   0.77630   0.03869   0.00000  Uiso   1.00
C704   C     0.89927   0.78108   0.08020   0.00000  Uiso   1.00
C705   C     0.83921   0.81798   0.08158   0.00000  Uiso   1.00
C706   C     0.99405   0.84128   0.23679   0.00000  Uiso   1.00
C707   C     0.67411   0.82464   0.26321   0.00000  Uiso   1.00
C708   C     0.75293   0.86036   0.42031   0.00000  Uiso   1.00
C709   C     0.84711   0.98894   0.23827   0.00000  Uiso   1.00
C710   C     0.81771   0.67941   0.26271   0.00000  Uiso   1.00
C711   C     0.82268   0.72309   0.25888   0.00000  Uiso   1.00
C712   C     0.84341   0.94435   0.24139   0.00000  Uiso   1.00
C713   C     0.85501   0.81200   0.14404   0.00000  Uiso   1.00
C714   C     0.81151   0.85390   0.35626   0.00000  Uiso   1.00
C715   C     0.79636   0.85608   0.39976   0.00000  Uiso   1.00
C716   C     0.86445   0.80318   0.10123   0.00000  Uiso   1.00
C717   C     0.73791   0.85503   0.46050   0.00000  Uiso   1.00
C718   C     0.70014   0.87104   0.06841   0.00000  Uiso   1.00
C719   C     0.82462   0.84821   0.42022   0.00000  Uiso   1.00
C720   C     0.90721   0.72865   0.11222   0.00000  Uiso   1.00
C721   C     0.88569   0.89307   0.41304   0.00000  Uiso   1.00
C722   C     0.80814   0.83677   0.45940   0.00000  Uiso   1.00
C723   C     0.76468   0.84258   0.48011   0.00000  Uiso   1.00
C724   C     0.83344   0.81994   0.47861   0.00000  Uiso   1.00
C725   C     0.81862   0.81788   0.01988   0.00000  Uiso   1.00
C726   C     0.77487   0.82224   0.03910   0.00000  Uiso   1.00
C727   C     0.74815   0.83501   0.01993   0.00000  Uiso   1.00
H728   H     0.70452   0.85901   0.47584   0.00000  Uiso   1.00
H729   H     0.70651   0.83610   0.18425   0.00000  Uiso   1.00
H730   H     0.98473   0.82414   0.32262   0.00000  Uiso   1.00
H731   H     0.98486   0.77663   0.29670   0.00000  Uiso   1.00
H732   H     0.91126   0.66836   0.21344   0.00000  Uiso   1.00
H733   H     0.88144   0.99237   0.18102   0.00000  Uiso   1.00
H734   H     0.75325   0.66975   0.28718   0.00000  Uiso   1.00
H735   H     0.78257   0.67883   0.31995   0.00000  Uiso   1.00
H736   H     0.82637   0.87309   0.11466   0.00000  Uiso   1.00
H737   H     0.78657   0.83333   0.12619   0.00000  Uiso   1.00
H738   H     0.90338   0.70556   0.08701   0.00000  Uiso   1.00
H739   H     0.75990   0.81293   0.06843   0.00000  Uiso   1.00
H740   H     0.87574   0.73022   0.13520   0.00000  Uiso   1.00
H741   H     0.92944   0.71723   0.12558   0.00000  Uiso   1.00
H742   H     0.95329   0.78769   0.43407   0.00000  Uiso   1.00
H743   H     0.92253   0.74118   0.43435   0.00000  Uiso   1.00
H744   H     0.71043   0.89625   0.41431   0.00000  Uiso   1.00
H745   H     0.69832   0.84461   0.40357   0.00000  Uiso   1.00
H746   H     0.88186   0.89780   0.44542   0.00000  Uiso   1.00
H747   H     0.87082   0.91734   0.40421   0.00000  Uiso   1.00
H748   H     0.92072   0.89688   0.39775   0.00000  Uiso   1.00
H749   H     0.87979   0.79571   0.42562   0.00000  Uiso   1.00
H750   H     0.71625   0.90054   0.05575   0.00000  Uiso   1.00
H751   H     0.71254   0.86602   0.09309   0.00000  Uiso   1.00
H752   H     0.99864   0.87446   0.08098   0.00000  Uiso   1.00
H753   H     0.94734   0.72798   0.02540   0.00000  Uiso   1.00
H754   H     0.97573   0.77575   0.02644   0.00000  Uiso   1.00
H755   H     0.67733   0.87552   0.18892   0.00000  Uiso   1.00
N756   N     0.95007   0.75817   0.01772   0.00000  Uiso   1.00
N757   N     0.69212   0.86010   0.20420   0.00000  Uiso   1.00
N758   N     0.97830   0.80715   0.29744   0.00000  Uiso   1.00
N759   N     0.88266   0.67405   0.20867   0.00000  Uiso   1.00
N760   N     0.78115   0.99640   0.29262   0.00000  Uiso   1.00
N761   N     0.80943   0.84728   0.10289   0.00000  Uiso   1.00
N762   N     0.93295   0.76618   0.45235   0.00000  Uiso   1.00
N763   N     0.72349   0.86883   0.40030   0.00000  Uiso   1.00
O764   O     0.83333   0.83333   0.25000   0.00000  Uiso   1.00
O765   O     0.82360   0.79060   0.16625   0.00000  Uiso   1.00
O766   O     0.79354   0.87313   0.33749   0.00000  Uiso   1.00
O767   O     0.87755   0.84159   0.15877   0.00000  Uiso   1.00
O768   O     0.83865   0.82802   0.33749   0.00000  Uiso   1.00
O769   O     0.70478   0.83676   0.03915   0.00000  Uiso   1.00
O770   O     0.92507   0.76823   0.09985   0.00000  Uiso   1.00
O771   O     0.86843   0.85274   0.40151   0.00000  Uiso   1.00
O772   O     0.84515   0.74768   0.27821   0.00000  Uiso   1.00
O773   O     0.81247   0.92803   0.26767   0.00000  Uiso   1.00
O774   O     0.74119   0.79917   0.23607   0.00000  Uiso   1.00
O775   O     0.93452   0.85845   0.21806   0.00000  Uiso   1.00
O776   O     0.73656   0.85627   0.27820   0.00000  Uiso   1.00
O777   O     0.92106   0.81944   0.26768   0.00000  Uiso   1.00
O778   O     0.80467   0.73570   0.23607   0.00000  Uiso   1.00
O779   O     0.87104   0.92193   0.21806   0.00000  Uiso   1.00
Zn780  Zn    0.85910   0.80756   0.28278   0.00000  Uiso   1.00
Zn781  Zn    0.80125   0.79044   0.22258   0.00000  Uiso   1.00
Zn782  Zn    0.87833   0.86331   0.21188   0.00000  Uiso   1.00
Zn783  Zn    0.79465   0.87202   0.28277   0.00000  Uiso   1.00
C784   C     0.05277   0.16006   0.75884   0.00000  Uiso   1.00
C785   C     0.20424   0.13475   0.95742   0.00000  Uiso   1.00
C786   C     0.22938   0.11908   0.97637   0.00000  Uiso   1.00
C787   C     0.28112   0.17343   0.74114   0.00000  Uiso   1.00
C788   C     0.21847   0.12312   0.51818   0.00000  Uiso   1.00
C789   C     0.18018   0.14135   0.54020   0.00000  Uiso   1.00
C790   C     0.24450   0.10964   0.53869   0.00000  Uiso   1.00
C791   C     0.23260   0.11441   0.58020   0.00000  Uiso   1.00
C792   C     0.17254   0.15131   0.58158   0.00000  Uiso   1.00
C793   C     0.32738   0.17462   0.73679   0.00000  Uiso   1.00
C794   C     0.00744   0.15797   0.76321   0.00000  Uiso   1.00
C795   C     0.08626   0.19369   0.92031   0.00000  Uiso   1.00
C796   C     0.18045   0.32227   0.73827   0.00000  Uiso   1.00
C797   C     0.15104   0.01274   0.76271   0.00000  Uiso   1.00
C798   C     0.15602   0.05642   0.75888   0.00000  Uiso   1.00
C799   C     0.17675   0.27768   0.74139   0.00000  Uiso   1.00
C800   C     0.18835   0.14533   0.64404   0.00000  Uiso   1.00
C801   C     0.14485   0.18724   0.85626   0.00000  Uiso   1.00
C802   C     0.12970   0.18941   0.89976   0.00000  Uiso   1.00
C803   C     0.19778   0.13651   0.60123   0.00000  Uiso   1.00
C804   C     0.07125   0.18837   0.96050   0.00000  Uiso   1.00
C805   C     0.03347   0.20437   0.56841   0.00000  Uiso   1.00
C806   C     0.15796   0.18155   0.92022   0.00000  Uiso   1.00
C807   C     0.24054   0.06198   0.61222   0.00000  Uiso   1.00
C808   C     0.21902   0.22640   0.91304   0.00000  Uiso   1.00
C809   C     0.14148   0.17010   0.95940   0.00000  Uiso   1.00
C810   C     0.09801   0.17592   0.98011   0.00000  Uiso   1.00
C811   C     0.16677   0.15328   0.97861   0.00000  Uiso   1.00
C812   C     0.15195   0.15122   0.51988   0.00000  Uiso   1.00
C813   C     0.10821   0.15557   0.53910   0.00000  Uiso   1.00
C814   C     0.08148   0.16834   0.51993   0.00000  Uiso   1.00
H815   H     0.03786   0.19234   0.97584   0.00000  Uiso   1.00
H816   H     0.03984   0.16943   0.68425   0.00000  Uiso   1.00
H817   H     0.31806   0.15747   0.82262   0.00000  Uiso   1.00
H818   H     0.31819   0.10996   0.79670   0.00000  Uiso   1.00
H819   H     0.24459   0.00169   0.71344   0.00000  Uiso   1.00
H820   H     0.21478   0.32571   0.68102   0.00000  Uiso   1.00
H821   H     0.08659   0.00309   0.78718   0.00000  Uiso   1.00
H822   H     0.11590   0.01217   0.81995   0.00000  Uiso   1.00
H823   H     0.15970   0.20643   0.61466   0.00000  Uiso   1.00
H824   H     0.11990   0.16666   0.62619   0.00000  Uiso   1.00
H825   H     0.23671   0.03889   0.58701   0.00000  Uiso   1.00
H826   H     0.09324   0.14626   0.56843   0.00000  Uiso   1.00
H827   H     0.20907   0.06355   0.63520   0.00000  Uiso   1.00
H828   H     0.26277   0.05056   0.62558   0.00000  Uiso   1.00
H829   H     0.28662   0.12102   0.93407   0.00000  Uiso   1.00
H830   H     0.25586   0.07452   0.93435   0.00000  Uiso   1.00
H831   H     0.04376   0.22958   0.91431   0.00000  Uiso   1.00
H832   H     0.03166   0.17794   0.90357   0.00000  Uiso   1.00
H833   H     0.21520   0.23113   0.94542   0.00000  Uiso   1.00
H834   H     0.20415   0.25068   0.90421   0.00000  Uiso   1.00
H835   H     0.25405   0.23022   0.89775   0.00000  Uiso   1.00
H836   H     0.21312   0.12905   0.92562   0.00000  Uiso   1.00
H837   H     0.04958   0.23387   0.55575   0.00000  Uiso   1.00
H838   H     0.04587   0.19936   0.59309   0.00000  Uiso   1.00
H839   H     0.33197   0.20780   0.58098   0.00000  Uiso   1.00
H840   H     0.28067   0.06131   0.52540   0.00000  Uiso   1.00
H841   H     0.30907   0.10908   0.52644   0.00000  Uiso   1.00
H842   H     0.01066   0.20886   0.68892   0.00000  Uiso   1.00
N843   N     0.28340   0.09151   0.51772   0.00000  Uiso   1.00
N844   N     0.02545   0.19343   0.70420   0.00000  Uiso   1.00
N845   N     0.31163   0.14049   0.79744   0.00000  Uiso   1.00
N846   N     0.21599   0.00738   0.70867   0.00000  Uiso   1.00
N847   N     0.11448   0.32974   0.79262   0.00000  Uiso   1.00
N848   N     0.14277   0.18061   0.60289   0.00000  Uiso   1.00
N849   N     0.26628   0.09951   0.95235   0.00000  Uiso   1.00
N850   N     0.05683   0.20217   0.90030   0.00000  Uiso   1.00
O851   O     0.16667   0.16667   0.75000   0.00000  Uiso   1.00
O852   O     0.15693   0.12393   0.66625   0.00000  Uiso   1.00
O853   O     0.12687   0.20646   0.83749   0.00000  Uiso   1.00
O854   O     0.21088   0.17493   0.65877   0.00000  Uiso   1.00
O855   O     0.17198   0.16135   0.83749   0.00000  Uiso   1.00
O856   O     0.03811   0.17009   0.53915   0.00000  Uiso   1.00
O857   O     0.25840   0.10156   0.59985   0.00000  Uiso   1.00
O858   O     0.20176   0.18608   0.90151   0.00000  Uiso   1.00
O859   O     0.17849   0.08101   0.77821   0.00000  Uiso   1.00
O860   O     0.14581   0.26136   0.76767   0.00000  Uiso   1.00
O861   O     0.07452   0.13251   0.73607   0.00000  Uiso   1.00
O862   O     0.26785   0.19179   0.71806   0.00000  Uiso   1.00
O863   O     0.06990   0.18960   0.77820   0.00000  Uiso   1.00
O864   O     0.25440   0.15277   0.76768   0.00000  Uiso   1.00
O865   O     0.13800   0.06903   0.73607   0.00000  Uiso   1.00
O866   O     0.20437   0.25527   0.71806   0.00000  Uiso   1.00
Zn867  Zn    0.19244   0.14090   0.78278   0.00000  Uiso   1.00
Zn868  Zn    0.13459   0.12378   0.72258   0.00000  Uiso   1.00
Zn869  Zn    0.21166   0.19664   0.71188   0.00000  Uiso   1.00
Zn870  Zn    0.12798   0.20535   0.78277   0.00000  Uiso   1.00
C871   C     0.38610   0.16006   0.75884   0.00000  Uiso   1.00
C872   C     0.53757   0.13475   0.95742   0.00000  Uiso   1.00
C873   C     0.56271   0.11908   0.97637   0.00000  Uiso   1.00
C874   C     0.61446   0.17343   0.74114   0.00000  Uiso   1.00
C875   C     0.55180   0.12312   0.51818   0.00000  Uiso   1.00
C876   C     0.51351   0.14135   0.54020   0.00000  Uiso   1.00
C877   C     0.57784   0.10964   0.53869   0.00000  Uiso   1.00
C878   C     0.56594   0.11441   0.58020   0.00000  Uiso   1.00
C879   C     0.50587   0.15131   0.58158   0.00000  Uiso   1.00
C880   C     0.66071   0.17462   0.73679   0.00000  Uiso   1.00
C881   C     0.34078   0.15797   0.76321   0.00000  Uiso   1.00
C882   C     0.41960   0.19369   0.92031   0.00000  Uiso   1.00
C883   C     0.51378   0.32227   0.73827   0.00000  Uiso   1.00
C884   C     0.48438   0.01274   0.76271   0.00000  Uiso   1.00
C885   C     0.48935   0.05642   0.75888   0.00000  Uiso   1.00
C886   C     0.51008   0.27768   0.74139   0.00000  Uiso   1.00
C887   C     0.52168   0.14533   0.64404   0.00000  Uiso   1.00
C888   C     0.47818   0.18724   0.85626   0.00000  Uiso   1.00
C889   C     0.46303   0.18941   0.89976   0.00000  Uiso   1.00
C890   C     0.53112   0.13651   0.60123   0.00000  Uiso   1.00
C891   C     0.40458   0.18837   0.96050   0.00000  Uiso   1.00
C892   C     0.36681   0.20437   0.56841   0.00000  Uiso   1.00
C893   C     0.49129   0.18155   0.92022   0.00000  Uiso   1.00
C894   C     0.57387   0.06198   0.61222   0.00000  Uiso   1.00
C895   C     0.55236   0.22640   0.91304   0.00000  Uiso   1.00
C896   C     0.47481   0.17010   0.95940   0.00000  Uiso   1.00
C897   C     0.43135   0.17592   0.98011   0.00000  Uiso   1.00
C898   C     0.50011   0.15328   0.97861   0.00000  Uiso   1.00
C899   C     0.48529   0.15122   0.51988   0.00000  Uiso   1.00
C900   C     0.44154   0.15557   0.53910   0.00000  Uiso   1.00
C901   C     0.41482   0.16834   0.51993   0.00000  Uiso   1.00
H902   H     0.37119   0.19234   0.97584   0.00000  Uiso   1.00
H903   H     0.37318   0.16943   0.68425   0.00000  Uiso   1.00
H904   H     0.65140   0.15747   0.82262   0.00000  Uiso   1.00
H905   H     0.65153   0.10996   0.79670   0.00000  Uiso   1.00
H906   H     0.57793   0.00169   0.71344   0.00000  Uiso   1.00
H907   H     0.54811   0.32571   0.68102   0.00000  Uiso   1.00
H908   H     0.41992   0.00309   0.78718   0.00000  Uiso   1.00
H909   H     0.44924   0.01217   0.81995   0.00000  Uiso   1.00
H910   H     0.49303   0.20643   0.61466   0.00000  Uiso   1.00
H911   H     0.45323   0.16666   0.62619   0.00000  Uiso   1.00
H912   H     0.57005   0.03889   0.58701   0.00000  Uiso   1.00
H913   H     0.42657   0.14626   0.56843   0.00000  Uiso   1.00
H914   H     0.54241   0.06355   0.63520   0.00000  Uiso   1.00
H915   H     0.59610   0.05056   0.62558   0.00000  Uiso   1.00
H916   H     0.61996   0.12102   0.93407   0.00000  Uiso   1.00
H917   H     0.58920   0.07452   0.93435   0.00000  Uiso   1.00
H918   H     0.37709   0.22958   0.91431   0.00000  Uiso   1.00
H919   H     0.36499   0.17794   0.90357   0.00000  Uiso   1.00
H920   H     0.54853   0.23113   0.94542   0.00000  Uiso   1.00
H921   H     0.53748   0.25068   0.90421   0.00000  Uiso   1.00
H922   H     0.58738   0.23022   0.89775   0.00000  Uiso   1.00
H923   H     0.54646   0.12905   0.92562   0.00000  Uiso   1.00
H924   H     0.38291   0.23387   0.55575   0.00000  Uiso   1.00
H925   H     0.37921   0.19936   0.59309   0.00000  Uiso   1.00
H926   H     0.66531   0.20780   0.58098   0.00000  Uiso   1.00
H927   H     0.61400   0.06131   0.52540   0.00000  Uiso   1.00
H928   H     0.64240   0.10908   0.52644   0.00000  Uiso   1.00
H929   H     0.34399   0.20886   0.68892   0.00000  Uiso   1.00
N930   N     0.61674   0.09151   0.51772   0.00000  Uiso   1.00
N931   N     0.35879   0.19343   0.70420   0.00000  Uiso   1.00
N932   N     0.64497   0.14049   0.79744   0.00000  Uiso   1.00
N933   N     0.54933   0.00738   0.70867   0.00000  Uiso   1.00
N934   N     0.44782   0.32974   0.79262   0.00000  Uiso   1.00
N935   N     0.47610   0.18061   0.60289   0.00000  Uiso   1.00
N936   N     0.59962   0.09951   0.95235   0.00000  Uiso   1.00
N937   N     0.39016   0.20217   0.90030   0.00000  Uiso   1.00
O938   O     0.50000   0.16667   0.75000   0.00000  Uiso   1.00
O939   O     0.49027   0.12393   0.66625   0.00000  Uiso   1.00
O940   O     0.46020   0.20646   0.83749   0.00000  Uiso   1.00
O941   O     0.54421   0.17493   0.65877   0.00000  Uiso   1.00
O942   O     0.50532   0.16135   0.83749   0.00000  Uiso   1.00
O943   O     0.37145   0.17009   0.53915   0.00000  Uiso   1.00
O944   O     0.59173   0.10156   0.59985   0.00000  Uiso   1.00
O945   O     0.53509   0.18608   0.90151   0.00000  Uiso   1.00
O946   O     0.51182   0.08101   0.77821   0.00000  Uiso   1.00
O947   O     0.47914   0.26136   0.76767   0.00000  Uiso   1.00
O948   O     0.40785   0.13251   0.73607   0.00000  Uiso   1.00
O949   O     0.60119   0.19179   0.71806   0.00000  Uiso   1.00
O950   O     0.40323   0.18960   0.77820   0.00000  Uiso   1.00
O951   O     0.58773   0.15277   0.76768   0.00000  Uiso   1.00
O952   O     0.47133   0.06903   0.73607   0.00000  Uiso   1.00
O953   O     0.53771   0.25527   0.71806   0.00000  Uiso   1.00
Zn954  Zn    0.52577   0.14090   0.78278   0.00000  Uiso   1.00
Zn955  Zn    0.46792   0.12378   0.72258   0.00000  Uiso   1.00
Zn956  Zn    0.54500   0.19664   0.71188   0.00000  Uiso   1.00
Zn957  Zn    0.46131   0.20535   0.78277   0.00000  Uiso   1.00
C958   C     0.71943   0.16006   0.75884   0.00000  Uiso   1.00
C959   C     0.87090   0.13475   0.95742   0.00000  Uiso   1.00
C960   C     0.89604   0.11908   0.97637   0.00000  Uiso   1.00
C961   C     0.94779   0.17343   0.74114   0.00000  Uiso   1.00
C962   C     0.88513   0.12312   0.51818   0.00000  Uiso   1.00
C963   C     0.84685   0.14135   0.54020   0.00000  Uiso   1.00
C964   C     0.91117   0.10964   0.53869   0.00000  Uiso   1.00
C965   C     0.89927   0.11441   0.58020   0.00000  Uiso   1.00
C966   C     0.83921   0.15131   0.58158   0.00000  Uiso   1.00
C967   C     0.99405   0.17462   0.73679   0.00000  Uiso   1.00
C968   C     0.67411   0.15797   0.76321   0.00000  Uiso   1.00
C969   C     0.75293   0.19369   0.92031   0.00000  Uiso   1.00
C970   C     0.84711   0.32227   0.73827   0.00000  Uiso   1.00
C971   C     0.81771   0.01274   0.76271   0.00000  Uiso   1.00
C972   C     0.82268   0.05642   0.75888   0.00000  Uiso   1.00
C973   C     0.84341   0.27768   0.74139   0.00000  Uiso   1.00
C974   C     0.85501   0.14533   0.64404   0.00000  Uiso   1.00
C975   C     0.81151   0.18724   0.85626   0.00000  Uiso   1.00
C976   C     0.79636   0.18941   0.89976   0.00000  Uiso   1.00
C977   C     0.86445   0.13651   0.60123   0.00000  Uiso   1.00
C978   C     0.73791   0.18837   0.96050   0.00000  Uiso   1.00
C979   C     0.70014   0.20437   0.56841   0.00000  Uiso   1.00
C980   C     0.82462   0.18155   0.92022   0.00000  Uiso   1.00
C981   C     0.90721   0.06198   0.61222   0.00000  Uiso   1.00
C982   C     0.88569   0.22640   0.91304   0.00000  Uiso   1.00
C983   C     0.80814   0.17010   0.95940   0.00000  Uiso   1.00
C984   C     0.76468   0.17592   0.98011   0.00000  Uiso   1.00
C985   C     0.83344   0.15328   0.97861   0.00000  Uiso   1.00
C986   C     0.81862   0.15122   0.51988   0.00000  Uiso   1.00
C987   C     0.77487   0.15557   0.53910   0.00000  Uiso   1.00
C988   C     0.74815   0.16834   0.51993   0.00000  Uiso   1.00
H989   H     0.70452   0.19234   0.97584   0.00000  Uiso   1.00
H990   H     0.70651   0.16943   0.68425   0.00000  Uiso   1.00
H991   H     0.98473   0.15747   0.82262   0.00000  Uiso   1.00
H992   H     0.98486   0.10996   0.79670   0.00000  Uiso   1.00
H993   H     0.91126   0.00169   0.71344   0.00000  Uiso   1.00
H994   H     0.88144   0.32571   0.68102   0.00000  Uiso   1.00
H995   H     0.75325   0.00309   0.78718   0.00000  Uiso   1.00
H996   H     0.78257   0.01217   0.81995   0.00000  Uiso   1.00
H997   H     0.82637   0.20643   0.61466   0.00000  Uiso   1.00
H998   H     0.78657   0.16666   0.62619   0.00000  Uiso   1.00
H999   H     0.90338   0.03889   0.58701   0.00000  Uiso   1.00
H1000  H     0.75990   0.14626   0.56843   0.00000  Uiso   1.00
H1001  H     0.87574   0.06355   0.63520   0.00000  Uiso   1.00
H1002  H     0.92944   0.05056   0.62558   0.00000  Uiso   1.00
H1003  H     0.95329   0.12102   0.93407   0.00000  Uiso   1.00
H1004  H     0.92253   0.07452   0.93435   0.00000  Uiso   1.00
H1005  H     0.71043   0.22958   0.91431   0.00000  Uiso   1.00
H1006  H     0.69832   0.17794   0.90357   0.00000  Uiso   1.00
H1007  H     0.88186   0.23113   0.94542   0.00000  Uiso   1.00
H1008  H     0.87082   0.25068   0.90421   0.00000  Uiso   1.00
H1009  H     0.92072   0.23022   0.89775   0.00000  Uiso   1.00
H1010  H     0.87979   0.12905   0.92562   0.00000  Uiso   1.00
H1011  H     0.71625   0.23387   0.55575   0.00000  Uiso   1.00
H1012  H     0.71254   0.19936   0.59309   0.00000  Uiso   1.00
H1013  H     0.99864   0.20780   0.58098   0.00000  Uiso   1.00
H1014  H     0.94734   0.06131   0.52540   0.00000  Uiso   1.00
H1015  H     0.97573   0.10908   0.52644   0.00000  Uiso   1.00
H1016  H     0.67733   0.20886   0.68892   0.00000  Uiso   1.00
N1017  N     0.95007   0.09151   0.51772   0.00000  Uiso   1.00
N1018  N     0.69212   0.19343   0.70420   0.00000  Uiso   1.00
N1019  N     0.97830   0.14049   0.79744   0.00000  Uiso   1.00
N1020  N     0.88266   0.00738   0.70867   0.00000  Uiso   1.00
N1021  N     0.78115   0.32974   0.79262   0.00000  Uiso   1.00
N1022  N     0.80943   0.18061   0.60289   0.00000  Uiso   1.00
N1023  N     0.93295   0.09951   0.95235   0.00000  Uiso   1.00
N1024  N     0.72349   0.20217   0.90030   0.00000  Uiso   1.00
O1025  O     0.83333   0.16667   0.75000   0.00000  Uiso   1.00
O1026  O     0.82360   0.12393   0.66625   0.00000  Uiso   1.00
O1027  O     0.79354   0.20646   0.83749   0.00000  Uiso   1.00
O1028  O     0.87755   0.17493   0.65877   0.00000  Uiso   1.00
O1029  O     0.83865   0.16135   0.83749   0.00000  Uiso   1.00
O1030  O     0.70478   0.17009   0.53915   0.00000  Uiso   1.00
O1031  O     0.92507   0.10156   0.59985   0.00000  Uiso   1.00
O1032  O     0.86843   0.18608   0.90151   0.00000  Uiso   1.00
O1033  O     0.84515   0.08101   0.77821   0.00000  Uiso   1.00
O1034  O     0.81247   0.26136   0.76767   0.00000  Uiso   1.00
O1035  O     0.74119   0.13251   0.73607   0.00000  Uiso   1.00
O1036  O     0.93452   0.19179   0.71806   0.00000  Uiso   1.00
O1037  O     0.73656   0.18960   0.77820   0.00000  Uiso   1.00
O1038  O     0.92106   0.15277   0.76768   0.00000  Uiso   1.00
O1039  O     0.80467   0.06903   0.73607   0.00000  Uiso   1.00
O1040  O     0.87104   0.25527   0.71806   0.00000  Uiso   1.00
Zn1041 Zn    0.85910   0.14090   0.78278   0.00000  Uiso   1.00
Zn1042 Zn    0.80125   0.12378   0.72258   0.00000  Uiso   1.00
Zn1043 Zn    0.87833   0.19664   0.71188   0.00000  Uiso   1.00
Zn1044 Zn    0.79465   0.20535   0.78277   0.00000  Uiso   1.00
C1045  C     0.05277   0.49339   0.75884   0.00000  Uiso   1.00
C1046  C     0.20424   0.46808   0.95742   0.00000  Uiso   1.00
C1047  C     0.22938   0.45241   0.97637   0.00000  Uiso   1.00
C1048  C     0.28112   0.50676   0.74114   0.00000  Uiso   1.00
C1049  C     0.21847   0.45645   0.51818   0.00000  Uiso   1.00
C1050  C     0.18018   0.47468   0.54020   0.00000  Uiso   1.00
C1051  C     0.24450   0.44297   0.53869   0.00000  Uiso   1.00
C1052  C     0.23260   0.44774   0.58020   0.00000  Uiso   1.00
C1053  C     0.17254   0.48465   0.58158   0.00000  Uiso   1.00
C1054  C     0.32738   0.50795   0.73679   0.00000  Uiso   1.00
C1055  C     0.00744   0.49130   0.76321   0.00000  Uiso   1.00
C1056  C     0.08626   0.52703   0.92031   0.00000  Uiso   1.00
C1057  C     0.18045   0.65561   0.73827   0.00000  Uiso   1.00
C1058  C     0.15104   0.34608   0.76271   0.00000  Uiso   1.00
C1059  C     0.15602   0.38976   0.75888   0.00000  Uiso   1.00
C1060  C     0.17675   0.61102   0.74139   0.00000  Uiso   1.00
C1061  C     0.18835   0.47866   0.64404   0.00000  Uiso   1.00
C1062  C     0.14485   0.52057   0.85626   0.00000  Uiso   1.00
C1063  C     0.12970   0.52274   0.89976   0.00000  Uiso   1.00
C1064  C     0.19778   0.46985   0.60123   0.00000  Uiso   1.00
C1065  C     0.07125   0.52170   0.96050   0.00000  Uiso   1.00
C1066  C     0.03347   0.53770   0.56841   0.00000  Uiso   1.00
C1067  C     0.15796   0.51488   0.92022   0.00000  Uiso   1.00
C1068  C     0.24054   0.39532   0.61222   0.00000  Uiso   1.00
C1069  C     0.21902   0.55973   0.91304   0.00000  Uiso   1.00
C1070  C     0.14148   0.50344   0.95940   0.00000  Uiso   1.00
C1071  C     0.09801   0.50925   0.98011   0.00000  Uiso   1.00
C1072  C     0.16677   0.48661   0.97861   0.00000  Uiso   1.00
C1073  C     0.15195   0.48455   0.51988   0.00000  Uiso   1.00
C1074  C     0.10821   0.48890   0.53910   0.00000  Uiso   1.00
C1075  C     0.08148   0.50167   0.51993   0.00000  Uiso   1.00
H1076  H     0.03786   0.52568   0.97584   0.00000  Uiso   1.00
H1077  H     0.03984   0.50276   0.68425   0.00000  Uiso   1.00
H1078  H     0.31806   0.49080   0.82262   0.00000  Uiso   1.00
H1079  H     0.31819   0.44329   0.79670   0.00000  Uiso   1.00
H1080  H     0.24459   0.33503   0.71344   0.00000  Uiso   1.00
H1081  H     0.21478   0.65904   0.68102   0.00000  Uiso   1.00
H1082  H     0.08659   0.33642   0.78718   0.00000  Uiso   1.00
H1083  H     0.11590   0.34550   0.81995   0.00000  Uiso   1.00
H1084  H     0.15970   0.53976   0.61466   0.00000  Uiso   1.00
H1085  H     0.11990   0.49999   0.62619   0.00000  Uiso   1.00
H1086  H     0.23671   0.37222   0.58701   0.00000  Uiso   1.00
H1087  H     0.09324   0.47960   0.56843   0.00000  Uiso   1.00
H1088  H     0.20907   0.39689   0.63520   0.00000  Uiso   1.00
H1089  H     0.26277   0.38389   0.62558   0.00000  Uiso   1.00
H1090  H     0.28662   0.45436   0.93407   0.00000  Uiso   1.00
H1091  H     0.25586   0.40785   0.93435   0.00000  Uiso   1.00
H1092  H     0.04376   0.56291   0.91431   0.00000  Uiso   1.00
H1093  H     0.03166   0.51127   0.90357   0.00000  Uiso   1.00
H1094  H     0.21520   0.56446   0.94542   0.00000  Uiso   1.00
H1095  H     0.20415   0.58401   0.90421   0.00000  Uiso   1.00
H1096  H     0.25405   0.56355   0.89775   0.00000  Uiso   1.00
H1097  H     0.21312   0.46238   0.92562   0.00000  Uiso   1.00
H1098  H     0.04958   0.56720   0.55575   0.00000  Uiso   1.00
H1099  H     0.04587   0.53269   0.59309   0.00000  Uiso   1.00
H1100  H     0.33197   0.54113   0.58098   0.00000  Uiso   1.00
H1101  H     0.28067   0.39464   0.52540   0.00000  Uiso   1.00
H1102  H     0.30907   0.44242   0.52644   0.00000  Uiso   1.00
H1103  H     0.01066   0.54219   0.68892   0.00000  Uiso   1.00
N1104  N     0.28340   0.42484   0.51772   0.00000  Uiso   1.00
N1105  N     0.02545   0.52676   0.70420   0.00000  Uiso   1.00
N1106  N     0.31163   0.47382   0.79744   0.00000  Uiso   1.00
N1107  N     0.21599   0.34071   0.70867   0.00000  Uiso   1.00
N1108  N     0.11448   0.66307   0.79262   0.00000  Uiso   1.00
N1109  N     0.14277   0.51395   0.60289   0.00000  Uiso   1.00
N1110  N     0.26628   0.43284   0.95235   0.00000  Uiso   1.00
N1111  N     0.05683   0.53550   0.90030   0.00000  Uiso   1.00
O1112  O     0.16667   0.50000   0.75000   0.00000  Uiso   1.00
O1113  O     0.15693   0.45726   0.66625   0.00000  Uiso   1.00
O1114  O     0.12687   0.53979   0.83749   0.00000  Uiso   1.00
O1115  O     0.21088   0.50826   0.65877   0.00000  Uiso   1.00
O1116  O     0.17198   0.49468   0.83749   0.00000  Uiso   1.00
O1117  O     0.03811   0.50343   0.53915   0.00000  Uiso   1.00
O1118  O     0.25840   0.43490   0.59985   0.00000  Uiso   1.00
O1119  O     0.20176   0.51941   0.90151   0.00000  Uiso   1.00
O1120  O     0.17849   0.41434   0.77821   0.00000  Uiso   1.00
O1121  O     0.14581   0.59469   0.76767   0.00000  Uiso   1.00
O1122  O     0.07452   0.46584   0.73607   0.00000  Uiso   1.00
O1123  O     0.26785   0.52512   0.71806   0.00000  Uiso   1.00
O1124  O     0.06990   0.52293   0.77820   0.00000  Uiso   1.00
O1125  O     0.25440   0.48610   0.76768   0.00000  Uiso   1.00
O1126  O     0.13800   0.40236   0.73607   0.00000  Uiso   1.00
O1127  O     0.20437   0.58860   0.71806   0.00000  Uiso   1.00
Zn1128 Zn    0.19244   0.47423   0.78278   0.00000  Uiso   1.00
Zn1129 Zn    0.13459   0.45711   0.72258   0.00000  Uiso   1.00
Zn1130 Zn    0.21166   0.52997   0.71188   0.00000  Uiso   1.00
Zn1131 Zn    0.12798   0.53868   0.78277   0.00000  Uiso   1.00
C1132  C     0.38610   0.49339   0.75884   0.00000  Uiso   1.00
C1133  C     0.53757   0.46808   0.95742   0.00000  Uiso   1.00
C1134  C     0.56271   0.45241   0.97637   0.00000  Uiso   1.00
C1135  C     0.61446   0.50676   0.74114   0.00000  Uiso   1.00
C1136  C     0.55180   0.45645   0.51818   0.00000  Uiso   1.00
C1137  C     0.51351   0.47468   0.54020   0.00000  Uiso   1.00
C1138  C     0.57784   0.44297   0.53869   0.00000  Uiso   1.00
C1139  C     0.56594   0.44774   0.58020   0.00000  Uiso   1.00
C1140  C     0.50587   0.48465   0.58158   0.00000  Uiso   1.00
C1141  C     0.66071   0.50795   0.73679   0.00000  Uiso   1.00
C1142  C     0.34078   0.49130   0.76321   0.00000  Uiso   1.00
C1143  C     0.41960   0.52703   0.92031   0.00000  Uiso   1.00
C1144  C     0.51378   0.65561   0.73827   0.00000  Uiso   1.00
C1145  C     0.48438   0.34608   0.76271   0.00000  Uiso   1.00
C1146  C     0.48935   0.38976   0.75888   0.00000  Uiso   1.00
C1147  C     0.51008   0.61102   0.74139   0.00000  Uiso   1.00
C1148  C     0.52168   0.47866   0.64404   0.00000  Uiso   1.00
C1149  C     0.47818   0.52057   0.85626   0.00000  Uiso   1.00
C1150  C     0.46303   0.52274   0.89976   0.00000  Uiso   1.00
C1151  C     0.53112   0.46985   0.60123   0.00000  Uiso   1.00
C1152  C     0.40458   0.52170   0.96050   0.00000  Uiso   1.00
C1153  C     0.36681   0.53770   0.56841   0.00000  Uiso   1.00
C1154  C     0.49129   0.51488   0.92022   0.00000  Uiso   1.00
C1155  C     0.57387   0.39532   0.61222   0.00000  Uiso   1.00
C1156  C     0.55236   0.55973   0.91304   0.00000  Uiso   1.00
C1157  C     0.47481   0.50344   0.95940   0.00000  Uiso   1.00
C1158  C     0.43135   0.50925   0.98011   0.00000  Uiso   1.00
C1159  C     0.50011   0.48661   0.97861   0.00000  Uiso   1.00
C1160  C     0.48529   0.48455   0.51988   0.00000  Uiso   1.00
C1161  C     0.44154   0.48890   0.53910   0.00000  Uiso   1.00
C1162  C     0.41482   0.50167   0.51993   0.00000  Uiso   1.00
H1163  H     0.37119   0.52568   0.97584   0.00000  Uiso   1.00
H1164  H     0.37318   0.50276   0.68425   0.00000  Uiso   1.00
H1165  H     0.65140   0.49080   0.82262   0.00000  Uiso   1.00
H1166  H     0.65153   0.44329   0.79670   0.00000  Uiso   1.00
H1167  H     0.57793   0.33503   0.71344   0.00000  Uiso   1.00
H1168  H     0.54811   0.65904   0.68102   0.00000  Uiso   1.00
H1169  H     0.41992   0.33642   0.78718   0.00000  Uiso   1.00
H1170  H     0.44924   0.34550   0.81995   0.00000  Uiso   1.00
H1171  H     0.49303   0.53976   0.61466   0.00000  Uiso   1.00
H1172  H     0.45323   0.49999   0.62619   0.00000  Uiso   1.00
H1173  H     0.57005   0.37222   0.58701   0.00000  Uiso   1.00
H1174  H     0.42657   0.47960   0.56843   0.00000  Uiso   1.00
H1175  H     0.54241   0.39689   0.63520   0.00000  Uiso   1.00
H1176  H     0.59610   0.38389   0.62558   0.00000  Uiso   1.00
H1177  H     0.61996   0.45436   0.93407   0.00000  Uiso   1.00
H1178  H     0.58920   0.40785   0.93435   0.00000  Uiso   1.00
H1179  H     0.37709   0.56291   0.91431   0.00000  Uiso   1.00
H1180  H     0.36499   0.51127   0.90357   0.00000  Uiso   1.00
H1181  H     0.54853   0.56446   0.94542   0.00000  Uiso   1.00
H1182  H     0.53748   0.58401   0.90421   0.00000  Uiso   1.00
H1183  H     0.58738   0.56355   0.89775   0.00000  Uiso   1.00
H1184  H     0.54646   0.46238   0.92562   0.00000  Uiso   1.00
H1185  H     0.38291   0.56720   0.55575   0.00000  Uiso   1.00
H1186  H     0.37921   0.53269   0.59309   0.00000  Uiso   1.00
H1187  H     0.66531   0.54113   0.58098   0.00000  Uiso   1.00
H1188  H     0.61400   0.39464   0.52540   0.00000  Uiso   1.00
H1189  H     0.64240   0.44242   0.52644   0.00000  Uiso   1.00
H1190  H     0.34399   0.54219   0.68892   0.00000  Uiso   1.00
N1191  N     0.61674   0.42484   0.51772   0.00000  Uiso   1.00
N1192  N     0.35879   0.52676   0.70420   0.00000  Uiso   1.00
N1193  N     0.64497   0.47382   0.79744   0.00000  Uiso   1.00
N1194  N     0.54933   0.34071   0.70867   0.00000  Uiso   1.00
N1195  N     0.44782   0.66307   0.79262   0.00000  Uiso   1.00
N1196  N     0.47610   0.51395   0.60289   0.00000  Uiso   1.00
N1197  N     0.59962   0.43284   0.95235   0.00000  Uiso   1.00
N1198  N     0.39016   0.53550   0.90030   0.00000  Uiso   1.00
O1199  O     0.50000   0.50000   0.75000   0.00000  Uiso   1.00
O1200  O     0.49027   0.45726   0.66625   0.00000  Uiso   1.00
O1201  O     0.46020   0.53979   0.83749   0.00000  Uiso   1.00
O1202  O     0.54421   0.50826   0.65877   0.00000  Uiso   1.00
O1203  O     0.50532   0.49468   0.83749   0.00000  Uiso   1.00
O1204  O     0.37145   0.50343   0.53915   0.00000  Uiso   1.00
O1205  O     0.59173   0.43490   0.59985   0.00000  Uiso   1.00
O1206  O     0.53509   0.51941   0.90151   0.00000  Uiso   1.00
O1207  O     0.51182   0.41434   0.77821   0.00000  Uiso   1.00
O1208  O     0.47914   0.59469   0.76767   0.00000  Uiso   1.00
O1209  O     0.40785   0.46584   0.73607   0.00000  Uiso   1.00
O1210  O     0.60119   0.52512   0.71806   0.00000  Uiso   1.00
O1211  O     0.40323   0.52293   0.77820   0.00000  Uiso   1.00
O1212  O     0.58773   0.48610   0.76768   0.00000  Uiso   1.00
O1213  O     0.47133   0.40236   0.73607   0.00000  Uiso   1.00
O1214  O     0.53771   0.58860   0.71806   0.00000  Uiso   1.00
Zn1215 Zn    0.52577   0.47423   0.78278   0.00000  Uiso   1.00
Zn1216 Zn    0.46792   0.45711   0.72258   0.00000  Uiso   1.00
Zn1217 Zn    0.54500   0.52997   0.71188   0.00000  Uiso   1.00
Zn1218 Zn    0.46131   0.53868   0.78277   0.00000  Uiso   1.00
C1219  C     0.71943   0.49339   0.75884   0.00000  Uiso   1.00
C1220  C     0.87090   0.46808   0.95742   0.00000  Uiso   1.00
C1221  C     0.89604   0.45241   0.97637   0.00000  Uiso   1.00
C1222  C     0.94779   0.50676   0.74114   0.00000  Uiso   1.00
C1223  C     0.88513   0.45645   0.51818   0.00000  Uiso   1.00
C1224  C     0.84685   0.47468   0.54020   0.00000  Uiso   1.00
C1225  C     0.91117   0.44297   0.53869   0.00000  Uiso   1.00
C1226  C     0.89927   0.44774   0.58020   0.00000  Uiso   1.00
C1227  C     0.83921   0.48465   0.58158   0.00000  Uiso   1.00
C1228  C     0.99405   0.50795   0.73679   0.00000  Uiso   1.00
C1229  C     0.67411   0.49130   0.76321   0.00000  Uiso   1.00
C1230  C     0.75293   0.52703   0.92031   0.00000  Uiso   1.00
C1231  C     0.84711   0.65561   0.73827   0.00000  Uiso   1.00
C1232  C     0.81771   0.34608   0.76271   0.00000  Uiso   1.00
C1233  C     0.82268   0.38976   0.75888   0.00000  Uiso   1.00
C1234  C     0.84341   0.61102   0.74139   0.00000  Uiso   1.00
C1235  C     0.85501   0.47866   0.64404   0.00000  Uiso   1.00
C1236  C     0.81151   0.52057   0.85626   0.00000  Uiso   1.00
C1237  C     0.79636   0.52274   0.89976   0.00000  Uiso   1.00
C1238  C     0.86445   0.46985   0.60123   0.00000  Uiso   1.00
C1239  C     0.73791   0.52170   0.96050   0.00000  Uiso   1.00
C1240  C     0.70014   0.53770   0.56841   0.00000  Uiso   1.00
C1241  C     0.82462   0.51488   0.92022   0.00000  Uiso   1.00
C1242  C     0.90721   0.39532   0.61222   0.00000  Uiso   1.00
C1243  C     0.88569   0.55973   0.91304   0.00000  Uiso   1.00
C1244  C     0.80814   0.50344   0.95940   0.00000  Uiso   1.00
C1245  C     0.76468   0.50925   0.98011   0.00000  Uiso   1.00
C1246  C     0.83344   0.48661   0.97861   0.00000  Uiso   1.00
C1247  C     0.81862   0.48455   0.51988   0.00000  Uiso   1.00
C1248  C     0.77487   0.48890   0.53910   0.00000  Uiso   1.00
C1249  C     0.74815   0.50167   0.51993   0.00000  Uiso   1.00
H1250  H     0.70452   0.52568   0.97584   0.00000  Uiso   1.00
H1251  H     0.70651   0.50276   0.68425   0.00000  Uiso   1.00
H1252  H     0.98473   0.49080   0.82262   0.00000  Uiso   1.00
H1253  H     0.98486   0.44329   0.79670   0.00000  Uiso   1.00
H1254  H     0.91126   0.33503   0.71344   0.00000  Uiso   1.00
H1255  H     0.88144   0.65904   0.68102   0.00000  Uiso   1.00
H1256  H     0.75325   0.33642   0.78718   0.00000  Uiso   1.00
H1257  H     0.78257   0.34550   0.81995   0.00000  Uiso   1.00
H1258  H     0.82637   0.53976   0.61466   0.00000  Uiso   1.00
H1259  H     0.78657   0.49999   0.62619   0.00000  Uiso   1.00
H1260  H     0.90338   0.37222   0.58701   0.00000  Uiso   1.00
H1261  H     0.75990   0.47960   0.56843   0.00000  Uiso   1.00
H1262  H     0.87574   0.39689   0.63520   0.00000  Uiso   1.00
H1263  H     0.92944   0.38389   0.62558   0.00000  Uiso   1.00
H1264  H     0.95329   0.45436   0.93407   0.00000  Uiso   1.00
H1265  H     0.92253   0.40785   0.93435   0.00000  Uiso   1.00
H1266  H     0.71043   0.56291   0.91431   0.00000  Uiso   1.00
H1267  H     0.69832   0.51127   0.90357   0.00000  Uiso   1.00
H1268  H     0.88186   0.56446   0.94542   0.00000  Uiso   1.00
H1269  H     0.87082   0.58401   0.90421   0.00000  Uiso   1.00
H1270  H     0.92072   0.56355   0.89775   0.00000  Uiso   1.00
H1271  H     0.87979   0.46238   0.92562   0.00000  Uiso   1.00
H1272  H     0.71625   0.56720   0.55575   0.00000  Uiso   1.00
H1273  H     0.71254   0.53269   0.59309   0.00000  Uiso   1.00
H1274  H     0.99864   0.54113   0.58098   0.00000  Uiso   1.00
H1275  H     0.94734   0.39464   0.52540   0.00000  Uiso   1.00
H1276  H     0.97573   0.44242   0.52644   0.00000  Uiso   1.00
H1277  H     0.67733   0.54219   0.68892   0.00000  Uiso   1.00
N1278  N     0.95007   0.42484   0.51772   0.00000  Uiso   1.00
N1279  N     0.69212   0.52676   0.70420   0.00000  Uiso   1.00
N1280  N     0.97830   0.47382   0.79744   0.00000  Uiso   1.00
N1281  N     0.88266   0.34071   0.70867   0.00000  Uiso   1.00
N1282  N     0.78115   0.66307   0.79262   0.00000  Uiso   1.00
N1283  N     0.80943   0.51395   0.60289   0.00000  Uiso   1.00
N1284  N     0.93295   0.43284   0.95235   0.00000  Uiso   1.00
N1285  N     0.72349   0.53550   0.90030   0.00000  Uiso   1.00
O1286  O     0.83333   0.50000   0.75000   0.00000  Uiso   1.00
O1287  O     0.82360   0.45726   0.66625   0.00000  Uiso   1.00
O1288  O     0.79354   0.53979   0.83749   0.00000  Uiso   1.00
O1289  O     0.87755   0.50826   0.65877   0.00000  Uiso   1.00
O1290  O     0.83865   0.49468   0.83749   0.00000  Uiso   1.00
O1291  O     0.70478   0.50343   0.53915   0.00000  Uiso   1.00
O1292  O     0.92507   0.43490   0.59985   0.00000  Uiso   1.00
O1293  O     0.86843   0.51941   0.90151   0.00000  Uiso   1.00
O1294  O     0.84515   0.41434   0.77821   0.00000  Uiso   1.00
O1295  O     0.81247   0.59469   0.76767   0.00000  Uiso   1.00
O1296  O     0.74119   0.46584   0.73607   0.00000  Uiso   1.00
O1297  O     0.93452   0.52512   0.71806   0.00000  Uiso   1.00
O1298  O     0.73656   0.52293   0.77820   0.00000  Uiso   1.00
O1299  O     0.92106   0.48610   0.76768   0.00000  Uiso   1.00
O1300  O     0.80467   0.40236   0.73607   0.00000  Uiso   1.00
O1301  O     0.87104   0.58860   0.71806   0.00000  Uiso   1.00
Zn1302 Zn    0.85910   0.47423   0.78278   0.00000  Uiso   1.00
Zn1303 Zn    0.80125   0.45711   0.72258   0.00000  Uiso   1.00
Zn1304 Zn    0.87833   0.52997   0.71188   0.00000  Uiso   1.00
Zn1305 Zn    0.79465   0.53868   0.78277   0.00000  Uiso   1.00
C1306  C     0.05277   0.82673   0.75884   0.00000  Uiso   1.00
C1307  C     0.20424   0.80141   0.95742   0.00000  Uiso   1.00
C1308  C     0.22938   0.78574   0.97637   0.00000  Uiso   1.00
C1309  C     0.28112   0.84010   0.74114   0.00000  Uiso   1.00
C1310  C     0.21847   0.78978   0.51818   0.00000  Uiso   1.00
C1311  C     0.18018   0.80801   0.54020   0.00000  Uiso   1.00
C1312  C     0.24450   0.77630   0.53869   0.00000  Uiso   1.00
C1313  C     0.23260   0.78108   0.58020   0.00000  Uiso   1.00
C1314  C     0.17254   0.81798   0.58158   0.00000  Uiso   1.00
C1315  C     0.32738   0.84128   0.73679   0.00000  Uiso   1.00
C1316  C     0.00744   0.82464   0.76321   0.00000  Uiso   1.00
C1317  C     0.08626   0.86036   0.92031   0.00000  Uiso   1.00
C1318  C     0.18045   0.98894   0.73827   0.00000  Uiso   1.00
C1319  C     0.15104   0.67941   0.76271   0.00000  Uiso   1.00
C1320  C     0.15602   0.72309   0.75888   0.00000  Uiso   1.00
C1321  C     0.17675   0.94435   0.74139   0.00000  Uiso   1.00
C1322  C     0.18835   0.81200   0.64404   0.00000  Uiso   1.00
C1323  C     0.14485   0.85390   0.85626   0.00000  Uiso   1.00
C1324  C     0.12970   0.85608   0.89976   0.00000  Uiso   1.00
C1325  C     0.19778   0.80318   0.60123   0.00000  Uiso   1.00
C1326  C     0.07125   0.85503   0.96050   0.00000  Uiso   1.00
C1327  C     0.03347   0.87104   0.56841   0.00000  Uiso   1.00
C1328  C     0.15796   0.84821   0.92022   0.00000  Uiso   1.00
C1329  C     0.24054   0.72865   0.61222   0.00000  Uiso   1.00
C1330  C     0.21902   0.89307   0.91304   0.00000  Uiso   1.00
C1331  C     0.14148   0.83677   0.95940   0.00000  Uiso   1.00
C1332  C     0.09801   0.84258   0.98011   0.00000  Uiso   1.00
C1333  C     0.16677   0.81994   0.97861   0.00000  Uiso   1.00
C1334  C     0.15195   0.81788   0.51988   0.00000  Uiso   1.00
C1335  C     0.10821   0.82224   0.53910   0.00000  Uiso   1.00
C1336  C     0.08148   0.83501   0.51993   0.00000  Uiso   1.00
H1337  H     0.03786   0.85901   0.97584   0.00000  Uiso   1.00
H1338  H     0.03984   0.83610   0.68425   0.00000  Uiso   1.00
H1339  H     0.31806   0.82414   0.82262   0.00000  Uiso   1.00
H1340  H     0.31819   0.77663   0.79670   0.00000  Uiso   1.00
H1341  H     0.24459   0.66836   0.71344   0.00000  Uiso   1.00
H1342  H     0.21478   0.99237   0.68102   0.00000  Uiso   1.00
H1343  H     0.08659   0.66975   0.78718   0.00000  Uiso   1.00
H1344  H     0.11590   0.67883   0.81995   0.00000  Uiso   1.00
H1345  H     0.15970   0.87309   0.61466   0.00000  Uiso   1.00
H1346  H     0.11990   0.83333   0.62619   0.00000  Uiso   1.00
H1347  H     0.23671   0.70556   0.58701   0.00000  Uiso   1.00
H1348  H     0.09324   0.81293   0.56843   0.00000  Uiso   1.00
H1349  H     0.20907   0.73022   0.63520   0.00000  Uiso   1.00
H1350  H     0.26277   0.71723   0.62558   0.00000  Uiso   1.00
H1351  H     0.28662   0.78769   0.93407   0.00000  Uiso   1.00
H1352  H     0.25586   0.74118   0.93435   0.00000  Uiso   1.00
H1353  H     0.04376   0.89625   0.91431   0.00000  Uiso   1.00
H1354  H     0.03166   0.84461   0.90357   0.00000  Uiso   1.00
H1355  H     0.21520   0.89780   0.94542   0.00000  Uiso   1.00
H1356  H     0.20415   0.91734   0.90421   0.00000  Uiso   1.00
H1357  H     0.25405   0.89688   0.89775   0.00000  Uiso   1.00
H1358  H     0.21312   0.79571   0.92562   0.00000  Uiso   1.00
H1359  H     0.04958   0.90054   0.55575   0.00000  Uiso   1.00
H1360  H     0.04587   0.86602   0.59309   0.00000  Uiso   1.00
H1361  H     0.33197   0.87446   0.58098   0.00000  Uiso   1.00
H1362  H     0.28067   0.72798   0.52540   0.00000  Uiso   1.00
H1363  H     0.30907   0.77575   0.52644   0.00000  Uiso   1.00
H1364  H     0.01066   0.87552   0.68892   0.00000  Uiso   1.00
N1365  N     0.28340   0.75817   0.51772   0.00000  Uiso   1.00
N1366  N     0.02545   0.86010   0.70420   0.00000  Uiso   1.00
N1367  N     0.31163   0.80715   0.79744   0.00000  Uiso   1.00
N1368  N     0.21599   0.67405   0.70867   0.00000  Uiso   1.00
N1369  N     0.11448   0.99640   0.79262   0.00000  Uiso   1.00
N1370  N     0.14277   0.84728   0.60289   0.00000  Uiso   1.00
N1371  N     0.26628   0.76618   0.95235   0.00000  Uiso   1.00
N1372  N     0.05683   0.86883   0.90030   0.00000  Uiso   1.00
O1373  O     0.16667   0.83333   0.75000   0.00000  Uiso   1.00
O1374  O     0.15693   0.79060   0.66625   0.00000  Uiso   1.00
O1375  O     0.12687   0.87313   0.83749   0.00000  Uiso   1.00
O1376  O     0.21088   0.84159   0.65877   0.00000  Uiso   1.00
O1377  O     0.17198   0.82802   0.83749   0.00000  Uiso   1.00
O1378  O     0.03811   0.83676   0.53915   0.00000  Uiso   1.00
O1379  O     0.25840   0.76823   0.59985   0.00000  Uiso   1.00
O1380  O     0.20176   0.85274   0.90151   0.00000  Uiso   1.00
O1381  O     0.17849   0.74768   0.77821   0.00000  Uiso   1.00
O1382  O     0.14581   0.92803   0.76767   0.00000  Uiso   1.00
O1383  O     0.07452   0.79917   0.73607   0.00000  Uiso   1.00
O1384  O     0.26785   0.85845   0.71806   0.00000  Uiso   1.00
O1385  O     0.06990   0.85627   0.77820   0.00000  Uiso   1.00
O1386  O     0.25440   0.81944   0.76768   0.00000  Uiso   1.00
O1387  O     0.13800   0.73570   0.73607   0.00000  Uiso   1.00
O1388  O     0.20437   0.92193   0.71806   0.00000  Uiso   1.00
Zn1389 Zn    0.19244   0.80756   0.78278   0.00000  Uiso   1.00
Zn1390 Zn    0.13459   0.79044   0.72258   0.00000  Uiso   1.00
Zn1391 Zn    0.21166   0.86331   0.71188   0.00000  Uiso   1.00
Zn1392 Zn    0.12798   0.87202   0.78277   0.00000  Uiso   1.00
C1393  C     0.38610   0.82673   0.75884   0.00000  Uiso   1.00
C1394  C     0.53757   0.80141   0.95742   0.00000  Uiso   1.00
C1395  C     0.56271   0.78574   0.97637   0.00000  Uiso   1.00
C1396  C     0.61446   0.84010   0.74114   0.00000  Uiso   1.00
C1397  C     0.55180   0.78978   0.51818   0.00000  Uiso   1.00
C1398  C     0.51351   0.80801   0.54020   0.00000  Uiso   1.00
C1399  C     0.57784   0.77630   0.53869   0.00000  Uiso   1.00
C1400  C     0.56594   0.78108   0.58020   0.00000  Uiso   1.00
C1401  C     0.50587   0.81798   0.58158   0.00000  Uiso   1.00
C1402  C     0.66071   0.84128   0.73679   0.00000  Uiso   1.00
C1403  C     0.34078   0.82464   0.76321   0.00000  Uiso   1.00
C1404  C     0.41960   0.86036   0.92031   0.00000  Uiso   1.00
C1405  C     0.51378   0.98894   0.73827   0.00000  Uiso   1.00
C1406  C     0.48438   0.67941   0.76271   0.00000  Uiso   1.00
C1407  C     0.48935   0.72309   0.75888   0.00000  Uiso   1.00
C1408  C     0.51008   0.94435   0.74139   0.00000  Uiso   1.00
C1409  C     0.52168   0.81200   0.64404   0.00000  Uiso   1.00
C1410  C     0.47818   0.85390   0.85626   0.00000  Uiso   1.00
C1411  C     0.46303   0.85608   0.89976   0.00000  Uiso   1.00
C1412  C     0.53112   0.80318   0.60123   0.00000  Uiso   1.00
C1413  C     0.40458   0.85503   0.96050   0.00000  Uiso   1.00
C1414  C     0.36681   0.87104   0.56841   0.00000  Uiso   1.00
C1415  C     0.49129   0.84821   0.92022   0.00000  Uiso   1.00
C1416  C     0.57387   0.72865   0.61222   0.00000  Uiso   1.00
C1417  C     0.55236   0.89307   0.91304   0.00000  Uiso   1.00
C1418  C     0.47481   0.83677   0.95940   0.00000  Uiso   1.00
C1419  C     0.43135   0.84258   0.98011   0.00000  Uiso   1.00
C1420  C     0.50011   0.81994   0.97861   0.00000  Uiso   1.00
C1421  C     0.48529   0.81788   0.51988   0.00000  Uiso   1.00
C1422  C     0.44154   0.82224   0.53910   0.00000  Uiso   1.00
C1423  C     0.41482   0.83501   0.51993   0.00000  Uiso   1.00
H1424  H     0.37119   0.85901   0.97584   0.00000  Uiso   1.00
H1425  H     0.37318   0.83610   0.68425   0.00000  Uiso   1.00
H1426  H     0.65140   0.82414   0.82262   0.00000  Uiso   1.00
H1427  H     0.65153   0.77663   0.79670   0.00000  Uiso   1.00
H1428  H     0.57793   0.66836   0.71344   0.00000  Uiso   1.00
H1429  H     0.54811   0.99237   0.68102   0.00000  Uiso   1.00
H1430  H     0.41992   0.66975   0.78718   0.00000  Uiso   1.00
H1431  H     0.44924   0.67883   0.81995   0.00000  Uiso   1.00
H1432  H     0.49303   0.87309   0.61466   0.00000  Uiso   1.00
H1433  H     0.45323   0.83333   0.62619   0.00000  Uiso   1.00
H1434  H     0.57005   0.70556   0.58701   0.00000  Uiso   1.00
H1435  H     0.42657   0.81293   0.56843   0.00000  Uiso   1.00
H1436  H     0.54241   0.73022   0.63520   0.00000  Uiso   1.00
H1437  H     0.59610   0.71723   0.62558   0.00000  Uiso   1.00
H1438  H     0.61996   0.78769   0.93407   0.00000  Uiso   1.00
H1439  H     0.58920   0.74118   0.93435   0.00000  Uiso   1.00
H1440  H     0.37709   0.89625   0.91431   0.00000  Uiso   1.00
H1441  H     0.36499   0.84461   0.90357   0.00000  Uiso   1.00
H1442  H     0.54853   0.89780   0.94542   0.00000  Uiso   1.00
H1443  H     0.53748   0.91734   0.90421   0.00000  Uiso   1.00
H1444  H     0.58738   0.89688   0.89775   0.00000  Uiso   1.00
H1445  H     0.54646   0.79571   0.92562   0.00000  Uiso   1.00
H1446  H     0.38291   0.90054   0.55575   0.00000  Uiso   1.00
H1447  H     0.37921   0.86602   0.59309   0.00000  Uiso   1.00
H1448  H     0.66531   0.87446   0.58098   0.00000  Uiso   1.00
H1449  H     0.61400   0.72798   0.52540   0.00000  Uiso   1.00
H1450  H     0.64240   0.77575   0.52644   0.00000  Uiso   1.00
H1451  H     0.34399   0.87552   0.68892   0.00000  Uiso   1.00
N1452  N     0.61674   0.75817   0.51772   0.00000  Uiso   1.00
N1453  N     0.35879   0.86010   0.70420   0.00000  Uiso   1.00
N1454  N     0.64497   0.80715   0.79744   0.00000  Uiso   1.00
N1455  N     0.54933   0.67405   0.70867   0.00000  Uiso   1.00
N1456  N     0.44782   0.99640   0.79262   0.00000  Uiso   1.00
N1457  N     0.47610   0.84728   0.60289   0.00000  Uiso   1.00
N1458  N     0.59962   0.76618   0.95235   0.00000  Uiso   1.00
N1459  N     0.39016   0.86883   0.90030   0.00000  Uiso   1.00
O1460  O     0.50000   0.83333   0.75000   0.00000  Uiso   1.00
O1461  O     0.49027   0.79060   0.66625   0.00000  Uiso   1.00
O1462  O     0.46020   0.87313   0.83749   0.00000  Uiso   1.00
O1463  O     0.54421   0.84159   0.65877   0.00000  Uiso   1.00
O1464  O     0.50532   0.82802   0.83749   0.00000  Uiso   1.00
O1465  O     0.37145   0.83676   0.53915   0.00000  Uiso   1.00
O1466  O     0.59173   0.76823   0.59985   0.00000  Uiso   1.00
O1467  O     0.53509   0.85274   0.90151   0.00000  Uiso   1.00
O1468  O     0.51182   0.74768   0.77821   0.00000  Uiso   1.00
O1469  O     0.47914   0.92803   0.76767   0.00000  Uiso   1.00
O1470  O     0.40785   0.79917   0.73607   0.00000  Uiso   1.00
O1471  O     0.60119   0.85845   0.71806   0.00000  Uiso   1.00
O1472  O     0.40323   0.85627   0.77820   0.00000  Uiso   1.00
O1473  O     0.58773   0.81944   0.76768   0.00000  Uiso   1.00
O1474  O     0.47133   0.73570   0.73607   0.00000  Uiso   1.00
O1475  O     0.53771   0.92193   0.71806   0.00000  Uiso   1.00
Zn1476 Zn    0.52577   0.80756   0.78278   0.00000  Uiso   1.00
Zn1477 Zn    0.46792   0.79044   0.72258   0.00000  Uiso   1.00
Zn1478 Zn    0.54500   0.86331   0.71188   0.00000  Uiso   1.00
Zn1479 Zn    0.46131   0.87202   0.78277   0.00000  Uiso   1.00
C1480  C     0.71943   0.82673   0.75884   0.00000  Uiso   1.00
C1481  C     0.87090   0.80141   0.95742   0.00000  Uiso   1.00
C1482  C     0.89604   0.78574   0.97637   0.00000  Uiso   1.00
C1483  C     0.94779   0.84010   0.74114   0.00000  Uiso   1.00
C1484  C     0.88513   0.78978   0.51818   0.00000  Uiso   1.00
C1485  C     0.84685   0.80801   0.54020   0.00000  Uiso   1.00
C1486  C     0.91117   0.77630   0.53869   0.00000  Uiso   1.00
C1487  C     0.89927   0.78108   0.58020   0.00000  Uiso   1.00
C1488  C     0.83921   0.81798   0.58158   0.00000  Uiso   1.00
C1489  C     0.99405   0.84128   0.73679   0.00000  Uiso   1.00
C1490  C     0.67411   0.82464   0.76321   0.00000  Uiso   1.00
C1491  C     0.75293   0.86036   0.92031   0.00000  Uiso   1.00
C1492  C     0.84711   0.98894   0.73827   0.00000  Uiso   1.00
C1493  C     0.81771   0.67941   0.76271   0.00000  Uiso   1.00
C1494  C     0.82268   0.72309   0.75888   0.00000  Uiso   1.00
C1495  C     0.84341   0.94435   0.74139   0.00000  Uiso   1.00
C1496  C     0.85501   0.81200   0.64404   0.00000  Uiso   1.00
C1497  C     0.81151   0.85390   0.85626   0.00000  Uiso   1.00
C1498  C     0.79636   0.85608   0.89976   0.00000  Uiso   1.00
C1499  C     0.86445   0.80318   0.60123   0.00000  Uiso   1.00
C1500  C     0.73791   0.85503   0.96050   0.00000  Uiso   1.00
C1501  C     0.70014   0.87104   0.56841   0.00000  Uiso   1.00
C1502  C     0.82462   0.84821   0.92022   0.00000  Uiso   1.00
C1503  C     0.90721   0.72865   0.61222   0.00000  Uiso   1.00
C1504  C     0.88569   0.89307   0.91304   0.00000  Uiso   1.00
C1505  C     0.80814   0.83677   0.95940   0.00000  Uiso   1.00
C1506  C     0.76468   0.84258   0.98011   0.00000  Uiso   1.00
C1507  C     0.83344   0.81994   0.97861   0.00000  Uiso   1.00
C1508  C     0.81862   0.81788   0.51988   0.00000  Uiso   1.00
C1509  C     0.77487   0.82224   0.53910   0.00000  Uiso   1.00
C1510  C     0.74815   0.83501   0.51993   0.00000  Uiso   1.00
H1511  H     0.70452   0.85901   0.97584   0.00000  Uiso   1.00
H1512  H     0.70651   0.83610   0.68425   0.00000  Uiso   1.00
H1513  H     0.98473   0.82414   0.82262   0.00000  Uiso   1.00
H1514  H     0.98486   0.77663   0.79670   0.00000  Uiso   1.00
H1515  H     0.91126   0.66836   0.71344   0.00000  Uiso   1.00
H1516  H     0.88144   0.99237   0.68102   0.00000  Uiso   1.00
H1517  H     0.75325   0.66975   0.78718   0.00000  Uiso   1.00
H1518  H     0.78257   0.67883   0.81995   0.00000  Uiso   1.00
H1519  H     0.82637   0.87309   0.61466   0.00000  Uiso   1.00
H1520  H     0.78657   0.83333   0.62619   0.00000  Uiso   1.00
H1521  H     0.90338   0.70556   0.58701   0.00000  Uiso   1.00
H1522  H     0.75990   0.81293   0.56843   0.00000  Uiso   1.00
H1523  H     0.87574   0.73022   0.63520   0.00000  Uiso   1.00
H1524  H     0.92944   0.71723   0.62558   0.00000  Uiso   1.00
H1525  H     0.95329   0.78769   0.93407   0.00000  Uiso   1.00
H1526  H     0.92253   0.74118   0.93435   0.00000  Uiso   1.00
H1527  H     0.71043   0.89625   0.91431   0.00000  Uiso   1.00
H1528  H     0.69832   0.84461   0.90357   0.00000  Uiso   1.00
H1529  H     0.88186   0.89780   0.94542   0.00000  Uiso   1.00
H1530  H     0.87082   0.91734   0.90421   0.00000  Uiso   1.00
H1531  H     0.92072   0.89688   0.89775   0.00000  Uiso   1.00
H1532  H     0.87979   0.79571   0.92562   0.00000  Uiso   1.00
H1533  H     0.71625   0.90054   0.55575   0.00000  Uiso   1.00
H1534  H     0.71254   0.86602   0.59309   0.00000  Uiso   1.00
H1535  H     0.99864   0.87446   0.58098   0.00000  Uiso   1.00
H1536  H     0.94734   0.72798   0.52540   0.00000  Uiso   1.00
H1537  H     0.97573   0.77575   0.52644   0.00000  Uiso   1.00
H1538  H     0.67733   0.87552   0.68892   0.00000  Uiso   1.00
N1539  N     0.95007   0.75817   0.51772   0.00000  Uiso   1.00
N1540  N     0.69212   0.86010   0.70420   0.00000  Uiso   1.00
N1541  N     0.97830   0.80715   0.79744   0.00000  Uiso   1.00
N1542  N     0.88266   0.67405   0.70867   0.00000  Uiso   1.00
N1543  N     0.78115   0.99640   0.79262   0.00000  Uiso   1.00
N1544  N     0.80943   0.84728   0.60289   0.00000  Uiso   1.00
N1545  N     0.93295   0.76618   0.95235   0.00000  Uiso   1.00
N1546  N     0.72349   0.86883   0.90030   0.00000  Uiso   1.00
O1547  O     0.83333   0.83333   0.75000   0.00000  Uiso   1.00
O1548  O     0.82360   0.79060   0.66625   0.00000  Uiso   1.00
O1549  O     0.79354   0.87313   0.83749   0.00000  Uiso   1.00
O1550  O     0.87755   0.84159   0.65877   0.00000  Uiso   1.00
O1551  O     0.83865   0.82802   0.83749   0.00000  Uiso   1.00
O1552  O     0.70478   0.83676   0.53915   0.00000  Uiso   1.00
O1553  O     0.92507   0.76823   0.59985   0.00000  Uiso   1.00
O1554  O     0.86843   0.85274   0.90151   0.00000  Uiso   1.00
O1555  O     0.84515   0.74768   0.77821   0.00000  Uiso   1.00
O1556  O     0.81247   0.92803   0.76767   0.00000  Uiso   1.00
O1557  O     0.74119   0.79917   0.73607   0.00000  Uiso   1.00
O1558  O     0.93452   0.85845   0.71806   0.00000  Uiso   1.00
O1559  O     0.73656   0.85627   0.77820   0.00000  Uiso   1.00
O1560  O     0.92106   0.81944   0.76768   0.00000  Uiso   1.00
O1561  O     0.80467   0.73570   0.73607   0.00000  Uiso   1.00
O1562  O     0.87104   0.92193   0.71806   0.00000  Uiso   1.00
Zn1563 Zn    0.85910   0.80756   0.78278   0.00000  Uiso   1.00
Zn1564 Zn    0.80125   0.79044   0.72258   0.00000  Uiso   1.00
Zn1565 Zn    0.87833   0.86331   0.71188   0.00000  Uiso   1.00
Zn1566 Zn    0.79465   0.87202   0.78277   0.00000  Uiso   1.00
loop_
_geom_bond_atom_site_label_1
_geom_bond_atom_site_label_2
_geom_bond_distance
_geom_bond_site_symmetry_2
_ccdc_geom_bond_type
C1     C11     1.436   .     S
C1     O78     1.270   .     A
C1     O80     1.266   .     A
C2     H53     1.079   .     S
C2     C3      1.395   .     A
C2     C28     1.406   .     A
C3     N66     1.434   .     S
C3     C788    1.417   .     S
C4     O81     1.276   .     A
C4     O79     1.286   .     A
C4     C10     1.469   .     S
C5     C6      1.429   .     A
C5     C7      1.423   .     A
C5     C786    1.417   1_554 S
C6     C9      1.418   .     A
C6     C29     1.425   .     A
C7     C8      1.405   .     A
C7     N60     1.435   .     S
C8     C20     1.401   .     A
C8     O74     1.385   .     S
C9     C20     1.401   .     A
C9     N65     1.439   .     S
C10    C98     1.354   .     S
C10    N148    1.444   .     S
C11    C184    1.354   1_455 S
C11    N236    1.437   1_455 S
C12    N67     1.433   .     S
C12    C21     1.396   .     A
C12    C19     1.409   .     A
C13    C16     1.461   .     S
C13    C275    1.349   .     S
C13    N324    1.439   .     S
C14    C15     1.433   .     S
C14    C535    1.349   1_545 S
C14    N586    1.437   1_545 S
C15    O76     1.276   .     A
C15    O82     1.276   .     A
C16    O77     1.266   .     A
C16    O83     1.273   .     A
C17    O69     1.277   .     A
C17    C20     1.458   .     S
C17    O71     1.276   .     A
C18    O70     1.284   .     A
C18    O72     1.288   .     A
C18    C19     1.475   .     S
C19    C23     1.405   .     A
C21    C27     1.403   .     A
C21    H32     1.084   .     S
C22    H54     1.114   .     S
C22    H55     1.112   .     S
C22    O73     1.410   .     S
C22    H230    1.109   1_455 S
C23    C26     1.421   .     A
C23    O75     1.384   .     S
C24    H42     1.113   .     S
C24    H45     1.109   .     S
C24    H44     1.111   .     S
C24    O74     1.411   .     S
C25    H50     1.113   .     S
C25    O75     1.410   .     S
C25    H51     1.114   .     S
C25    H52     1.109   .     S
C26    C27     1.420   .     A
C26    C28     1.426   .     A
C27    C814    1.403   .     S
C28    C812    1.413   .     S
C29    C30     1.409   .     A
C29    C811    1.413   1_554 S
C30    H43     1.080   .     S
C30    C31     1.396   .     A
C31    O73     1.385   .     S
C31    C810    1.403   1_554 S
H33    N61     1.046   .     S
H34    N62     1.046   .     S
H35    N62     1.046   .     S
H36    N63     1.045   .     S
H37    N324    1.046   .     S
H38    N586    1.046   1_545 S
H39    N586    1.046   1_545 S
H40    N65     1.046   .     S
H41    N65     1.046   .     S
H46    N66     1.046   .     S
H47    N66     1.046   .     S
H48    N67     1.046   .     S
H49    N67     1.046   .     S
H56    C109    1.109   .     S
H57    N60     1.045   .     S
H58    N60     1.045   .     S
H59    N61     1.044   .     S
N61    C184    1.444   1_455 S
N62    C98     1.437   .     S
N63    C535    1.439   1_545 S
N63    H559    1.046   1_545 S
N64    C275    1.437   .     S
N64    H300    1.046   .     S
N64    H299    1.046   .     S
O68    Zn85    1.951   .     S
O68    Zn86    1.931   .     S
O68    Zn84    1.963   .     S
O68    Zn87    1.933   .     S
O69    Zn85    1.921   .     S
O70    Zn87    1.934   .     S
O71    Zn86    1.931   .     S
O72    Zn84    1.919   .     S
O76    Zn84    1.937   .     S
O77    Zn87    1.937   .     S
O78    Zn85    1.933   .     S
O79    Zn86    1.946   .     S
O80    Zn87    1.942   .     S
O81    Zn84    1.930   .     S
O82    Zn85    1.943   .     S
O83    Zn86    1.938   .     S
C88    C98     1.436   .     S
C88    O165    1.270   .     A
C88    O167    1.266   .     A
C89    H140    1.079   .     S
C89    C90     1.395   .     A
C89    C115    1.406   .     A
C90    N153    1.434   .     S
C90    C875    1.417   .     S
C91    O168    1.276   .     A
C91    O166    1.286   .     A
C91    C97     1.469   .     S
C92    C93     1.429   .     A
C92    C94     1.423   .     A
C92    C873    1.417   1_554 S
C93    C96     1.418   .     A
C93    C116    1.425   .     A
C94    C95     1.405   .     A
C94    N147    1.435   .     S
C95    C107    1.401   .     A
C95    O161    1.385   .     S
C96    C107    1.401   .     A
C96    N152    1.439   .     S
C97    C185    1.354   .     S
C97    N235    1.444   .     S
C99    N154    1.433   .     S
C99    C108    1.396   .     A
C99    C106    1.409   .     A
C100   C103    1.461   .     S
C100   C362    1.349   .     S
C100   N411    1.439   .     S
C101   C102    1.433   .     S
C101   C622    1.349   1_545 S
C101   N673    1.437   1_545 S
C102   O163    1.276   .     A
C102   O169    1.276   .     A
C103   O164    1.266   .     A
C103   O170    1.273   .     A
C104   O156    1.277   .     A
C104   C107    1.458   .     S
C104   O158    1.276   .     A
C105   O157    1.284   .     A
C105   O159    1.288   .     A
C105   C106    1.475   .     S
C106   C110    1.405   .     A
C108   C114    1.403   .     A
C108   H119    1.084   .     S
C109   H141    1.114   .     S
C109   H142    1.112   .     S
C109   O160    1.410   .     S
C110   C113    1.421   .     A
C110   O162    1.384   .     S
C111   H129    1.113   .     S
C111   H132    1.109   .     S
C111   H131    1.111   .     S
C111   O161    1.411   .     S
C112   H137    1.113   .     S
C112   O162    1.410   .     S
C112   H138    1.114   .     S
C112   H139    1.109   .     S
C113   C114    1.420   .     A
C113   C115    1.426   .     A
C114   C901    1.403   .     S
C115   C899    1.413   .     S
C116   C117    1.409   .     A
C116   C898    1.413   1_554 S
C117   H130    1.080   .     S
C117   C118    1.396   .     A
C118   O160    1.385   .     S
C118   C897    1.403   1_554 S
H120   N148    1.046   .     S
H121   N149    1.046   .     S
H122   N149    1.046   .     S
H123   N150    1.045   .     S
H124   N411    1.046   .     S
H125   N673    1.046   1_545 S
H126   N673    1.046   1_545 S
H127   N152    1.046   .     S
H128   N152    1.046   .     S
H133   N153    1.046   .     S
H134   N153    1.046   .     S
H135   N154    1.046   .     S
H136   N154    1.046   .     S
H143   C196    1.109   .     S
H144   N147    1.045   .     S
H145   N147    1.045   .     S
H146   N148    1.044   .     S
N149   C185    1.437   .     S
N150   C622    1.439   1_545 S
N150   H646    1.046   1_545 S
N151   C362    1.437   .     S
N151   H387    1.046   .     S
N151   H386    1.046   .     S
O155   Zn172   1.951   .     S
O155   Zn173   1.931   .     S
O155   Zn171   1.963   .     S
O155   Zn174   1.933   .     S
O156   Zn172   1.921   .     S
O157   Zn174   1.934   .     S
O158   Zn173   1.931   .     S
O159   Zn171   1.919   .     S
O163   Zn171   1.937   .     S
O164   Zn174   1.937   .     S
O165   Zn172   1.933   .     S
O166   Zn173   1.946   .     S
O167   Zn174   1.942   .     S
O168   Zn171   1.930   .     S
O169   Zn172   1.943   .     S
O170   Zn173   1.938   .     S
C175   C185    1.436   .     S
C175   O252    1.270   .     A
C175   O254    1.266   .     A
C176   H227    1.079   .     S
C176   C177    1.395   .     A
C176   C202    1.406   .     A
C177   N240    1.434   .     S
C177   C962    1.417   .     S
C178   O255    1.276   .     A
C178   O253    1.286   .     A
C178   C184    1.469   .     S
C179   C180    1.429   .     A
C179   C181    1.423   .     A
C179   C960    1.417   1_554 S
C180   C183    1.418   .     A
C180   C203    1.425   .     A
C181   C182    1.405   .     A
C181   N234    1.435   .     S
C182   C194    1.401   .     A
C182   O248    1.385   .     S
C183   C194    1.401   .     A
C183   N239    1.439   .     S
C184   C11     1.354   1_655 S
C184   N61     1.444   1_655 S
C186   N241    1.433   .     S
C186   C195    1.396   .     A
C186   C193    1.409   .     A
C187   C190    1.461   .     S
C187   C449    1.349   .     S
C187   N498    1.439   .     S
C188   C189    1.433   .     S
C188   C709    1.349   1_545 S
C188   N760    1.437   1_545 S
C189   O250    1.276   .     A
C189   O256    1.276   .     A
C190   O251    1.266   .     A
C190   O257    1.273   .     A
C191   O243    1.277   .     A
C191   C194    1.458   .     S
C191   O245    1.276   .     A
C192   O244    1.284   .     A
C192   O246    1.288   .     A
C192   C193    1.475   .     S
C193   C197    1.405   .     A
C195   C201    1.403   .     A
C195   H206    1.084   .     S
C196   H228    1.114   .     S
C196   H229    1.112   .     S
C196   O247    1.410   .     S
C197   C200    1.421   .     A
C197   O249    1.384   .     S
C198   H216    1.113   .     S
C198   H219    1.109   .     S
C198   H218    1.111   .     S
C198   O248    1.411   .     S
C199   H224    1.113   .     S
C199   O249    1.410   .     S
C199   H225    1.114   .     S
C199   H226    1.109   .     S
C200   C201    1.420   .     A
C200   C202    1.426   .     A
C201   C988    1.403   .     S
C202   C986    1.413   .     S
C203   C204    1.409   .     A
C203   C985    1.413   1_554 S
C204   H217    1.080   .     S
C204   C205    1.396   .     A
C205   O247    1.385   .     S
C205   C984    1.403   1_554 S
H207   N235    1.046   .     S
H208   N236    1.046   .     S
H209   N236    1.046   .     S
H210   N237    1.045   .     S
H211   N498    1.046   .     S
H212   N760    1.046   1_545 S
H213   N760    1.046   1_545 S
H214   N239    1.046   .     S
H215   N239    1.046   .     S
H220   N240    1.046   .     S
H221   N240    1.046   .     S
H222   N241    1.046   .     S
H223   N241    1.046   .     S
H230   C22     1.109   1_655 S
H231   N234    1.045   .     S
H232   N234    1.045   .     S
H233   N235    1.044   .     S
N236   C11     1.437   1_655 S
N237   C709    1.439   1_545 S
N237   H733    1.046   1_545 S
N238   C449    1.437   .     S
N238   H474    1.046   .     S
N238   H473    1.046   .     S
O242   Zn259   1.951   .     S
O242   Zn260   1.931   .     S
O242   Zn258   1.963   .     S
O242   Zn261   1.933   .     S
O243   Zn259   1.921   .     S
O244   Zn261   1.934   .     S
O245   Zn260   1.931   .     S
O246   Zn258   1.919   .     S
O250   Zn258   1.937   .     S
O251   Zn261   1.937   .     S
O252   Zn259   1.933   .     S
O253   Zn260   1.946   .     S
O254   Zn261   1.942   .     S
O255   Zn258   1.930   .     S
O256   Zn259   1.943   .     S
O257   Zn260   1.938   .     S
C262   C272    1.436   .     S
C262   O339    1.270   .     A
C262   O341    1.266   .     A
C263   H314    1.079   .     S
C263   C264    1.395   .     A
C263   C289    1.406   .     A
C264   N327    1.434   .     S
C264   C1049   1.417   .     S
C265   O342    1.276   .     A
C265   O340    1.286   .     A
C265   C271    1.469   .     S
C266   C267    1.429   .     A
C266   C268    1.423   .     A
C266   C1047   1.417   1_554 S
C267   C270    1.418   .     A
C267   C290    1.425   .     A
C268   C269    1.405   .     A
C268   N321    1.435   .     S
C269   C281    1.401   .     A
C269   O335    1.385   .     S
C270   C281    1.401   .     A
C270   N326    1.439   .     S
C271   C359    1.354   .     S
C271   N409    1.444   .     S
C272   C445    1.354   1_455 S
C272   N497    1.437   1_455 S
C273   N328    1.433   .     S
C273   C282    1.396   .     A
C273   C280    1.409   .     A
C274   C277    1.461   .     S
C274   C536    1.349   .     S
C274   N585    1.439   .     S
C275   C276    1.433   .     S
C276   O337    1.276   .     A
C276   O343    1.276   .     A
C277   O338    1.266   .     A
C277   O344    1.273   .     A
C278   O330    1.277   .     A
C278   C281    1.458   .     S
C278   O332    1.276   .     A
C279   O331    1.284   .     A
C279   O333    1.288   .     A
C279   C280    1.475   .     S
C280   C284    1.405   .     A
C282   C288    1.403   .     A
C282   H293    1.084   .     S
C283   H315    1.114   .     S
C283   H316    1.112   .     S
C283   O334    1.410   .     S
C283   H491    1.109   1_455 S
C284   C287    1.421   .     A
C284   O336    1.384   .     S
C285   H303    1.113   .     S
C285   H306    1.109   .     S
C285   H305    1.111   .     S
C285   O335    1.411   .     S
C286   H311    1.113   .     S
C286   O336    1.410   .     S
C286   H312    1.114   .     S
C286   H313    1.109   .     S
C287   C288    1.420   .     A
C287   C289    1.426   .     A
C288   C1075   1.403   .     S
C289   C1073   1.413   .     S
C290   C291    1.409   .     A
C290   C1072   1.413   1_554 S
C291   H304    1.080   .     S
C291   C292    1.396   .     A
C292   O334    1.385   .     S
C292   C1071   1.403   1_554 S
H294   N322    1.046   .     S
H295   N323    1.046   .     S
H296   N323    1.046   .     S
H297   N324    1.045   .     S
H298   N585    1.046   .     S
H301   N326    1.046   .     S
H302   N326    1.046   .     S
H307   N327    1.046   .     S
H308   N327    1.046   .     S
H309   N328    1.046   .     S
H310   N328    1.046   .     S
H317   C370    1.109   .     S
H318   N321    1.045   .     S
H319   N321    1.045   .     S
H320   N322    1.044   .     S
N322   C445    1.444   1_455 S
N323   C359    1.437   .     S
N325   C536    1.437   .     S
N325   H561    1.046   .     S
N325   H560    1.046   .     S
O329   Zn346   1.951   .     S
O329   Zn347   1.931   .     S
O329   Zn345   1.963   .     S
O329   Zn348   1.933   .     S
O330   Zn346   1.921   .     S
O331   Zn348   1.934   .     S
O332   Zn347   1.931   .     S
O333   Zn345   1.919   .     S
O337   Zn345   1.937   .     S
O338   Zn348   1.937   .     S
O339   Zn346   1.933   .     S
O340   Zn347   1.946   .     S
O341   Zn348   1.942   .     S
O342   Zn345   1.930   .     S
O343   Zn346   1.943   .     S
O344   Zn347   1.938   .     S
C349   C359    1.436   .     S
C349   O426    1.270   .     A
C349   O428    1.266   .     A
C350   H401    1.079   .     S
C350   C351    1.395   .     A
C350   C376    1.406   .     A
C351   N414    1.434   .     S
C351   C1136   1.417   .     S
C352   O429    1.276   .     A
C352   O427    1.286   .     A
C352   C358    1.469   .     S
C353   C354    1.429   .     A
C353   C355    1.423   .     A
C353   C1134   1.417   1_554 S
C354   C357    1.418   .     A
C354   C377    1.425   .     A
C355   C356    1.405   .     A
C355   N408    1.435   .     S
C356   C368    1.401   .     A
C356   O422    1.385   .     S
C357   C368    1.401   .     A
C357   N413    1.439   .     S
C358   C446    1.354   .     S
C358   N496    1.444   .     S
C360   N415    1.433   .     S
C360   C369    1.396   .     A
C360   C367    1.409   .     A
C361   C364    1.461   .     S
C361   C623    1.349   .     S
C361   N672    1.439   .     S
C362   C363    1.433   .     S
C363   O424    1.276   .     A
C363   O430    1.276   .     A
C364   O425    1.266   .     A
C364   O431    1.273   .     A
C365   O417    1.277   .     A
C365   C368    1.458   .     S
C365   O419    1.276   .     A
C366   O418    1.284   .     A
C366   O420    1.288   .     A
C366   C367    1.475   .     S
C367   C371    1.405   .     A
C369   C375    1.403   .     A
C369   H380    1.084   .     S
C370   H402    1.114   .     S
C370   H403    1.112   .     S
C370   O421    1.410   .     S
C371   C374    1.421   .     A
C371   O423    1.384   .     S
C372   H390    1.113   .     S
C372   H393    1.109   .     S
C372   H392    1.111   .     S
C372   O422    1.411   .     S
C373   H398    1.113   .     S
C373   O423    1.410   .     S
C373   H399    1.114   .     S
C373   H400    1.109   .     S
C374   C375    1.420   .     A
C374   C376    1.426   .     A
C375   C1162   1.403   .     S
C376   C1160   1.413   .     S
C377   C378    1.409   .     A
C377   C1159   1.413   1_554 S
C378   H391    1.080   .     S
C378   C379    1.396   .     A
C379   O421    1.385   .     S
C379   C1158   1.403   1_554 S
H381   N409    1.046   .     S
H382   N410    1.046   .     S
H383   N410    1.046   .     S
H384   N411    1.045   .     S
H385   N672    1.046   .     S
H388   N413    1.046   .     S
H389   N413    1.046   .     S
H394   N414    1.046   .     S
H395   N414    1.046   .     S
H396   N415    1.046   .     S
H397   N415    1.046   .     S
H404   C457    1.109   .     S
H405   N408    1.045   .     S
H406   N408    1.045   .     S
H407   N409    1.044   .     S
N410   C446    1.437   .     S
N412   C623    1.437   .     S
N412   H648    1.046   .     S
N412   H647    1.046   .     S
O416   Zn433   1.951   .     S
O416   Zn434   1.931   .     S
O416   Zn432   1.963   .     S
O416   Zn435   1.933   .     S
O417   Zn433   1.921   .     S
O418   Zn435   1.934   .     S
O419   Zn434   1.931   .     S
O420   Zn432   1.919   .     S
O424   Zn432   1.937   .     S
O425   Zn435   1.937   .     S
O426   Zn433   1.933   .     S
O427   Zn434   1.946   .     S
O428   Zn435   1.942   .     S
O429   Zn432   1.930   .     S
O430   Zn433   1.943   .     S
O431   Zn434   1.938   .     S
C436   C446    1.436   .     S
C436   O513    1.270   .     A
C436   O515    1.266   .     A
C437   H488    1.079   .     S
C437   C438    1.395   .     A
C437   C463    1.406   .     A
C438   N501    1.434   .     S
C438   C1223   1.417   .     S
C439   O516    1.276   .     A
C439   O514    1.286   .     A
C439   C445    1.469   .     S
C440   C441    1.429   .     A
C440   C442    1.423   .     A
C440   C1221   1.417   1_554 S
C441   C444    1.418   .     A
C441   C464    1.425   .     A
C442   C443    1.405   .     A
C442   N495    1.435   .     S
C443   C455    1.401   .     A
C443   O509    1.385   .     S
C444   C455    1.401   .     A
C444   N500    1.439   .     S
C445   C272    1.354   1_655 S
C445   N322    1.444   1_655 S
C447   N502    1.433   .     S
C447   C456    1.396   .     A
C447   C454    1.409   .     A
C448   C451    1.461   .     S
C448   C710    1.349   .     S
C448   N759    1.439   .     S
C449   C450    1.433   .     S
C450   O511    1.276   .     A
C450   O517    1.276   .     A
C451   O512    1.266   .     A
C451   O518    1.273   .     A
C452   O504    1.277   .     A
C452   C455    1.458   .     S
C452   O506    1.276   .     A
C453   O505    1.284   .     A
C453   O507    1.288   .     A
C453   C454    1.475   .     S
C454   C458    1.405   .     A
C456   C462    1.403   .     A
C456   H467    1.084   .     S
C457   H489    1.114   .     S
C457   H490    1.112   .     S
C457   O508    1.410   .     S
C458   C461    1.421   .     A
C458   O510    1.384   .     S
C459   H477    1.113   .     S
C459   H480    1.109   .     S
C459   H479    1.111   .     S
C459   O509    1.411   .     S
C460   H485    1.113   .     S
C460   O510    1.410   .     S
C460   H486    1.114   .     S
C460   H487    1.109   .     S
C461   C462    1.420   .     A
C461   C463    1.426   .     A
C462   C1249   1.403   .     S
C463   C1247   1.413   .     S
C464   C465    1.409   .     A
C464   C1246   1.413   1_554 S
C465   H478    1.080   .     S
C465   C466    1.396   .     A
C466   O508    1.385   .     S
C466   C1245   1.403   1_554 S
H468   N496    1.046   .     S
H469   N497    1.046   .     S
H470   N497    1.046   .     S
H471   N498    1.045   .     S
H472   N759    1.046   .     S
H475   N500    1.046   .     S
H476   N500    1.046   .     S
H481   N501    1.046   .     S
H482   N501    1.046   .     S
H483   N502    1.046   .     S
H484   N502    1.046   .     S
H491   C283    1.109   1_655 S
H492   N495    1.045   .     S
H493   N495    1.045   .     S
H494   N496    1.044   .     S
N497   C272    1.437   1_655 S
N499   C710    1.437   .     S
N499   H735    1.046   .     S
N499   H734    1.046   .     S
O503   Zn520   1.951   .     S
O503   Zn521   1.931   .     S
O503   Zn519   1.963   .     S
O503   Zn522   1.933   .     S
O504   Zn520   1.921   .     S
O505   Zn522   1.934   .     S
O506   Zn521   1.931   .     S
O507   Zn519   1.919   .     S
O511   Zn519   1.937   .     S
O512   Zn522   1.937   .     S
O513   Zn520   1.933   .     S
O514   Zn521   1.946   .     S
O515   Zn522   1.942   .     S
O516   Zn519   1.930   .     S
O517   Zn520   1.943   .     S
O518   Zn521   1.938   .     S
C523   C533    1.436   .     S
C523   O600    1.270   .     A
C523   O602    1.266   .     A
C524   H575    1.079   .     S
C524   C525    1.395   .     A
C524   C550    1.406   .     A
C525   N588    1.434   .     S
C525   C1310   1.417   .     S
C526   O603    1.276   .     A
C526   O601    1.286   .     A
C526   C532    1.469   .     S
C527   C528    1.429   .     A
C527   C529    1.423   .     A
C527   C1308   1.417   1_554 S
C528   C531    1.418   .     A
C528   C551    1.425   .     A
C529   C530    1.405   .     A
C529   N582    1.435   .     S
C530   C542    1.401   .     A
C530   O596    1.385   .     S
C531   C542    1.401   .     A
C531   N587    1.439   .     S
C532   C620    1.354   .     S
C532   N670    1.444   .     S
C533   C706    1.354   1_455 S
C533   N758    1.437   1_455 S
C534   N589    1.433   .     S
C534   C543    1.396   .     A
C534   C541    1.409   .     A
C535   C538    1.461   .     S
C535   C14     1.349   1_565 S
C535   N63     1.439   1_565 S
C536   C537    1.433   .     S
C537   O598    1.276   .     A
C537   O604    1.276   .     A
C538   O599    1.266   .     A
C538   O605    1.273   .     A
C539   O591    1.277   .     A
C539   C542    1.458   .     S
C539   O593    1.276   .     A
C540   O592    1.284   .     A
C540   O594    1.288   .     A
C540   C541    1.475   .     S
C541   C545    1.405   .     A
C543   C549    1.403   .     A
C543   H554    1.084   .     S
C544   H576    1.114   .     S
C544   H577    1.112   .     S
C544   O595    1.410   .     S
C544   H752    1.109   1_455 S
C545   C548    1.421   .     A
C545   O597    1.384   .     S
C546   H564    1.113   .     S
C546   H567    1.109   .     S
C546   H566    1.111   .     S
C546   O596    1.411   .     S
C547   H572    1.113   .     S
C547   O597    1.410   .     S
C547   H573    1.114   .     S
C547   H574    1.109   .     S
C548   C549    1.420   .     A
C548   C550    1.426   .     A
C549   C1336   1.403   .     S
C550   C1334   1.413   .     S
C551   C552    1.409   .     A
C551   C1333   1.413   1_554 S
C552   H565    1.080   .     S
C552   C553    1.396   .     A
C553   O595    1.385   .     S
C553   C1332   1.403   1_554 S
H555   N583    1.046   .     S
H556   N584    1.046   .     S
H557   N584    1.046   .     S
H558   N585    1.045   .     S
H559   N63     1.046   1_565 S
H562   N587    1.046   .     S
H563   N587    1.046   .     S
H568   N588    1.046   .     S
H569   N588    1.046   .     S
H570   N589    1.046   .     S
H571   N589    1.046   .     S
H578   C631    1.109   .     S
H579   N582    1.045   .     S
H580   N582    1.045   .     S
H581   N583    1.044   .     S
N583   C706    1.444   1_455 S
N584   C620    1.437   .     S
N586   C14     1.437   1_565 S
N586   H39     1.046   1_565 S
N586   H38     1.046   1_565 S
O590   Zn607   1.951   .     S
O590   Zn608   1.931   .     S
O590   Zn606   1.963   .     S
O590   Zn609   1.933   .     S
O591   Zn607   1.921   .     S
O592   Zn609   1.934   .     S
O593   Zn608   1.931   .     S
O594   Zn606   1.919   .     S
O598   Zn606   1.937   .     S
O599   Zn609   1.937   .     S
O600   Zn607   1.933   .     S
O601   Zn608   1.946   .     S
O602   Zn609   1.942   .     S
O603   Zn606   1.930   .     S
O604   Zn607   1.943   .     S
O605   Zn608   1.938   .     S
C610   C620    1.436   .     S
C610   O687    1.270   .     A
C610   O689    1.266   .     A
C611   H662    1.079   .     S
C611   C612    1.395   .     A
C611   C637    1.406   .     A
C612   N675    1.434   .     S
C612   C1397   1.417   .     S
C613   O690    1.276   .     A
C613   O688    1.286   .     A
C613   C619    1.469   .     S
C614   C615    1.429   .     A
C614   C616    1.423   .     A
C614   C1395   1.417   1_554 S
C615   C618    1.418   .     A
C615   C638    1.425   .     A
C616   C617    1.405   .     A
C616   N669    1.435   .     S
C617   C629    1.401   .     A
C617   O683    1.385   .     S
C618   C629    1.401   .     A
C618   N674    1.439   .     S
C619   C707    1.354   .     S
C619   N757    1.444   .     S
C621   N676    1.433   .     S
C621   C630    1.396   .     A
C621   C628    1.409   .     A
C622   C625    1.461   .     S
C622   C101    1.349   1_565 S
C622   N150    1.439   1_565 S
C623   C624    1.433   .     S
C624   O685    1.276   .     A
C624   O691    1.276   .     A
C625   O686    1.266   .     A
C625   O692    1.273   .     A
C626   O678    1.277   .     A
C626   C629    1.458   .     S
C626   O680    1.276   .     A
C627   O679    1.284   .     A
C627   O681    1.288   .     A
C627   C628    1.475   .     S
C628   C632    1.405   .     A
C630   C636    1.403   .     A
C630   H641    1.084   .     S
C631   H663    1.114   .     S
C631   H664    1.112   .     S
C631   O682    1.410   .     S
C632   C635    1.421   .     A
C632   O684    1.384   .     S
C633   H651    1.113   .     S
C633   H654    1.109   .     S
C633   H653    1.111   .     S
C633   O683    1.411   .     S
C634   H659    1.113   .     S
C634   O684    1.410   .     S
C634   H660    1.114   .     S
C634   H661    1.109   .     S
C635   C636    1.420   .     A
C635   C637    1.426   .     A
C636   C1423   1.403   .     S
C637   C1421   1.413   .     S
C638   C639    1.409   .     A
C638   C1420   1.413   1_554 S
C639   H652    1.080   .     S
C639   C640    1.396   .     A
C640   O682    1.385   .     S
C640   C1419   1.403   1_554 S
H642   N670    1.046   .     S
H643   N671    1.046   .     S
H644   N671    1.046   .     S
H645   N672    1.045   .     S
H646   N150    1.046   1_565 S
H649   N674    1.046   .     S
H650   N674    1.046   .     S
H655   N675    1.046   .     S
H656   N675    1.046   .     S
H657   N676    1.046   .     S
H658   N676    1.046   .     S
H665   C718    1.109   .     S
H666   N669    1.045   .     S
H667   N669    1.045   .     S
H668   N670    1.044   .     S
N671   C707    1.437   .     S
N673   C101    1.437   1_565 S
N673   H126    1.046   1_565 S
N673   H125    1.046   1_565 S
O677   Zn694   1.951   .     S
O677   Zn695   1.931   .     S
O677   Zn693   1.963   .     S
O677   Zn696   1.933   .     S
O678   Zn694   1.921   .     S
O679   Zn696   1.934   .     S
O680   Zn695   1.931   .     S
O681   Zn693   1.919   .     S
O685   Zn693   1.937   .     S
O686   Zn696   1.937   .     S
O687   Zn694   1.933   .     S
O688   Zn695   1.946   .     S
O689   Zn696   1.942   .     S
O690   Zn693   1.930   .     S
O691   Zn694   1.943   .     S
O692   Zn695   1.938   .     S
C697   C707    1.436   .     S
C697   O774    1.270   .     A
C697   O776    1.266   .     A
C698   H749    1.079   .     S
C698   C699    1.395   .     A
C698   C724    1.406   .     A
C699   N762    1.434   .     S
C699   C1484   1.417   .     S
C700   O777    1.276   .     A
C700   O775    1.286   .     A
C700   C706    1.469   .     S
C701   C702    1.429   .     A
C701   C703    1.423   .     A
C701   C1482   1.417   1_554 S
C702   C705    1.418   .     A
C702   C725    1.425   .     A
C703   C704    1.405   .     A
C703   N756    1.435   .     S
C704   C716    1.401   .     A
C704   O770    1.385   .     S
C705   C716    1.401   .     A
C705   N761    1.439   .     S
C706   C533    1.354   1_655 S
C706   N583    1.444   1_655 S
C708   N763    1.433   .     S
C708   C717    1.396   .     A
C708   C715    1.409   .     A
C709   C712    1.461   .     S
C709   C188    1.349   1_565 S
C709   N237    1.439   1_565 S
C710   C711    1.433   .     S
C711   O772    1.276   .     A
C711   O778    1.276   .     A
C712   O773    1.266   .     A
C712   O779    1.273   .     A
C713   O765    1.277   .     A
C713   C716    1.458   .     S
C713   O767    1.276   .     A
C714   O766    1.284   .     A
C714   O768    1.288   .     A
C714   C715    1.475   .     S
C715   C719    1.405   .     A
C717   C723    1.403   .     A
C717   H728    1.084   .     S
C718   H750    1.114   .     S
C718   H751    1.112   .     S
C718   O769    1.410   .     S
C719   C722    1.421   .     A
C719   O771    1.384   .     S
C720   H738    1.113   .     S
C720   H741    1.109   .     S
C720   H740    1.111   .     S
C720   O770    1.411   .     S
C721   H746    1.113   .     S
C721   O771    1.410   .     S
C721   H747    1.114   .     S
C721   H748    1.109   .     S
C722   C723    1.420   .     A
C722   C724    1.426   .     A
C723   C1510   1.403   .     S
C724   C1508   1.413   .     S
C725   C726    1.409   .     A
C725   C1507   1.413   1_554 S
C726   H739    1.080   .     S
C726   C727    1.396   .     A
C727   O769    1.385   .     S
C727   C1506   1.403   1_554 S
H729   N757    1.046   .     S
H730   N758    1.046   .     S
H731   N758    1.046   .     S
H732   N759    1.045   .     S
H733   N237    1.046   1_565 S
H736   N761    1.046   .     S
H737   N761    1.046   .     S
H742   N762    1.046   .     S
H743   N762    1.046   .     S
H744   N763    1.046   .     S
H745   N763    1.046   .     S
H752   C544    1.109   1_655 S
H753   N756    1.045   .     S
H754   N756    1.045   .     S
H755   N757    1.044   .     S
N758   C533    1.437   1_655 S
N760   C188    1.437   1_565 S
N760   H213    1.046   1_565 S
N760   H212    1.046   1_565 S
O764   Zn781   1.951   .     S
O764   Zn782   1.931   .     S
O764   Zn780   1.963   .     S
O764   Zn783   1.933   .     S
O765   Zn781   1.921   .     S
O766   Zn783   1.934   .     S
O767   Zn782   1.931   .     S
O768   Zn780   1.919   .     S
O772   Zn780   1.937   .     S
O773   Zn783   1.937   .     S
O774   Zn781   1.933   .     S
O775   Zn782   1.946   .     S
O776   Zn783   1.942   .     S
O777   Zn780   1.930   .     S
O778   Zn781   1.943   .     S
O779   Zn782   1.938   .     S
C784   C794    1.436   .     S
C784   O861    1.270   .     A
C784   O863    1.266   .     A
C785   H836    1.079   .     S
C785   C786    1.395   .     A
C785   C811    1.406   .     A
C786   N849    1.434   .     S
C786   C5      1.417   1_556 S
C787   O864    1.276   .     A
C787   O862    1.286   .     A
C787   C793    1.469   .     S
C788   C789    1.429   .     A
C788   C790    1.423   .     A
C789   C792    1.418   .     A
C789   C812    1.425   .     A
C790   C791    1.405   .     A
C790   N843    1.435   .     S
C791   C803    1.401   .     A
C791   O857    1.385   .     S
C792   C803    1.401   .     A
C792   N848    1.439   .     S
C793   C881    1.354   .     S
C793   N931    1.444   .     S
C794   C967    1.354   1_455 S
C794   N1019   1.437   1_455 S
C795   N850    1.433   .     S
C795   C804    1.396   .     A
C795   C802    1.409   .     A
C796   C799    1.461   .     S
C796   C1058   1.349   .     S
C796   N1107   1.439   .     S
C797   C798    1.433   .     S
C797   C1318   1.349   1_545 S
C797   N1369   1.437   1_545 S
C798   O859    1.276   .     A
C798   O865    1.276   .     A
C799   O860    1.266   .     A
C799   O866    1.273   .     A
C800   O852    1.277   .     A
C800   C803    1.458   .     S
C800   O854    1.276   .     A
C801   O853    1.284   .     A
C801   O855    1.288   .     A
C801   C802    1.475   .     S
C802   C806    1.405   .     A
C804   C810    1.403   .     A
C804   H815    1.084   .     S
C805   H837    1.114   .     S
C805   H838    1.112   .     S
C805   O856    1.410   .     S
C805   H1013   1.109   1_455 S
C806   C809    1.421   .     A
C806   O858    1.384   .     S
C807   H825    1.113   .     S
C807   H828    1.109   .     S
C807   H827    1.111   .     S
C807   O857    1.411   .     S
C808   H833    1.113   .     S
C808   O858    1.410   .     S
C808   H834    1.114   .     S
C808   H835    1.109   .     S
C809   C810    1.420   .     A
C809   C811    1.426   .     A
C810   C31     1.403   1_556 S
C811   C29     1.413   1_556 S
C812   C813    1.409   .     A
C813   H826    1.080   .     S
C813   C814    1.396   .     A
C814   O856    1.385   .     S
H816   N844    1.046   .     S
H817   N845    1.046   .     S
H818   N845    1.046   .     S
H819   N846    1.045   .     S
H820   N1107   1.046   .     S
H821   N1369   1.046   1_545 S
H822   N1369   1.046   1_545 S
H823   N848    1.046   .     S
H824   N848    1.046   .     S
H829   N849    1.046   .     S
H830   N849    1.046   .     S
H831   N850    1.046   .     S
H832   N850    1.046   .     S
H839   C892    1.109   .     S
H840   N843    1.045   .     S
H841   N843    1.045   .     S
H842   N844    1.044   .     S
N844   C967    1.444   1_455 S
N845   C881    1.437   .     S
N846   C1318   1.439   1_545 S
N846   H1342   1.046   1_545 S
N847   C1058   1.437   .     S
N847   H1083   1.046   .     S
N847   H1082   1.046   .     S
O851   Zn868   1.951   .     S
O851   Zn869   1.931   .     S
O851   Zn867   1.963   .     S
O851   Zn870   1.933   .     S
O852   Zn868   1.921   .     S
O853   Zn870   1.934   .     S
O854   Zn869   1.931   .     S
O855   Zn867   1.919   .     S
O859   Zn867   1.937   .     S
O860   Zn870   1.937   .     S
O861   Zn868   1.933   .     S
O862   Zn869   1.946   .     S
O863   Zn870   1.942   .     S
O864   Zn867   1.930   .     S
O865   Zn868   1.943   .     S
O866   Zn869   1.938   .     S
C871   C881    1.436   .     S
C871   O948    1.270   .     A
C871   O950    1.266   .     A
C872   H923    1.079   .     S
C872   C873    1.395   .     A
C872   C898    1.406   .     A
C873   N936    1.434   .     S
C873   C92     1.417   1_556 S
C874   O951    1.276   .     A
C874   O949    1.286   .     A
C874   C880    1.469   .     S
C875   C876    1.429   .     A
C875   C877    1.423   .     A
C876   C879    1.418   .     A
C876   C899    1.425   .     A
C877   C878    1.405   .     A
C877   N930    1.435   .     S
C878   C890    1.401   .     A
C878   O944    1.385   .     S
C879   C890    1.401   .     A
C879   N935    1.439   .     S
C880   C968    1.354   .     S
C880   N1018   1.444   .     S
C882   N937    1.433   .     S
C882   C891    1.396   .     A
C882   C889    1.409   .     A
C883   C886    1.461   .     S
C883   C1145   1.349   .     S
C883   N1194   1.439   .     S
C884   C885    1.433   .     S
C884   C1405   1.349   1_545 S
C884   N1456   1.437   1_545 S
C885   O946    1.276   .     A
C885   O952    1.276   .     A
C886   O947    1.266   .     A
C886   O953    1.273   .     A
C887   O939    1.277   .     A
C887   C890    1.458   .     S
C887   O941    1.276   .     A
C888   O940    1.284   .     A
C888   O942    1.288   .     A
C888   C889    1.475   .     S
C889   C893    1.405   .     A
C891   C897    1.403   .     A
C891   H902    1.084   .     S
C892   H924    1.114   .     S
C892   H925    1.112   .     S
C892   O943    1.410   .     S
C893   C896    1.421   .     A
C893   O945    1.384   .     S
C894   H912    1.113   .     S
C894   H915    1.109   .     S
C894   H914    1.111   .     S
C894   O944    1.411   .     S
C895   H920    1.113   .     S
C895   O945    1.410   .     S
C895   H921    1.114   .     S
C895   H922    1.109   .     S
C896   C897    1.420   .     A
C896   C898    1.426   .     A
C897   C118    1.403   1_556 S
C898   C116    1.413   1_556 S
C899   C900    1.409   .     A
C900   H913    1.080   .     S
C900   C901    1.396   .     A
C901   O943    1.385   .     S
H903   N931    1.046   .     S
H904   N932    1.046   .     S
H905   N932    1.046   .     S
H906   N933    1.045   .     S
H907   N1194   1.046   .     S
H908   N1456   1.046   1_545 S
H909   N1456   1.046   1_545 S
H910   N935    1.046   .     S
H911   N935    1.046   .     S
H916   N936    1.046   .     S
H917   N936    1.046   .     S
H918   N937    1.046   .     S
H919   N937    1.046   .     S
H926   C979    1.109   .     S
H927   N930    1.045   .     S
H928   N930    1.045   .     S
H929   N931    1.044   .     S
N932   C968    1.437   .     S
N933   C1405   1.439   1_545 S
N933   H1429   1.046   1_545 S
N934   C1145   1.437   .     S
N934   H1170   1.046   .     S
N934   H1169   1.046   .     S
O938   Zn955   1.951   .     S
O938   Zn956   1.931   .     S
O938   Zn954   1.963   .     S
O938   Zn957   1.933   .     S
O939   Zn955   1.921   .     S
O940   Zn957   1.934   .     S
O941   Zn956   1.931   .     S
O942   Zn954   1.919   .     S
O946   Zn954   1.937   .     S
O947   Zn957   1.937   .     S
O948   Zn955   1.933   .     S
O949   Zn956   1.946   .     S
O950   Zn957   1.942   .     S
O951   Zn954   1.930   .     S
O952   Zn955   1.943   .     S
O953   Zn956   1.938   .     S
C958   C968    1.436   .     S
C958   O1035   1.270   .     A
C958   O1037   1.266   .     A
C959   H1010   1.079   .     S
C959   C960    1.395   .     A
C959   C985    1.406   .     A
C960   N1023   1.434   .     S
C960   C179    1.417   1_556 S
C961   O1038   1.276   .     A
C961   O1036   1.286   .     A
C961   C967    1.469   .     S
C962   C963    1.429   .     A
C962   C964    1.423   .     A
C963   C966    1.418   .     A
C963   C986    1.425   .     A
C964   C965    1.405   .     A
C964   N1017   1.435   .     S
C965   C977    1.401   .     A
C965   O1031   1.385   .     S
C966   C977    1.401   .     A
C966   N1022   1.439   .     S
C967   C794    1.354   1_655 S
C967   N844    1.444   1_655 S
C969   N1024   1.433   .     S
C969   C978    1.396   .     A
C969   C976    1.409   .     A
C970   C973    1.461   .     S
C970   C1232   1.349   .     S
C970   N1281   1.439   .     S
C971   C972    1.433   .     S
C971   C1492   1.349   1_545 S
C971   N1543   1.437   1_545 S
C972   O1033   1.276   .     A
C972   O1039   1.276   .     A
C973   O1034   1.266   .     A
C973   O1040   1.273   .     A
C974   O1026   1.277   .     A
C974   C977    1.458   .     S
C974   O1028   1.276   .     A
C975   O1027   1.284   .     A
C975   O1029   1.288   .     A
C975   C976    1.475   .     S
C976   C980    1.405   .     A
C978   C984    1.403   .     A
C978   H989    1.084   .     S
C979   H1011   1.114   .     S
C979   H1012   1.112   .     S
C979   O1030   1.410   .     S
C980   C983    1.421   .     A
C980   O1032   1.384   .     S
C981   H999    1.113   .     S
C981   H1002   1.109   .     S
C981   H1001   1.111   .     S
C981   O1031   1.411   .     S
C982   H1007   1.113   .     S
C982   O1032   1.410   .     S
C982   H1008   1.114   .     S
C982   H1009   1.109   .     S
C983   C984    1.420   .     A
C983   C985    1.426   .     A
C984   C205    1.403   1_556 S
C985   C203    1.413   1_556 S
C986   C987    1.409   .     A
C987   H1000   1.080   .     S
C987   C988    1.396   .     A
C988   O1030   1.385   .     S
H990   N1018   1.046   .     S
H991   N1019   1.046   .     S
H992   N1019   1.046   .     S
H993   N1020   1.045   .     S
H994   N1281   1.046   .     S
H995   N1543   1.046   1_545 S
H996   N1543   1.046   1_545 S
H997   N1022   1.046   .     S
H998   N1022   1.046   .     S
H1003  N1023   1.046   .     S
H1004  N1023   1.046   .     S
H1005  N1024   1.046   .     S
H1006  N1024   1.046   .     S
H1013  C805    1.109   1_655 S
H1014  N1017   1.045   .     S
H1015  N1017   1.045   .     S
H1016  N1018   1.044   .     S
N1019  C794    1.437   1_655 S
N1020  C1492   1.439   1_545 S
N1020  H1516   1.046   1_545 S
N1021  C1232   1.437   .     S
N1021  H1257   1.046   .     S
N1021  H1256   1.046   .     S
O1025  Zn1042  1.951   .     S
O1025  Zn1043  1.931   .     S
O1025  Zn1041  1.963   .     S
O1025  Zn1044  1.933   .     S
O1026  Zn1042  1.921   .     S
O1027  Zn1044  1.934   .     S
O1028  Zn1043  1.931   .     S
O1029  Zn1041  1.919   .     S
O1033  Zn1041  1.937   .     S
O1034  Zn1044  1.937   .     S
O1035  Zn1042  1.933   .     S
O1036  Zn1043  1.946   .     S
O1037  Zn1044  1.942   .     S
O1038  Zn1041  1.930   .     S
O1039  Zn1042  1.943   .     S
O1040  Zn1043  1.938   .     S
C1045  C1055   1.436   .     S
C1045  O1122   1.270   .     A
C1045  O1124   1.266   .     A
C1046  H1097   1.079   .     S
C1046  C1047   1.395   .     A
C1046  C1072   1.406   .     A
C1047  N1110   1.434   .     S
C1047  C266    1.417   1_556 S
C1048  O1125   1.276   .     A
C1048  O1123   1.286   .     A
C1048  C1054   1.469   .     S
C1049  C1050   1.429   .     A
C1049  C1051   1.423   .     A
C1050  C1053   1.418   .     A
C1050  C1073   1.425   .     A
C1051  C1052   1.405   .     A
C1051  N1104   1.435   .     S
C1052  C1064   1.401   .     A
C1052  O1118   1.385   .     S
C1053  C1064   1.401   .     A
C1053  N1109   1.439   .     S
C1054  C1142   1.354   .     S
C1054  N1192   1.444   .     S
C1055  C1228   1.354   1_455 S
C1055  N1280   1.437   1_455 S
C1056  N1111   1.433   .     S
C1056  C1065   1.396   .     A
C1056  C1063   1.409   .     A
C1057  C1060   1.461   .     S
C1057  C1319   1.349   .     S
C1057  N1368   1.439   .     S
C1058  C1059   1.433   .     S
C1059  O1120   1.276   .     A
C1059  O1126   1.276   .     A
C1060  O1121   1.266   .     A
C1060  O1127   1.273   .     A
C1061  O1113   1.277   .     A
C1061  C1064   1.458   .     S
C1061  O1115   1.276   .     A
C1062  O1114   1.284   .     A
C1062  O1116   1.288   .     A
C1062  C1063   1.475   .     S
C1063  C1067   1.405   .     A
C1065  C1071   1.403   .     A
C1065  H1076   1.084   .     S
C1066  H1098   1.114   .     S
C1066  H1099   1.112   .     S
C1066  O1117   1.410   .     S
C1066  H1274   1.109   1_455 S
C1067  C1070   1.421   .     A
C1067  O1119   1.384   .     S
C1068  H1086   1.113   .     S
C1068  H1089   1.109   .     S
C1068  H1088   1.111   .     S
C1068  O1118   1.411   .     S
C1069  H1094   1.113   .     S
C1069  O1119   1.410   .     S
C1069  H1095   1.114   .     S
C1069  H1096   1.109   .     S
C1070  C1071   1.420   .     A
C1070  C1072   1.426   .     A
C1071  C292    1.403   1_556 S
C1072  C290    1.413   1_556 S
C1073  C1074   1.409   .     A
C1074  H1087   1.080   .     S
C1074  C1075   1.396   .     A
C1075  O1117   1.385   .     S
H1077  N1105   1.046   .     S
H1078  N1106   1.046   .     S
H1079  N1106   1.046   .     S
H1080  N1107   1.045   .     S
H1081  N1368   1.046   .     S
H1084  N1109   1.046   .     S
H1085  N1109   1.046   .     S
H1090  N1110   1.046   .     S
H1091  N1110   1.046   .     S
H1092  N1111   1.046   .     S
H1093  N1111   1.046   .     S
H1100  C1153   1.109   .     S
H1101  N1104   1.045   .     S
H1102  N1104   1.045   .     S
H1103  N1105   1.044   .     S
N1105  C1228   1.444   1_455 S
N1106  C1142   1.437   .     S
N1108  C1319   1.437   .     S
N1108  H1344   1.046   .     S
N1108  H1343   1.046   .     S
O1112  Zn1129  1.951   .     S
O1112  Zn1130  1.931   .     S
O1112  Zn1128  1.963   .     S
O1112  Zn1131  1.933   .     S
O1113  Zn1129  1.921   .     S
O1114  Zn1131  1.934   .     S
O1115  Zn1130  1.931   .     S
O1116  Zn1128  1.919   .     S
O1120  Zn1128  1.937   .     S
O1121  Zn1131  1.937   .     S
O1122  Zn1129  1.933   .     S
O1123  Zn1130  1.946   .     S
O1124  Zn1131  1.942   .     S
O1125  Zn1128  1.930   .     S
O1126  Zn1129  1.943   .     S
O1127  Zn1130  1.938   .     S
C1132  C1142   1.436   .     S
C1132  O1209   1.270   .     A
C1132  O1211   1.266   .     A
C1133  H1184   1.079   .     S
C1133  C1134   1.395   .     A
C1133  C1159   1.406   .     A
C1134  N1197   1.434   .     S
C1134  C353    1.417   1_556 S
C1135  O1212   1.276   .     A
C1135  O1210   1.286   .     A
C1135  C1141   1.469   .     S
C1136  C1137   1.429   .     A
C1136  C1138   1.423   .     A
C1137  C1140   1.418   .     A
C1137  C1160   1.425   .     A
C1138  C1139   1.405   .     A
C1138  N1191   1.435   .     S
C1139  C1151   1.401   .     A
C1139  O1205   1.385   .     S
C1140  C1151   1.401   .     A
C1140  N1196   1.439   .     S
C1141  C1229   1.354   .     S
C1141  N1279   1.444   .     S
C1143  N1198   1.433   .     S
C1143  C1152   1.396   .     A
C1143  C1150   1.409   .     A
C1144  C1147   1.461   .     S
C1144  C1406   1.349   .     S
C1144  N1455   1.439   .     S
C1145  C1146   1.433   .     S
C1146  O1207   1.276   .     A
C1146  O1213   1.276   .     A
C1147  O1208   1.266   .     A
C1147  O1214   1.273   .     A
C1148  O1200   1.277   .     A
C1148  C1151   1.458   .     S
C1148  O1202   1.276   .     A
C1149  O1201   1.284   .     A
C1149  O1203   1.288   .     A
C1149  C1150   1.475   .     S
C1150  C1154   1.405   .     A
C1152  C1158   1.403   .     A
C1152  H1163   1.084   .     S
C1153  H1185   1.114   .     S
C1153  H1186   1.112   .     S
C1153  O1204   1.410   .     S
C1154  C1157   1.421   .     A
C1154  O1206   1.384   .     S
C1155  H1173   1.113   .     S
C1155  H1176   1.109   .     S
C1155  H1175   1.111   .     S
C1155  O1205   1.411   .     S
C1156  H1181   1.113   .     S
C1156  O1206   1.410   .     S
C1156  H1182   1.114   .     S
C1156  H1183   1.109   .     S
C1157  C1158   1.420   .     A
C1157  C1159   1.426   .     A
C1158  C379    1.403   1_556 S
C1159  C377    1.413   1_556 S
C1160  C1161   1.409   .     A
C1161  H1174   1.080   .     S
C1161  C1162   1.396   .     A
C1162  O1204   1.385   .     S
H1164  N1192   1.046   .     S
H1165  N1193   1.046   .     S
H1166  N1193   1.046   .     S
H1167  N1194   1.045   .     S
H1168  N1455   1.046   .     S
H1171  N1196   1.046   .     S
H1172  N1196   1.046   .     S
H1177  N1197   1.046   .     S
H1178  N1197   1.046   .     S
H1179  N1198   1.046   .     S
H1180  N1198   1.046   .     S
H1187  C1240   1.109   .     S
H1188  N1191   1.045   .     S
H1189  N1191   1.045   .     S
H1190  N1192   1.044   .     S
N1193  C1229   1.437   .     S
N1195  C1406   1.437   .     S
N1195  H1431   1.046   .     S
N1195  H1430   1.046   .     S
O1199  Zn1216  1.951   .     S
O1199  Zn1217  1.931   .     S
O1199  Zn1215  1.963   .     S
O1199  Zn1218  1.933   .     S
O1200  Zn1216  1.921   .     S
O1201  Zn1218  1.934   .     S
O1202  Zn1217  1.931   .     S
O1203  Zn1215  1.919   .     S
O1207  Zn1215  1.937   .     S
O1208  Zn1218  1.937   .     S
O1209  Zn1216  1.933   .     S
O1210  Zn1217  1.946   .     S
O1211  Zn1218  1.942   .     S
O1212  Zn1215  1.930   .     S
O1213  Zn1216  1.943   .     S
O1214  Zn1217  1.938   .     S
C1219  C1229   1.436   .     S
C1219  O1296   1.270   .     A
C1219  O1298   1.266   .     A
C1220  H1271   1.079   .     S
C1220  C1221   1.395   .     A
C1220  C1246   1.406   .     A
C1221  N1284   1.434   .     S
C1221  C440    1.417   1_556 S
C1222  O1299   1.276   .     A
C1222  O1297   1.286   .     A
C1222  C1228   1.469   .     S
C1223  C1224   1.429   .     A
C1223  C1225   1.423   .     A
C1224  C1227   1.418   .     A
C1224  C1247   1.425   .     A
C1225  C1226   1.405   .     A
C1225  N1278   1.435   .     S
C1226  C1238   1.401   .     A
C1226  O1292   1.385   .     S
C1227  C1238   1.401   .     A
C1227  N1283   1.439   .     S
C1228  C1055   1.354   1_655 S
C1228  N1105   1.444   1_655 S
C1230  N1285   1.433   .     S
C1230  C1239   1.396   .     A
C1230  C1237   1.409   .     A
C1231  C1234   1.461   .     S
C1231  C1493   1.349   .     S
C1231  N1542   1.439   .     S
C1232  C1233   1.433   .     S
C1233  O1294   1.276   .     A
C1233  O1300   1.276   .     A
C1234  O1295   1.266   .     A
C1234  O1301   1.273   .     A
C1235  O1287   1.277   .     A
C1235  C1238   1.458   .     S
C1235  O1289   1.276   .     A
C1236  O1288   1.284   .     A
C1236  O1290   1.288   .     A
C1236  C1237   1.475   .     S
C1237  C1241   1.405   .     A
C1239  C1245   1.403   .     A
C1239  H1250   1.084   .     S
C1240  H1272   1.114   .     S
C1240  H1273   1.112   .     S
C1240  O1291   1.410   .     S
C1241  C1244   1.421   .     A
C1241  O1293   1.384   .     S
C1242  H1260   1.113   .     S
C1242  H1263   1.109   .     S
C1242  H1262   1.111   .     S
C1242  O1292   1.411   .     S
C1243  H1268   1.113   .     S
C1243  O1293   1.410   .     S
C1243  H1269   1.114   .     S
C1243  H1270   1.109   .     S
C1244  C1245   1.420   .     A
C1244  C1246   1.426   .     A
C1245  C466    1.403   1_556 S
C1246  C464    1.413   1_556 S
C1247  C1248   1.409   .     A
C1248  H1261   1.080   .     S
C1248  C1249   1.396   .     A
C1249  O1291   1.385   .     S
H1251  N1279   1.046   .     S
H1252  N1280   1.046   .     S
H1253  N1280   1.046   .     S
H1254  N1281   1.045   .     S
H1255  N1542   1.046   .     S
H1258  N1283   1.046   .     S
H1259  N1283   1.046   .     S
H1264  N1284   1.046   .     S
H1265  N1284   1.046   .     S
H1266  N1285   1.046   .     S
H1267  N1285   1.046   .     S
H1274  C1066   1.109   1_655 S
H1275  N1278   1.045   .     S
H1276  N1278   1.045   .     S
H1277  N1279   1.044   .     S
N1280  C1055   1.437   1_655 S
N1282  C1493   1.437   .     S
N1282  H1518   1.046   .     S
N1282  H1517   1.046   .     S
O1286  Zn1303  1.951   .     S
O1286  Zn1304  1.931   .     S
O1286  Zn1302  1.963   .     S
O1286  Zn1305  1.933   .     S
O1287  Zn1303  1.921   .     S
O1288  Zn1305  1.934   .     S
O1289  Zn1304  1.931   .     S
O1290  Zn1302  1.919   .     S
O1294  Zn1302  1.937   .     S
O1295  Zn1305  1.937   .     S
O1296  Zn1303  1.933   .     S
O1297  Zn1304  1.946   .     S
O1298  Zn1305  1.942   .     S
O1299  Zn1302  1.930   .     S
O1300  Zn1303  1.943   .     S
O1301  Zn1304  1.938   .     S
C1306  C1316   1.436   .     S
C1306  O1383   1.270   .     A
C1306  O1385   1.266   .     A
C1307  H1358   1.079   .     S
C1307  C1308   1.395   .     A
C1307  C1333   1.406   .     A
C1308  N1371   1.434   .     S
C1308  C527    1.417   1_556 S
C1309  O1386   1.276   .     A
C1309  O1384   1.286   .     A
C1309  C1315   1.469   .     S
C1310  C1311   1.429   .     A
C1310  C1312   1.423   .     A
C1311  C1314   1.418   .     A
C1311  C1334   1.425   .     A
C1312  C1313   1.405   .     A
C1312  N1365   1.435   .     S
C1313  C1325   1.401   .     A
C1313  O1379   1.385   .     S
C1314  C1325   1.401   .     A
C1314  N1370   1.439   .     S
C1315  C1403   1.354   .     S
C1315  N1453   1.444   .     S
C1316  C1489   1.354   1_455 S
C1316  N1541   1.437   1_455 S
C1317  N1372   1.433   .     S
C1317  C1326   1.396   .     A
C1317  C1324   1.409   .     A
C1318  C1321   1.461   .     S
C1318  C797    1.349   1_565 S
C1318  N846    1.439   1_565 S
C1319  C1320   1.433   .     S
C1320  O1381   1.276   .     A
C1320  O1387   1.276   .     A
C1321  O1382   1.266   .     A
C1321  O1388   1.273   .     A
C1322  O1374   1.277   .     A
C1322  C1325   1.458   .     S
C1322  O1376   1.276   .     A
C1323  O1375   1.284   .     A
C1323  O1377   1.288   .     A
C1323  C1324   1.475   .     S
C1324  C1328   1.405   .     A
C1326  C1332   1.403   .     A
C1326  H1337   1.084   .     S
C1327  H1359   1.114   .     S
C1327  H1360   1.112   .     S
C1327  O1378   1.410   .     S
C1327  H1535   1.109   1_455 S
C1328  C1331   1.421   .     A
C1328  O1380   1.384   .     S
C1329  H1347   1.113   .     S
C1329  H1350   1.109   .     S
C1329  H1349   1.111   .     S
C1329  O1379   1.411   .     S
C1330  H1355   1.113   .     S
C1330  O1380   1.410   .     S
C1330  H1356   1.114   .     S
C1330  H1357   1.109   .     S
C1331  C1332   1.420   .     A
C1331  C1333   1.426   .     A
C1332  C553    1.403   1_556 S
C1333  C551    1.413   1_556 S
C1334  C1335   1.409   .     A
C1335  H1348   1.080   .     S
C1335  C1336   1.396   .     A
C1336  O1378   1.385   .     S
H1338  N1366   1.046   .     S
H1339  N1367   1.046   .     S
H1340  N1367   1.046   .     S
H1341  N1368   1.045   .     S
H1342  N846    1.046   1_565 S
H1345  N1370   1.046   .     S
H1346  N1370   1.046   .     S
H1351  N1371   1.046   .     S
H1352  N1371   1.046   .     S
H1353  N1372   1.046   .     S
H1354  N1372   1.046   .     S
H1361  C1414   1.109   .     S
H1362  N1365   1.045   .     S
H1363  N1365   1.045   .     S
H1364  N1366   1.044   .     S
N1366  C1489   1.444   1_455 S
N1367  C1403   1.437   .     S
N1369  C797    1.437   1_565 S
N1369  H822    1.046   1_565 S
N1369  H821    1.046   1_565 S
O1373  Zn1390  1.951   .     S
O1373  Zn1391  1.931   .     S
O1373  Zn1389  1.963   .     S
O1373  Zn1392  1.933   .     S
O1374  Zn1390  1.921   .     S
O1375  Zn1392  1.934   .     S
O1376  Zn1391  1.931   .     S
O1377  Zn1389  1.919   .     S
O1381  Zn1389  1.937   .     S
O1382  Zn1392  1.937   .     S
O1383  Zn1390  1.933   .     S
O1384  Zn1391  1.946   .     S
O1385  Zn1392  1.942   .     S
O1386  Zn1389  1.930   .     S
O1387  Zn1390  1.943   .     S
O1388  Zn1391  1.938   .     S
C1393  C1403   1.436   .     S
C1393  O1470   1.270   .     A
C1393  O1472   1.266   .     A
C1394  H1445   1.079   .     S
C1394  C1395   1.395   .     A
C1394  C1420   1.406   .     A
C1395  N1458   1.434   .     S
C1395  C614    1.417   1_556 S
C1396  O1473   1.276   .     A
C1396  O1471   1.286   .     A
C1396  C1402   1.469   .     S
C1397  C1398   1.429   .     A
C1397  C1399   1.423   .     A
C1398  C1401   1.418   .     A
C1398  C1421   1.425   .     A
C1399  C1400   1.405   .     A
C1399  N1452   1.435   .     S
C1400  C1412   1.401   .     A
C1400  O1466   1.385   .     S
C1401  C1412   1.401   .     A
C1401  N1457   1.439   .     S
C1402  C1490   1.354   .     S
C1402  N1540   1.444   .     S
C1404  N1459   1.433   .     S
C1404  C1413   1.396   .     A
C1404  C1411   1.409   .     A
C1405  C1408   1.461   .     S
C1405  C884    1.349   1_565 S
C1405  N933    1.439   1_565 S
C1406  C1407   1.433   .     S
C1407  O1468   1.276   .     A
C1407  O1474   1.276   .     A
C1408  O1469   1.266   .     A
C1408  O1475   1.273   .     A
C1409  O1461   1.277   .     A
C1409  C1412   1.458   .     S
C1409  O1463   1.276   .     A
C1410  O1462   1.284   .     A
C1410  O1464   1.288   .     A
C1410  C1411   1.475   .     S
C1411  C1415   1.405   .     A
C1413  C1419   1.403   .     A
C1413  H1424   1.084   .     S
C1414  H1446   1.114   .     S
C1414  H1447   1.112   .     S
C1414  O1465   1.410   .     S
C1415  C1418   1.421   .     A
C1415  O1467   1.384   .     S
C1416  H1434   1.113   .     S
C1416  H1437   1.109   .     S
C1416  H1436   1.111   .     S
C1416  O1466   1.411   .     S
C1417  H1442   1.113   .     S
C1417  O1467   1.410   .     S
C1417  H1443   1.114   .     S
C1417  H1444   1.109   .     S
C1418  C1419   1.420   .     A
C1418  C1420   1.426   .     A
C1419  C640    1.403   1_556 S
C1420  C638    1.413   1_556 S
C1421  C1422   1.409   .     A
C1422  H1435   1.080   .     S
C1422  C1423   1.396   .     A
C1423  O1465   1.385   .     S
H1425  N1453   1.046   .     S
H1426  N1454   1.046   .     S
H1427  N1454   1.046   .     S
H1428  N1455   1.045   .     S
H1429  N933    1.046   1_565 S
H1432  N1457   1.046   .     S
H1433  N1457   1.046   .     S
H1438  N1458   1.046   .     S
H1439  N1458   1.046   .     S
H1440  N1459   1.046   .     S
H1441  N1459   1.046   .     S
H1448  C1501   1.109   .     S
H1449  N1452   1.045   .     S
H1450  N1452   1.045   .     S
H1451  N1453   1.044   .     S
N1454  C1490   1.437   .     S
N1456  C884    1.437   1_565 S
N1456  H909    1.046   1_565 S
N1456  H908    1.046   1_565 S
O1460  Zn1477  1.951   .     S
O1460  Zn1478  1.931   .     S
O1460  Zn1476  1.963   .     S
O1460  Zn1479  1.933   .     S
O1461  Zn1477  1.921   .     S
O1462  Zn1479  1.934   .     S
O1463  Zn1478  1.931   .     S
O1464  Zn1476  1.919   .     S
O1468  Zn1476  1.937   .     S
O1469  Zn1479  1.937   .     S
O1470  Zn1477  1.933   .     S
O1471  Zn1478  1.946   .     S
O1472  Zn1479  1.942   .     S
O1473  Zn1476  1.930   .     S
O1474  Zn1477  1.943   .     S
O1475  Zn1478  1.938   .     S
C1480  C1490   1.436   .     S
C1480  O1557   1.270   .     A
C1480  O1559   1.266   .     A
C1481  H1532   1.079   .     S
C1481  C1482   1.395   .     A
C1481  C1507   1.406   .     A
C1482  N1545   1.434   .     S
C1482  C701    1.417   1_556 S
C1483  O1560   1.276   .     A
C1483  O1558   1.286   .     A
C1483  C1489   1.469   .     S
C1484  C1485   1.429   .     A
C1484  C1486   1.423   .     A
C1485  C1488   1.418   .     A
C1485  C1508   1.425   .     A
C1486  C1487   1.405   .     A
C1486  N1539   1.435   .     S
C1487  C1499   1.401   .     A
C1487  O1553   1.385   .     S
C1488  C1499   1.401   .     A
C1488  N1544   1.439   .     S
C1489  C1316   1.354   1_655 S
C1489  N1366   1.444   1_655 S
C1491  N1546   1.433   .     S
C1491  C1500   1.396   .     A
C1491  C1498   1.409   .     A
C1492  C1495   1.461   .     S
C1492  C971    1.349   1_565 S
C1492  N1020   1.439   1_565 S
C1493  C1494   1.433   .     S
C1494  O1555   1.276   .     A
C1494  O1561   1.276   .     A
C1495  O1556   1.266   .     A
C1495  O1562   1.273   .     A
C1496  O1548   1.277   .     A
C1496  C1499   1.458   .     S
C1496  O1550   1.276   .     A
C1497  O1549   1.284   .     A
C1497  O1551   1.288   .     A
C1497  C1498   1.475   .     S
C1498  C1502   1.405   .     A
C1500  C1506   1.403   .     A
C1500  H1511   1.084   .     S
C1501  H1533   1.114   .     S
C1501  H1534   1.112   .     S
C1501  O1552   1.410   .     S
C1502  C1505   1.421   .     A
C1502  O1554   1.384   .     S
C1503  H1521   1.113   .     S
C1503  H1524   1.109   .     S
C1503  H1523   1.111   .     S
C1503  O1553   1.411   .     S
C1504  H1529   1.113   .     S
C1504  O1554   1.410   .     S
C1504  H1530   1.114   .     S
C1504  H1531   1.109   .     S
C1505  C1506   1.420   .     A
C1505  C1507   1.426   .     A
C1506  C727    1.403   1_556 S
C1507  C725    1.413   1_556 S
C1508  C1509   1.409   .     A
C1509  H1522   1.080   .     S
C1509  C1510   1.396   .     A
C1510  O1552   1.385   .     S
H1512  N1540   1.046   .     S
H1513  N1541   1.046   .     S
H1514  N1541   1.046   .     S
H1515  N1542   1.045   .     S
H1516  N1020   1.046   1_565 S
H1519  N1544   1.046   .     S
H1520  N1544   1.046   .     S
H1525  N1545   1.046   .     S
H1526  N1545   1.046   .     S
H1527  N1546   1.046   .     S
H1528  N1546   1.046   .     S
H1535  C1327   1.109   1_655 S
H1536  N1539   1.045   .     S
H1537  N1539   1.045   .     S
H1538  N1540   1.044   .     S
N1541  C1316   1.437   1_655 S
N1543  C971    1.437   1_565 S
N1543  H996    1.046   1_565 S
N1543  H995    1.046   1_565 S
O1547  Zn1564  1.951   .     S
O1547  Zn1565  1.931   .     S
O1547  Zn1563  1.963   .     S
O1547  Zn1566  1.933   .     S
O1548  Zn1564  1.921   .     S
O1549  Zn1566  1.934   .     S
O1550  Zn1565  1.931   .     S
O1551  Zn1563  1.919   .     S
O1555  Zn1563  1.937   .     S
O1556  Zn1566  1.937   .     S
O1557  Zn1564  1.933   .     S
O1558  Zn1565  1.946   .     S
O1559  Zn1566  1.942   .     S
O1560  Zn1563  1.930   .     S
O1561  Zn1564  1.943   .     S
O1562  Zn1565  1.938   .     S
