data_str_m1_o1_o17_pcu_sym.100
_audit_creation_date              2020-01-03
_audit_creation_method            'Materials Studio'
_symmetry_space_group_name_H-M    'P1'
_symmetry_Int_Tables_number       1
_symmetry_cell_setting            triclinic
loop_
_symmetry_equiv_pos_as_xyz
  x,y,z
_cell_length_a                    36.6643
_cell_length_b                    36.6312
_cell_length_c                    34.4073
_cell_angle_alpha                 90.0472
_cell_angle_beta                  90.0275
_cell_angle_gamma                 89.4470
loop_
_atom_site_label
_atom_site_type_symbol
_atom_site_fract_x
_atom_site_fract_y
_atom_site_fract_z
_atom_site_U_iso_or_equiv
_atom_site_adp_type
_atom_site_occupancy
C1     C     0.01936   0.27708   0.41836   0.00000  Uiso   1.00
C2     C     0.23131   0.47238   0.08167   0.00000  Uiso   1.00
C3     C     0.22369   0.47944   0.54082   0.00000  Uiso   1.00
C4     C     0.02045   0.27641   0.45915   0.00000  Uiso   1.00
C5     C     0.48070   0.22294   0.54092   0.00000  Uiso   1.00
C6     C     0.22368   0.47947   0.45898   0.00000  Uiso   1.00
C7     C     0.27725   0.01901   0.54088   0.00000  Uiso   1.00
C8     C     0.23035   0.47287   0.95900   0.00000  Uiso   1.00
C9     C     0.26868   0.02739   0.04089   0.00000  Uiso   1.00
C10    C     0.02621   0.27069   0.95912   0.00000  Uiso   1.00
C11    C     0.47314   0.23043   0.04090   0.00000  Uiso   1.00
C12    C     0.26869   0.02736   0.95909   0.00000  Uiso   1.00
C13    C     0.47247   0.23150   0.91831   0.00000  Uiso   1.00
C14    C     0.23030   0.47293   0.04086   0.00000  Uiso   1.00
C15    C     0.47312   0.23046   0.95908   0.00000  Uiso   1.00
C16    C     0.02625   0.27064   0.04097   0.00000  Uiso   1.00
C17    C     0.09799   0.34816   0.25011   0.00000  Uiso   1.00
C18    C     0.40181   0.15185   0.75003   0.00000  Uiso   1.00
C19    C     0.15203   0.09807   0.25013   0.00000  Uiso   1.00
C20    C     0.34804   0.40200   0.75005   0.00000  Uiso   1.00
C21    C     0.40277   0.15095   0.25078   0.00000  Uiso   1.00
C22    C     0.09802   0.34812   0.75010   0.00000  Uiso   1.00
C23    C     0.34800   0.40194   0.24967   0.00000  Uiso   1.00
C24    C     0.02690   0.26963   0.08176   0.00000  Uiso   1.00
C25    C     0.15205   0.09806   0.74988   0.00000  Uiso   1.00
C26    C     0.09805   0.15198   0.75032   0.00000  Uiso   1.00
C27    C     0.40200   0.34806   0.25033   0.00000  Uiso   1.00
C28    C     0.15181   0.40204   0.74985   0.00000  Uiso   1.00
C29    C     0.34718   0.09909   0.24919   0.00000  Uiso   1.00
C30    C     0.40197   0.34799   0.74994   0.00000  Uiso   1.00
C31    C     0.09796   0.15194   0.24988   0.00000  Uiso   1.00
C32    C     0.34802   0.09812   0.75004   0.00000  Uiso   1.00
C33    C     0.15200   0.40185   0.24990   0.00000  Uiso   1.00
C34    C     0.00053   0.24972   0.47956   0.00000  Uiso   1.00
C35    C     0.23134   0.47229   0.91820   0.00000  Uiso   1.00
C36    C     0.00051   0.24973   0.52053   0.00000  Uiso   1.00
C37    C     0.25034   0.49943   0.47945   0.00000  Uiso   1.00
C38    C     0.25036   0.49939   0.52042   0.00000  Uiso   1.00
C39    C     0.24966   0.00001   0.97947   0.00000  Uiso   1.00
C40    C     0.24964   0.00004   0.02045   0.00000  Uiso   1.00
C41    C     0.49975   0.25047   0.97953   0.00000  Uiso   1.00
C42    C     0.49976   0.25045   0.02051   0.00000  Uiso   1.00
C43    C     0.11613   0.45983   0.29971   0.00000  Uiso   1.00
C44    C     0.34231   0.09341   0.83943   0.00000  Uiso   1.00
C45    C     0.12950   0.19223   0.17807   0.00000  Uiso   1.00
C46    C     0.26745   0.02813   0.08166   0.00000  Uiso   1.00
C47    C     0.37712   0.29732   0.81356   0.00000  Uiso   1.00
C48    C     0.34280   0.09269   0.16033   0.00000  Uiso   1.00
C49    C     0.10679   0.45631   0.69947   0.00000  Uiso   1.00
C50    C     0.36736   0.30001   0.18543   0.00000  Uiso   1.00
C51    C     0.13034   0.19361   0.82045   0.00000  Uiso   1.00
C52    C     0.20359   0.12441   0.81227   0.00000  Uiso   1.00
C53    C     0.30026   0.37463   0.18499   0.00000  Uiso   1.00
C54    C     0.04060   0.38378   0.69957   0.00000  Uiso   1.00
C55    C     0.41871   0.14642   0.15941   0.00000  Uiso   1.00
C56    C     0.30742   0.36994   0.82149   0.00000  Uiso   1.00
C57    C     0.02681   0.26974   0.91833   0.00000  Uiso   1.00
C58    C     0.20252   0.12295   0.18630   0.00000  Uiso   1.00
C59    C     0.41865   0.14682   0.84070   0.00000  Uiso   1.00
C60    C     0.04368   0.39369   0.30020   0.00000  Uiso   1.00
C61    C     0.39674   0.16861   0.65939   0.00000  Uiso   1.00
C62    C     0.13385   0.29017   0.20029   0.00000  Uiso   1.00
C63    C     0.37300   0.45268   0.68645   0.00000  Uiso   1.00
C64    C     0.12049   0.05779   0.32197   0.00000  Uiso   1.00
C65    C     0.14133   0.29371   0.80151   0.00000  Uiso   1.00
C66    C     0.40694   0.15750   0.33967   0.00000  Uiso   1.00
C67    C     0.12563   0.05071   0.68417   0.00000  Uiso   1.00
C68    C     0.47252   0.23143   0.08167   0.00000  Uiso   1.00
C69    C     0.38266   0.45001   0.31455   0.00000  Uiso   1.00
C70    C     0.44967   0.37533   0.31510   0.00000  Uiso   1.00
C71    C     0.05125   0.11809   0.68393   0.00000  Uiso   1.00
C72    C     0.33130   0.10349   0.34055   0.00000  Uiso   1.00
C73    C     0.20872   0.36452   0.80018   0.00000  Uiso   1.00
C74    C     0.04752   0.12713   0.31378   0.00000  Uiso   1.00
C75    C     0.44246   0.37981   0.67838   0.00000  Uiso   1.00
C76    C     0.20634   0.35616   0.20004   0.00000  Uiso   1.00
C77    C     0.34306   0.09258   0.66058   0.00000  Uiso   1.00
C78    C     0.01416   0.33364   0.39227   0.00000  Uiso   1.00
C79    C     0.00032   0.24983   0.39819   0.00000  Uiso   1.00
C80    C     0.48898   0.16619   0.60833   0.00000  Uiso   1.00
C81    C     0.16673   0.48536   0.39126   0.00000  Uiso   1.00
C82    C     0.33450   0.00794   0.60626   0.00000  Uiso   1.00
C83    C     0.49186   0.16548   0.39370   0.00000  Uiso   1.00
C84    C     0.01460   0.33341   0.60867   0.00000  Uiso   1.00
C85    C     0.33375   0.01101   0.39154   0.00000  Uiso   1.00
C86    C     0.16643   0.48576   0.60750   0.00000  Uiso   1.00
C87    C     0.25704   0.08442   0.89339   0.00000  Uiso   1.00
C88    C     0.23778   0.41599   0.10783   0.00000  Uiso   1.00
C89    C     0.41610   0.23906   0.89234   0.00000  Uiso   1.00
C90    C     0.00021   0.24991   0.60188   0.00000  Uiso   1.00
C91    C     0.08321   0.26511   0.10873   0.00000  Uiso   1.00
C92    C     0.23749   0.41615   0.89108   0.00000  Uiso   1.00
C93    C     0.25717   0.08454   0.10652   0.00000  Uiso   1.00
C94    C     0.08303   0.26554   0.89117   0.00000  Uiso   1.00
C95    C     0.41633   0.23860   0.10824   0.00000  Uiso   1.00
C96    C     0.25011   0.49979   0.39812   0.00000  Uiso   1.00
C97    C     0.48163   0.22237   0.58169   0.00000  Uiso   1.00
C98    C     0.25021   0.49963   0.60179   0.00000  Uiso   1.00
C99    C     0.24978   0.49999   0.89813   0.00000  Uiso   1.00
C100   C     0.24973   0.00007   0.10182   0.00000  Uiso   1.00
C101   C     0.49986   0.25027   0.89817   0.00000  Uiso   1.00
C102   C     0.49992   0.25020   0.10186   0.00000  Uiso   1.00
C103   C     0.46087   0.19679   0.47976   0.00000  Uiso   1.00
C104   C     0.04082   0.30216   0.52032   0.00000  Uiso   1.00
C105   C     0.30317   0.03921   0.47982   0.00000  Uiso   1.00
C106   C     0.19797   0.45905   0.52007   0.00000  Uiso   1.00
C107   C     0.04082   0.30217   0.47991   0.00000  Uiso   1.00
C108   C     0.22302   0.48051   0.41820   0.00000  Uiso   1.00
C109   C     0.46073   0.19687   0.52017   0.00000  Uiso   1.00
C110   C     0.19795   0.45907   0.47966   0.00000  Uiso   1.00
C111   C     0.30327   0.03906   0.52022   0.00000  Uiso   1.00
C112   C     0.21063   0.44661   0.97969   0.00000  Uiso   1.00
C113   C     0.28813   0.05385   0.02022   0.00000  Uiso   1.00
C114   C     0.05183   0.29121   0.97987   0.00000  Uiso   1.00
C115   C     0.44731   0.21016   0.02016   0.00000  Uiso   1.00
C116   C     0.28812   0.05385   0.97982   0.00000  Uiso   1.00
C117   C     0.21058   0.44667   0.02011   0.00000  Uiso   1.00
C118   C     0.44731   0.21016   0.97976   0.00000  Uiso   1.00
C119   C     0.27800   0.01777   0.58165   0.00000  Uiso   1.00
C120   C     0.05186   0.29118   0.02028   0.00000  Uiso   1.00
C121   C     0.25001   0.49998   0.35581   0.00000  Uiso   1.00
C122   C     0.25007   0.49993   0.64415   0.00000  Uiso   1.00
C123   C     0.00006   0.24993   0.35583   0.00000  Uiso   1.00
C124   C     0.00003   0.25000   0.64419   0.00000  Uiso   1.00
C125   C     0.49994   0.25005   0.85583   0.00000  Uiso   1.00
C126   C    -0.00000   0.25002   0.14418   0.00000  Uiso   1.00
C127   C     0.24996   0.00001   0.85581   0.00000  Uiso   1.00
C128   C     0.24995   0.00004   0.14417   0.00000  Uiso   1.00
C129   C     0.17989   0.06983   0.25028   0.00000  Uiso   1.00
C130   C     0.48216   0.22205   0.41834   0.00000  Uiso   1.00
C131   C     0.31982   0.42988   0.75026   0.00000  Uiso   1.00
C132   C     0.43029   0.17959   0.25038   0.00000  Uiso   1.00
C133   C     0.07015   0.31991   0.75021   0.00000  Uiso   1.00
C134   C     0.31992   0.42998   0.24989   0.00000  Uiso   1.00
C135   C     0.17998   0.06990   0.74986   0.00000  Uiso   1.00
C136   C     0.06985   0.32021   0.25025   0.00000  Uiso   1.00
C137   C     0.42992   0.17993   0.75001   0.00000  Uiso   1.00
C138   C     0.17982   0.43011   0.74977   0.00000  Uiso   1.00
C139   C     0.31970   0.07042   0.24961   0.00000  Uiso   1.00
C140   C     0.43019   0.32012   0.74973   0.00000  Uiso   1.00
C141   C     0.01947   0.27703   0.58179   0.00000  Uiso   1.00
C142   C     0.07011   0.18017   0.24972   0.00000  Uiso   1.00
C143   C     0.32003   0.07005   0.75001   0.00000  Uiso   1.00
C144   C     0.18014   0.42979   0.24975   0.00000  Uiso   1.00
C145   C     0.07006   0.18013   0.75021   0.00000  Uiso   1.00
C146   C     0.43008   0.32002   0.25012   0.00000  Uiso   1.00
C147   C     0.12651   0.40064   0.28047   0.00000  Uiso   1.00
C148   C     0.37193   0.10129   0.78203   0.00000  Uiso   1.00
C149   C     0.13234   0.15943   0.23384   0.00000  Uiso   1.00
C150   C     0.36742   0.34024   0.76563   0.00000  Uiso   1.00
C151   C     0.37202   0.10128   0.21794   0.00000  Uiso   1.00
C152   C     0.27765   0.01836   0.41829   0.00000  Uiso   1.00
C153   C     0.12634   0.40042   0.71932   0.00000  Uiso   1.00
C154   C     0.36706   0.33965   0.23635   0.00000  Uiso   1.00
C155   C     0.13276   0.15980   0.76532   0.00000  Uiso   1.00
C156   C     0.16007   0.13295   0.76472   0.00000  Uiso   1.00
C157   C     0.33998   0.36673   0.23578   0.00000  Uiso   1.00
C158   C     0.09958   0.37334   0.71928   0.00000  Uiso   1.00
C159   C     0.40035   0.12629   0.21930   0.00000  Uiso   1.00
C160   C     0.34053   0.36753   0.76593   0.00000  Uiso   1.00
C161   C     0.15968   0.13260   0.23428   0.00000  Uiso   1.00
C162   C     0.40007   0.12650   0.78089   0.00000  Uiso   1.00
C163   C     0.22301   0.48055   0.58162   0.00000  Uiso   1.00
C164   C     0.09946   0.37385   0.28046   0.00000  Uiso   1.00
C165   C     0.37641   0.15015   0.71919   0.00000  Uiso   1.00
C166   C     0.12348   0.34937   0.21954   0.00000  Uiso   1.00
C167   C     0.38260   0.40975   0.73438   0.00000  Uiso   1.00
C168   C     0.11765   0.09057   0.26618   0.00000  Uiso   1.00
C169   C     0.12324   0.35003   0.78083   0.00000  Uiso   1.00
C170   C     0.37789   0.14879   0.28199   0.00000  Uiso   1.00
C171   C     0.11710   0.09017   0.73517   0.00000  Uiso   1.00
C172   C     0.38295   0.41034   0.26365   0.00000  Uiso   1.00
C173   C     0.41002   0.38326   0.26425   0.00000  Uiso   1.00
C174   C     0.26746   0.02808   0.91833   0.00000  Uiso   1.00
C175   C     0.09000   0.11723   0.73555   0.00000  Uiso   1.00
C176   C     0.34960   0.12374   0.28066   0.00000  Uiso   1.00
C177   C     0.15016   0.37690   0.78070   0.00000  Uiso   1.00
C178   C     0.09032   0.11741   0.26577   0.00000  Uiso   1.00
C179   C     0.40946   0.38245   0.73402   0.00000  Uiso   1.00
C180   C     0.15054   0.37614   0.21956   0.00000  Uiso   1.00
C181   C     0.35114   0.12206   0.71809   0.00000  Uiso   1.00
C182   C     0.48091   0.22281   0.45911   0.00000  Uiso   1.00
C183   C     0.02047   0.27639   0.54100   0.00000  Uiso   1.00
C184   C     0.27711   0.01926   0.45907   0.00000  Uiso   1.00
H185   H     0.44522   0.17616   0.46477   0.00000  Uiso   1.00
H186   H     0.30335   0.07480   0.03519   0.00000  Uiso   1.00
H187   H     0.21882   0.34598   0.82334   0.00000  Uiso   1.00
H188   H     0.02856   0.15021   0.30756   0.00000  Uiso   1.00
H189   H     0.07181   0.13748   0.32977   0.00000  Uiso   1.00
H190   H     0.03314   0.10813   0.33350   0.00000  Uiso   1.00
H191   H     0.44153   0.34967   0.67494   0.00000  Uiso   1.00
H192   H     0.46771   0.38946   0.66425   0.00000  Uiso   1.00
H193   H     0.41925   0.39275   0.66257   0.00000  Uiso   1.00
H194   H     0.22419   0.37203   0.21975   0.00000  Uiso   1.00
H195   H     0.22198   0.34948   0.17343   0.00000  Uiso   1.00
H196   H     0.19938   0.32966   0.21386   0.00000  Uiso   1.00
H197   H     0.07213   0.30728   0.96497   0.00000  Uiso   1.00
H198   H     0.33081   0.09668   0.63142   0.00000  Uiso   1.00
H199   H     0.33587   0.06481   0.67066   0.00000  Uiso   1.00
H200   H     0.37322   0.09409   0.65716   0.00000  Uiso   1.00
H201   H     0.00420   0.34512   0.42033   0.00000  Uiso   1.00
H202   H     0.49065   0.32606   0.37360   0.00000  Uiso   1.00
H203   H     0.02937   0.35545   0.37728   0.00000  Uiso   1.00
H204   H     0.01199   0.17490   0.62716   0.00000  Uiso   1.00
H205   H     0.49962   0.15488   0.58047   0.00000  Uiso   1.00
H206   H     0.47470   0.14382   0.62354   0.00000  Uiso   1.00
H207   H     0.17402   0.00728   0.37042   0.00000  Uiso   1.00
H208   H     0.42688   0.19427   0.03509   0.00000  Uiso   1.00
H209   H     0.15616   0.49753   0.41876   0.00000  Uiso   1.00
H210   H     0.14426   0.46942   0.37829   0.00000  Uiso   1.00
H211   H     0.34515   0.49863   0.57760   0.00000  Uiso   1.00
H212   H     0.32544   0.48407   0.62361   0.00000  Uiso   1.00
H213   H     0.35746   0.02072   0.62200   0.00000  Uiso   1.00
H214   H     0.00105   0.15473   0.42236   0.00000  Uiso   1.00
H215   H     0.01577   0.17451   0.37644   0.00000  Uiso   1.00
H216   H     0.47906   0.14256   0.37785   0.00000  Uiso   1.00
H217   H     0.49285   0.32621   0.62972   0.00000  Uiso   1.00
H218   H     0.00225   0.34379   0.58118   0.00000  Uiso   1.00
H219   H     0.30333   0.07480   0.96488   0.00000  Uiso   1.00
H220   H     0.03058   0.35601   0.62132   0.00000  Uiso   1.00
H221   H     0.32502   0.48802   0.37268   0.00000  Uiso   1.00
H222   H     0.34508   0.00032   0.41936   0.00000  Uiso   1.00
H223   H     0.35608   0.02533   0.37630   0.00000  Uiso   1.00
H224   H     0.15502   0.49560   0.57937   0.00000  Uiso   1.00
H225   H     0.17390   0.00936   0.62610   0.00000  Uiso   1.00
H226   H     0.14461   0.47054   0.62245   0.00000  Uiso   1.00
H227   H     0.24726   0.09498   0.92192   0.00000  Uiso   1.00
H228   H     0.23354   0.07502   0.87568   0.00000  Uiso   1.00
H229   H     0.26970   0.10755   0.87784   0.00000  Uiso   1.00
H230   H     0.19509   0.42591   0.03501   0.00000  Uiso   1.00
H231   H     0.26136   0.42422   0.12606   0.00000  Uiso   1.00
H232   H     0.24761   0.40443   0.07976   0.00000  Uiso   1.00
H233   H     0.22321   0.39403   0.12329   0.00000  Uiso   1.00
H234   H     0.42489   0.26320   0.87527   0.00000  Uiso   1.00
H235   H     0.40415   0.24804   0.92054   0.00000  Uiso   1.00
H236   H     0.39425   0.22539   0.87566   0.00000  Uiso   1.00
H237   H     0.09383   0.25296   0.08125   0.00000  Uiso   1.00
H238   H     0.07604   0.24319   0.12962   0.00000  Uiso   1.00
H239   H     0.10560   0.28120   0.12166   0.00000  Uiso   1.00
H240   H     0.24974   0.40566   0.91856   0.00000  Uiso   1.00
H241   H     0.42690   0.19425   0.96478   0.00000  Uiso   1.00
H242   H     0.25931   0.42411   0.87043   0.00000  Uiso   1.00
H243   H     0.22214   0.39340   0.87782   0.00000  Uiso   1.00
H244   H     0.23336   0.07514   0.12372   0.00000  Uiso   1.00
H245   H     0.24785   0.09535   0.07793   0.00000  Uiso   1.00
H246   H     0.26974   0.10749   0.12252   0.00000  Uiso   1.00
H247   H     0.07588   0.24362   0.87022   0.00000  Uiso   1.00
H248   H     0.09385   0.25339   0.91856   0.00000  Uiso   1.00
H249   H     0.10524   0.28178   0.87820   0.00000  Uiso   1.00
H250   H     0.40505   0.24918   0.08035   0.00000  Uiso   1.00
H251   H     0.42490   0.26167   0.12708   0.00000  Uiso   1.00
H252   H     0.07217   0.30723   0.03523   0.00000  Uiso   1.00
H253   H     0.39400   0.22423   0.12341   0.00000  Uiso   1.00
H254   H     0.10213   0.46089   0.27090   0.00000  Uiso   1.00
H255   H     0.13976   0.47854   0.29905   0.00000  Uiso   1.00
H256   H     0.09646   0.47021   0.32164   0.00000  Uiso   1.00
H257   H     0.05674   0.32260   0.53527   0.00000  Uiso   1.00
H258   H     0.31459   0.08630   0.82918   0.00000  Uiso   1.00
H259   H     0.34392   0.12360   0.84288   0.00000  Uiso   1.00
H260   H     0.34623   0.08115   0.86860   0.00000  Uiso   1.00
H261   H     0.13901   0.21750   0.16382   0.00000  Uiso   1.00
H262   H     0.09938   0.19120   0.17474   0.00000  Uiso   1.00
H263   H     0.14246   0.16899   0.16230   0.00000  Uiso   1.00
H264   H     0.38728   0.32163   0.82969   0.00000  Uiso   1.00
H265   H     0.40029   0.27850   0.80730   0.00000  Uiso   1.00
H266   H     0.35818   0.28274   0.83317   0.00000  Uiso   1.00
H267   H     0.31505   0.08542   0.17031   0.00000  Uiso   1.00
H268   H     0.32374   0.05495   0.46491   0.00000  Uiso   1.00
H269   H     0.34707   0.08025   0.13127   0.00000  Uiso   1.00
H270   H     0.34419   0.12287   0.15672   0.00000  Uiso   1.00
H271   H     0.10050   0.47205   0.67281   0.00000  Uiso   1.00
H272   H     0.12262   0.47406   0.71933   0.00000  Uiso   1.00
H273   H     0.08012   0.44956   0.71301   0.00000  Uiso   1.00
H274   H     0.36192   0.27132   0.17704   0.00000  Uiso   1.00
H275   H     0.39668   0.30523   0.17958   0.00000  Uiso   1.00
H276   H     0.35003   0.31784   0.16680   0.00000  Uiso   1.00
H277   H     0.10022   0.19276   0.82392   0.00000  Uiso   1.00
H278   H     0.13997   0.21908   0.83417   0.00000  Uiso   1.00
H279   H     0.17759   0.44307   0.53496   0.00000  Uiso   1.00
H280   H     0.14328   0.17061   0.83662   0.00000  Uiso   1.00
H281   H     0.22233   0.10106   0.80648   0.00000  Uiso   1.00
H282   H     0.17950   0.11465   0.82898   0.00000  Uiso   1.00
H283   H     0.21835   0.14390   0.83113   0.00000  Uiso   1.00
H284   H     0.32584   0.38254   0.16967   0.00000  Uiso   1.00
H285   H     0.28241   0.39906   0.18831   0.00000  Uiso   1.00
H286   H     0.28610   0.35500   0.16582   0.00000  Uiso   1.00
H287   H     0.03942   0.39804   0.72825   0.00000  Uiso   1.00
H288   H     0.02182   0.36021   0.70033   0.00000  Uiso   1.00
H289   H     0.03042   0.40334   0.67741   0.00000  Uiso   1.00
H290   H     0.05675   0.32259   0.46501   0.00000  Uiso   1.00
H291   H     0.44453   0.15629   0.14660   0.00000  Uiso   1.00
H292   H     0.40191   0.17093   0.16711   0.00000  Uiso   1.00
H293   H     0.40488   0.13018   0.13667   0.00000  Uiso   1.00
H294   H     0.28184   0.36079   0.83535   0.00000  Uiso   1.00
H295   H     0.30902   0.40003   0.82513   0.00000  Uiso   1.00
H296   H     0.33022   0.35638   0.83737   0.00000  Uiso   1.00
H297   H     0.17825   0.11258   0.17029   0.00000  Uiso   1.00
H298   H     0.22151   0.09990   0.19249   0.00000  Uiso   1.00
H299   H     0.21686   0.14200   0.16661   0.00000  Uiso   1.00
H300   H     0.40221   0.17152   0.83288   0.00000  Uiso   1.00
H301   H     0.44501   0.17630   0.53508   0.00000  Uiso   1.00
H302   H     0.44455   0.15637   0.85364   0.00000  Uiso   1.00
H303   H     0.40450   0.13081   0.86336   0.00000  Uiso   1.00
H304   H     0.02792   0.39999   0.32683   0.00000  Uiso   1.00
H305   H     0.02595   0.37796   0.28023   0.00000  Uiso   1.00
H306   H     0.05058   0.42037   0.28675   0.00000  Uiso   1.00
H307   H     0.42127   0.15192   0.66718   0.00000  Uiso   1.00
H308   H     0.40652   0.19449   0.64660   0.00000  Uiso   1.00
H309   H     0.38065   0.15465   0.63660   0.00000  Uiso   1.00
H310   H     0.11023   0.27145   0.20089   0.00000  Uiso   1.00
H311   H     0.14780   0.28910   0.22913   0.00000  Uiso   1.00
H312   H     0.17754   0.44315   0.46471   0.00000  Uiso   1.00
H313   H     0.15356   0.27981   0.17839   0.00000  Uiso   1.00
H314   H     0.34989   0.47159   0.69262   0.00000  Uiso   1.00
H315   H     0.36278   0.42838   0.67034   0.00000  Uiso   1.00
H316   H     0.39203   0.46715   0.66685   0.00000  Uiso   1.00
H317   H     0.15061   0.05891   0.32530   0.00000  Uiso   1.00
H318   H     0.11105   0.03250   0.33621   0.00000  Uiso   1.00
H319   H     0.10746   0.08100   0.33773   0.00000  Uiso   1.00
H320   H     0.12261   0.27371   0.78801   0.00000  Uiso   1.00
H321   H     0.15259   0.28156   0.82849   0.00000  Uiso   1.00
H322   H     0.16498   0.29838   0.78183   0.00000  Uiso   1.00
H323   H     0.32388   0.05469   0.53522   0.00000  Uiso   1.00
H324   H     0.40251   0.16991   0.36871   0.00000  Uiso   1.00
H325   H     0.43470   0.16485   0.32982   0.00000  Uiso   1.00
H326   H     0.40563   0.12732   0.34326   0.00000  Uiso   1.00
H327   H     0.15002   0.03285   0.68770   0.00000  Uiso   1.00
H328   H     0.13368   0.07641   0.66914   0.00000  Uiso   1.00
H329   H     0.10627   0.03658   0.66467   0.00000  Uiso   1.00
H330   H     0.35334   0.44476   0.32042   0.00000  Uiso   1.00
H331   H     0.38807   0.47870   0.32292   0.00000  Uiso   1.00
H332   H     0.40000   0.43221   0.33319   0.00000  Uiso   1.00
H333   H     0.46752   0.35090   0.31182   0.00000  Uiso   1.00
H334   H     0.19523   0.42580   0.96474   0.00000  Uiso   1.00
H335   H     0.42406   0.36742   0.33037   0.00000  Uiso   1.00
H336   H     0.46379   0.39497   0.33430   0.00000  Uiso   1.00
H337   H     0.05638   0.14755   0.67864   0.00000  Uiso   1.00
H338   H     0.02279   0.11257   0.67489   0.00000  Uiso   1.00
H339   H     0.06950   0.10111   0.66539   0.00000  Uiso   1.00
H340   H     0.34824   0.07909   0.33282   0.00000  Uiso   1.00
H341   H     0.30550   0.09347   0.35326   0.00000  Uiso   1.00
H342   H     0.34501   0.11974   0.36337   0.00000  Uiso   1.00
H343   H     0.22819   0.38738   0.79736   0.00000  Uiso   1.00
H344   H     0.20878   0.34855   0.77252   0.00000  Uiso   1.00
O345   O     0.25000  -0.00000   0.25000   0.00000  Uiso   1.00
O346   O     0.25000   0.46964   0.66245   0.00000  Uiso   1.00
O347   O     0.44534   0.21369   0.10195   0.00000  Uiso   1.00
O348   O     0.46964   0.25000   0.33755   0.00000  Uiso   1.00
O349   O     0.03037   0.25000   0.66245   0.00000  Uiso   1.00
O350   O     0.00000   0.21963   0.83755   0.00000  Uiso   1.00
O351   O     0.00000   0.28036   0.16245   0.00000  Uiso   1.00
O352   O     0.28037   0.00000   0.83755   0.00000  Uiso   1.00
O353   O     0.21964  -0.00000   0.16245   0.00000  Uiso   1.00
O354   O     0.00000   0.28036   0.83755   0.00000  Uiso   1.00
O355   O     0.00000   0.21963   0.16245   0.00000  Uiso   1.00
O356   O     0.21964   0.00000   0.83755   0.00000  Uiso   1.00
O357   O     0.25000   0.00000   0.75000   0.00000  Uiso   1.00
O358   O     0.28037  -0.00000   0.16245   0.00000  Uiso   1.00
O359   O     0.20725   0.07307   0.27302   0.00000  Uiso   1.00
O360   O     0.29276   0.42693   0.72698   0.00000  Uiso   1.00
O361   O     0.42693   0.20724   0.27302   0.00000  Uiso   1.00
O362   O     0.07308   0.29276   0.72698   0.00000  Uiso   1.00
O363   O     0.29276   0.42693   0.27302   0.00000  Uiso   1.00
O364   O     0.20725   0.07307   0.72698   0.00000  Uiso   1.00
O365   O     0.07308   0.29276   0.27302   0.00000  Uiso   1.00
O366   O     0.42693   0.20724   0.72698   0.00000  Uiso   1.00
O367   O     0.20725   0.42693   0.72698   0.00000  Uiso   1.00
O368   O     0.00000   0.25000   0.25000   0.00000  Uiso   1.00
O369   O     0.29276   0.07307   0.27302   0.00000  Uiso   1.00
O370   O     0.42693   0.29275   0.72698   0.00000  Uiso   1.00
O371   O     0.07308   0.20725   0.27302   0.00000  Uiso   1.00
O372   O     0.29276   0.07307   0.72698   0.00000  Uiso   1.00
O373   O     0.20725   0.42693   0.27302   0.00000  Uiso   1.00
O374   O     0.07308   0.20725   0.72698   0.00000  Uiso   1.00
O375   O     0.42693   0.29275   0.27302   0.00000  Uiso   1.00
O376   O     0.45725   0.32307   0.77302   0.00000  Uiso   1.00
O377   O     0.04276   0.17693   0.22698   0.00000  Uiso   1.00
O378   O     0.17693   0.45725   0.77302   0.00000  Uiso   1.00
O379   O     0.00000   0.25000   0.75000   0.00000  Uiso   1.00
O380   O     0.32308   0.04275   0.22698   0.00000  Uiso   1.00
O381   O     0.04276   0.17693   0.77302   0.00000  Uiso   1.00
O382   O     0.45725   0.32307   0.22698   0.00000  Uiso   1.00
O383   O     0.32308   0.04275   0.77302   0.00000  Uiso   1.00
O384   O     0.17693   0.45725   0.22698   0.00000  Uiso   1.00
O385   O     0.45725   0.17692   0.22698   0.00000  Uiso   1.00
O386   O     0.04276   0.32308   0.77302   0.00000  Uiso   1.00
O387   O     0.17693   0.04275   0.22698   0.00000  Uiso   1.00
O388   O     0.32308   0.45725   0.77302   0.00000  Uiso   1.00
O389   O     0.04276   0.32308   0.22698   0.00000  Uiso   1.00
O390   O     0.25000   0.46964   0.33755   0.00000  Uiso   1.00
O391   O     0.45725   0.17692   0.77302   0.00000  Uiso   1.00
O392   O     0.32308   0.45725   0.22698   0.00000  Uiso   1.00
O393   O     0.17693   0.04275   0.77302   0.00000  Uiso   1.00
O394   O     0.12819   0.42473   0.31142   0.00000  Uiso   1.00
O395   O     0.36926   0.07890   0.81426   0.00000  Uiso   1.00
O396   O     0.13954   0.19318   0.21769   0.00000  Uiso   1.00
O397   O     0.35843   0.30564   0.77866   0.00000  Uiso   1.00
O398   O     0.36965   0.07858   0.18588   0.00000  Uiso   1.00
O399   O     0.12747   0.42512   0.68900   0.00000  Uiso   1.00
O400   O     0.35867   0.30441   0.22510   0.00000  Uiso   1.00
O401   O     0.25000   0.03036   0.66245   0.00000  Uiso   1.00
O402   O     0.14025   0.19378   0.78079   0.00000  Uiso   1.00
O403   O     0.19487   0.14215   0.77691   0.00000  Uiso   1.00
O404   O     0.30573   0.35809   0.22172   0.00000  Uiso   1.00
O405   O     0.07570   0.37150   0.68818   0.00000  Uiso   1.00
O406   O     0.42759   0.12401   0.19147   0.00000  Uiso   1.00
O407   O     0.30670   0.36021   0.78178   0.00000  Uiso   1.00
O408   O     0.19422   0.14163   0.22123   0.00000  Uiso   1.00
O409   O     0.42736   0.12424   0.80869   0.00000  Uiso   1.00
O410   O     0.07471   0.37284   0.31072   0.00000  Uiso   1.00
O411   O     0.37418   0.17740   0.69136   0.00000  Uiso   1.00
O412   O     0.03037   0.25000   0.33755   0.00000  Uiso   1.00
O413   O     0.12179   0.32528   0.18859   0.00000  Uiso   1.00
O414   O     0.39159   0.44436   0.72141   0.00000  Uiso   1.00
O415   O     0.11046   0.05682   0.28234   0.00000  Uiso   1.00
O416   O     0.12182   0.32580   0.81155   0.00000  Uiso   1.00
O417   O     0.38017   0.17156   0.31400   0.00000  Uiso   1.00
O418   O     0.10867   0.05597   0.72072   0.00000  Uiso   1.00
O419   O     0.39134   0.44559   0.27488   0.00000  Uiso   1.00
O420   O     0.44426   0.39187   0.27835   0.00000  Uiso   1.00
O421   O     0.05500   0.10892   0.72354   0.00000  Uiso   1.00
O422   O     0.32240   0.12596   0.30854   0.00000  Uiso   1.00
O423   O     0.46964   0.25000   0.66245   0.00000  Uiso   1.00
O424   O     0.17427   0.37855   0.81158   0.00000  Uiso   1.00
O425   O     0.05579   0.10840   0.27887   0.00000  Uiso   1.00
O426   O     0.44324   0.38974   0.71804   0.00000  Uiso   1.00
O427   O     0.17537   0.37706   0.18938   0.00000  Uiso   1.00
O428   O     0.32865   0.11946   0.68592   0.00000  Uiso   1.00
O429   O     0.03795   0.30364   0.39800   0.00000  Uiso   1.00
O430   O     0.46399   0.19512   0.60197   0.00000  Uiso   1.00
O431   O     0.19662   0.46163   0.39784   0.00000  Uiso   1.00
O432   O     0.30611   0.03395   0.60199   0.00000  Uiso   1.00
O433   O     0.46593   0.19395   0.39800   0.00000  Uiso   1.00
O434   O     0.25000   0.03036   0.33755   0.00000  Uiso   1.00
O435   O     0.03831   0.30347   0.60214   0.00000  Uiso   1.00
O436   O     0.30487   0.03603   0.39800   0.00000  Uiso   1.00
O437   O     0.19645   0.46198   0.60197   0.00000  Uiso   1.00
O438   O     0.28337   0.05637   0.89804   0.00000  Uiso   1.00
O439   O     0.21332   0.44544   0.10206   0.00000  Uiso   1.00
O440   O     0.44514   0.21404   0.89794   0.00000  Uiso   1.00
O441   O     0.05319   0.28867   0.10212   0.00000  Uiso   1.00
O442   O     0.21308   0.44547   0.89780   0.00000  Uiso   1.00
O443   O     0.28341   0.05639   0.10201   0.00000  Uiso   1.00
O444   O     0.05296   0.28896   0.89803   0.00000  Uiso   1.00
Zn445  Zn    0.20660  -0.00000   0.21735   0.00000  Uiso   1.00
Zn446  Zn    0.04341   0.25000   0.28265   0.00000  Uiso   1.00
Zn447  Zn    0.25000   0.45660   0.71735   0.00000  Uiso   1.00
Zn448  Zn    0.25000   0.04340   0.28265   0.00000  Uiso   1.00
Zn449  Zn    0.04341   0.25000   0.71735   0.00000  Uiso   1.00
Zn450  Zn    0.45660   0.25000   0.28265   0.00000  Uiso   1.00
Zn451  Zn    0.25000   0.04340   0.71735   0.00000  Uiso   1.00
Zn452  Zn    0.25000   0.45660   0.28265   0.00000  Uiso   1.00
Zn453  Zn    0.29341  -0.00000   0.78265   0.00000  Uiso   1.00
Zn454  Zn    0.00000   0.20659   0.21735   0.00000  Uiso   1.00
Zn455  Zn    0.00000   0.29341   0.78265   0.00000  Uiso   1.00
Zn456  Zn    0.29341  -0.00000   0.21735   0.00000  Uiso   1.00
Zn457  Zn    0.20660  -0.00000   0.78265   0.00000  Uiso   1.00
Zn458  Zn    0.00000   0.29340   0.21735   0.00000  Uiso   1.00
Zn459  Zn    0.00000   0.20660   0.78265   0.00000  Uiso   1.00
Zn460  Zn    0.45660   0.25000   0.71735   0.00000  Uiso   1.00
C461   C     0.51936   0.27708   0.41836   0.00000  Uiso   1.00
C462   C     0.73131   0.47238   0.08167   0.00000  Uiso   1.00
C463   C     0.72369   0.47944   0.54082   0.00000  Uiso   1.00
C464   C     0.52045   0.27641   0.45915   0.00000  Uiso   1.00
C465   C     0.98070   0.22294   0.54092   0.00000  Uiso   1.00
C466   C     0.72368   0.47947   0.45898   0.00000  Uiso   1.00
C467   C     0.77725   0.01901   0.54088   0.00000  Uiso   1.00
C468   C     0.73035   0.47287   0.95900   0.00000  Uiso   1.00
C469   C     0.76868   0.02739   0.04089   0.00000  Uiso   1.00
C470   C     0.52621   0.27069   0.95912   0.00000  Uiso   1.00
C471   C     0.97314   0.23043   0.04090   0.00000  Uiso   1.00
C472   C     0.76869   0.02736   0.95909   0.00000  Uiso   1.00
C473   C     0.97247   0.23150   0.91831   0.00000  Uiso   1.00
C474   C     0.73030   0.47293   0.04086   0.00000  Uiso   1.00
C475   C     0.97312   0.23046   0.95908   0.00000  Uiso   1.00
C476   C     0.52625   0.27064   0.04097   0.00000  Uiso   1.00
C477   C     0.59799   0.34816   0.25011   0.00000  Uiso   1.00
C478   C     0.90181   0.15185   0.75003   0.00000  Uiso   1.00
C479   C     0.65203   0.09807   0.25013   0.00000  Uiso   1.00
C480   C     0.84804   0.40200   0.75005   0.00000  Uiso   1.00
C481   C     0.90277   0.15095   0.25078   0.00000  Uiso   1.00
C482   C     0.59802   0.34812   0.75010   0.00000  Uiso   1.00
C483   C     0.84800   0.40194   0.24967   0.00000  Uiso   1.00
C484   C     0.52690   0.26963   0.08176   0.00000  Uiso   1.00
C485   C     0.65205   0.09806   0.74988   0.00000  Uiso   1.00
C486   C     0.59805   0.15198   0.75032   0.00000  Uiso   1.00
C487   C     0.90200   0.34806   0.25033   0.00000  Uiso   1.00
C488   C     0.65181   0.40204   0.74985   0.00000  Uiso   1.00
C489   C     0.84718   0.09909   0.24919   0.00000  Uiso   1.00
C490   C     0.90197   0.34799   0.74994   0.00000  Uiso   1.00
C491   C     0.59796   0.15194   0.24988   0.00000  Uiso   1.00
C492   C     0.84802   0.09812   0.75004   0.00000  Uiso   1.00
C493   C     0.65200   0.40185   0.24990   0.00000  Uiso   1.00
C494   C     0.50053   0.24972   0.47956   0.00000  Uiso   1.00
C495   C     0.73134   0.47229   0.91820   0.00000  Uiso   1.00
C496   C     0.50051   0.24973   0.52053   0.00000  Uiso   1.00
C497   C     0.75034   0.49943   0.47945   0.00000  Uiso   1.00
C498   C     0.75036   0.49939   0.52042   0.00000  Uiso   1.00
C499   C     0.74966   0.00001   0.97947   0.00000  Uiso   1.00
C500   C     0.74964   0.00004   0.02045   0.00000  Uiso   1.00
C501   C     0.99975   0.25047   0.97953   0.00000  Uiso   1.00
C502   C     0.99976   0.25045   0.02051   0.00000  Uiso   1.00
C503   C     0.61613   0.45983   0.29971   0.00000  Uiso   1.00
C504   C     0.84231   0.09341   0.83943   0.00000  Uiso   1.00
C505   C     0.62950   0.19223   0.17807   0.00000  Uiso   1.00
C506   C     0.76745   0.02813   0.08166   0.00000  Uiso   1.00
C507   C     0.87712   0.29732   0.81356   0.00000  Uiso   1.00
C508   C     0.84280   0.09269   0.16033   0.00000  Uiso   1.00
C509   C     0.60679   0.45631   0.69947   0.00000  Uiso   1.00
C510   C     0.86736   0.30001   0.18543   0.00000  Uiso   1.00
C511   C     0.63034   0.19361   0.82045   0.00000  Uiso   1.00
C512   C     0.70359   0.12441   0.81227   0.00000  Uiso   1.00
C513   C     0.80026   0.37463   0.18499   0.00000  Uiso   1.00
C514   C     0.54060   0.38378   0.69957   0.00000  Uiso   1.00
C515   C     0.91871   0.14642   0.15941   0.00000  Uiso   1.00
C516   C     0.80742   0.36994   0.82149   0.00000  Uiso   1.00
C517   C     0.52681   0.26974   0.91833   0.00000  Uiso   1.00
C518   C     0.70252   0.12295   0.18630   0.00000  Uiso   1.00
C519   C     0.91865   0.14682   0.84070   0.00000  Uiso   1.00
C520   C     0.54368   0.39369   0.30020   0.00000  Uiso   1.00
C521   C     0.89674   0.16861   0.65939   0.00000  Uiso   1.00
C522   C     0.63385   0.29017   0.20029   0.00000  Uiso   1.00
C523   C     0.87300   0.45268   0.68645   0.00000  Uiso   1.00
C524   C     0.62049   0.05779   0.32197   0.00000  Uiso   1.00
C525   C     0.64133   0.29371   0.80151   0.00000  Uiso   1.00
C526   C     0.90694   0.15750   0.33967   0.00000  Uiso   1.00
C527   C     0.62563   0.05071   0.68417   0.00000  Uiso   1.00
C528   C     0.97252   0.23143   0.08167   0.00000  Uiso   1.00
C529   C     0.88266   0.45001   0.31455   0.00000  Uiso   1.00
C530   C     0.94967   0.37533   0.31510   0.00000  Uiso   1.00
C531   C     0.55125   0.11809   0.68393   0.00000  Uiso   1.00
C532   C     0.83130   0.10349   0.34055   0.00000  Uiso   1.00
C533   C     0.70872   0.36452   0.80018   0.00000  Uiso   1.00
C534   C     0.54752   0.12713   0.31378   0.00000  Uiso   1.00
C535   C     0.94246   0.37981   0.67838   0.00000  Uiso   1.00
C536   C     0.70634   0.35616   0.20004   0.00000  Uiso   1.00
C537   C     0.84306   0.09258   0.66058   0.00000  Uiso   1.00
C538   C     0.51416   0.33364   0.39227   0.00000  Uiso   1.00
C539   C     0.50032   0.24983   0.39819   0.00000  Uiso   1.00
C540   C     0.98898   0.16619   0.60833   0.00000  Uiso   1.00
C541   C     0.66673   0.48536   0.39126   0.00000  Uiso   1.00
C542   C     0.83450   0.00794   0.60626   0.00000  Uiso   1.00
C543   C     0.99186   0.16548   0.39370   0.00000  Uiso   1.00
C544   C     0.51460   0.33341   0.60867   0.00000  Uiso   1.00
C545   C     0.83375   0.01101   0.39154   0.00000  Uiso   1.00
C546   C     0.66643   0.48576   0.60750   0.00000  Uiso   1.00
C547   C     0.75704   0.08442   0.89339   0.00000  Uiso   1.00
C548   C     0.73778   0.41599   0.10783   0.00000  Uiso   1.00
C549   C     0.91610   0.23906   0.89234   0.00000  Uiso   1.00
C550   C     0.50021   0.24991   0.60188   0.00000  Uiso   1.00
C551   C     0.58321   0.26511   0.10873   0.00000  Uiso   1.00
C552   C     0.73749   0.41615   0.89108   0.00000  Uiso   1.00
C553   C     0.75717   0.08454   0.10652   0.00000  Uiso   1.00
C554   C     0.58303   0.26554   0.89117   0.00000  Uiso   1.00
C555   C     0.91633   0.23860   0.10824   0.00000  Uiso   1.00
C556   C     0.75011   0.49979   0.39812   0.00000  Uiso   1.00
C557   C     0.98163   0.22237   0.58169   0.00000  Uiso   1.00
C558   C     0.75021   0.49963   0.60179   0.00000  Uiso   1.00
C559   C     0.74978   0.49999   0.89813   0.00000  Uiso   1.00
C560   C     0.74973   0.00007   0.10182   0.00000  Uiso   1.00
C561   C     0.99986   0.25027   0.89817   0.00000  Uiso   1.00
C562   C     0.99992   0.25020   0.10186   0.00000  Uiso   1.00
C563   C     0.96087   0.19679   0.47976   0.00000  Uiso   1.00
C564   C     0.54082   0.30216   0.52032   0.00000  Uiso   1.00
C565   C     0.80317   0.03921   0.47982   0.00000  Uiso   1.00
C566   C     0.69797   0.45905   0.52007   0.00000  Uiso   1.00
C567   C     0.54082   0.30217   0.47991   0.00000  Uiso   1.00
C568   C     0.72302   0.48051   0.41820   0.00000  Uiso   1.00
C569   C     0.96073   0.19687   0.52017   0.00000  Uiso   1.00
C570   C     0.69795   0.45907   0.47966   0.00000  Uiso   1.00
C571   C     0.80327   0.03906   0.52022   0.00000  Uiso   1.00
C572   C     0.71063   0.44661   0.97969   0.00000  Uiso   1.00
C573   C     0.78813   0.05385   0.02022   0.00000  Uiso   1.00
C574   C     0.55183   0.29121   0.97987   0.00000  Uiso   1.00
C575   C     0.94731   0.21016   0.02016   0.00000  Uiso   1.00
C576   C     0.78812   0.05385   0.97982   0.00000  Uiso   1.00
C577   C     0.71058   0.44667   0.02011   0.00000  Uiso   1.00
C578   C     0.94731   0.21016   0.97976   0.00000  Uiso   1.00
C579   C     0.77800   0.01777   0.58165   0.00000  Uiso   1.00
C580   C     0.55186   0.29118   0.02028   0.00000  Uiso   1.00
C581   C     0.75001   0.49998   0.35581   0.00000  Uiso   1.00
C582   C     0.75007   0.49993   0.64415   0.00000  Uiso   1.00
C583   C     0.50006   0.24993   0.35583   0.00000  Uiso   1.00
C584   C     0.50003   0.25000   0.64419   0.00000  Uiso   1.00
C585   C     0.99994   0.25005   0.85583   0.00000  Uiso   1.00
C586   C     0.50000   0.25002   0.14418   0.00000  Uiso   1.00
C587   C     0.74996   0.00001   0.85581   0.00000  Uiso   1.00
C588   C     0.74995   0.00004   0.14417   0.00000  Uiso   1.00
C589   C     0.67989   0.06983   0.25028   0.00000  Uiso   1.00
C590   C     0.98216   0.22205   0.41834   0.00000  Uiso   1.00
C591   C     0.81982   0.42988   0.75026   0.00000  Uiso   1.00
C592   C     0.93029   0.17959   0.25038   0.00000  Uiso   1.00
C593   C     0.57015   0.31991   0.75021   0.00000  Uiso   1.00
C594   C     0.81992   0.42998   0.24989   0.00000  Uiso   1.00
C595   C     0.67998   0.06990   0.74986   0.00000  Uiso   1.00
C596   C     0.56985   0.32021   0.25025   0.00000  Uiso   1.00
C597   C     0.92992   0.17993   0.75001   0.00000  Uiso   1.00
C598   C     0.67982   0.43011   0.74977   0.00000  Uiso   1.00
C599   C     0.81970   0.07042   0.24961   0.00000  Uiso   1.00
C600   C     0.93019   0.32012   0.74973   0.00000  Uiso   1.00
C601   C     0.51947   0.27703   0.58179   0.00000  Uiso   1.00
C602   C     0.57011   0.18017   0.24972   0.00000  Uiso   1.00
C603   C     0.82003   0.07005   0.75001   0.00000  Uiso   1.00
C604   C     0.68014   0.42979   0.24975   0.00000  Uiso   1.00
C605   C     0.57006   0.18013   0.75021   0.00000  Uiso   1.00
C606   C     0.93008   0.32002   0.25012   0.00000  Uiso   1.00
C607   C     0.62651   0.40064   0.28047   0.00000  Uiso   1.00
C608   C     0.87193   0.10129   0.78203   0.00000  Uiso   1.00
C609   C     0.63234   0.15943   0.23384   0.00000  Uiso   1.00
C610   C     0.86742   0.34024   0.76563   0.00000  Uiso   1.00
C611   C     0.87202   0.10128   0.21794   0.00000  Uiso   1.00
C612   C     0.77765   0.01836   0.41829   0.00000  Uiso   1.00
C613   C     0.62634   0.40042   0.71932   0.00000  Uiso   1.00
C614   C     0.86706   0.33965   0.23635   0.00000  Uiso   1.00
C615   C     0.63276   0.15980   0.76532   0.00000  Uiso   1.00
C616   C     0.66007   0.13295   0.76472   0.00000  Uiso   1.00
C617   C     0.83998   0.36673   0.23578   0.00000  Uiso   1.00
C618   C     0.59958   0.37334   0.71928   0.00000  Uiso   1.00
C619   C     0.90035   0.12629   0.21930   0.00000  Uiso   1.00
C620   C     0.84053   0.36753   0.76593   0.00000  Uiso   1.00
C621   C     0.65968   0.13260   0.23428   0.00000  Uiso   1.00
C622   C     0.90007   0.12650   0.78089   0.00000  Uiso   1.00
C623   C     0.72301   0.48055   0.58162   0.00000  Uiso   1.00
C624   C     0.59946   0.37385   0.28046   0.00000  Uiso   1.00
C625   C     0.87641   0.15015   0.71919   0.00000  Uiso   1.00
C626   C     0.62348   0.34937   0.21954   0.00000  Uiso   1.00
C627   C     0.88260   0.40975   0.73438   0.00000  Uiso   1.00
C628   C     0.61765   0.09057   0.26618   0.00000  Uiso   1.00
C629   C     0.62324   0.35003   0.78083   0.00000  Uiso   1.00
C630   C     0.87789   0.14879   0.28199   0.00000  Uiso   1.00
C631   C     0.61710   0.09017   0.73517   0.00000  Uiso   1.00
C632   C     0.88295   0.41034   0.26365   0.00000  Uiso   1.00
C633   C     0.91002   0.38326   0.26425   0.00000  Uiso   1.00
C634   C     0.76746   0.02808   0.91833   0.00000  Uiso   1.00
C635   C     0.59000   0.11723   0.73555   0.00000  Uiso   1.00
C636   C     0.84960   0.12374   0.28066   0.00000  Uiso   1.00
C637   C     0.65016   0.37690   0.78070   0.00000  Uiso   1.00
C638   C     0.59032   0.11741   0.26577   0.00000  Uiso   1.00
C639   C     0.90946   0.38245   0.73402   0.00000  Uiso   1.00
C640   C     0.65054   0.37614   0.21956   0.00000  Uiso   1.00
C641   C     0.85114   0.12206   0.71809   0.00000  Uiso   1.00
C642   C     0.98091   0.22281   0.45911   0.00000  Uiso   1.00
C643   C     0.52047   0.27639   0.54100   0.00000  Uiso   1.00
C644   C     0.77711   0.01926   0.45907   0.00000  Uiso   1.00
H645   H     0.94522   0.17616   0.46477   0.00000  Uiso   1.00
H646   H     0.80335   0.07480   0.03519   0.00000  Uiso   1.00
H647   H     0.71882   0.34598   0.82334   0.00000  Uiso   1.00
H648   H     0.52856   0.15021   0.30756   0.00000  Uiso   1.00
H649   H     0.57181   0.13748   0.32977   0.00000  Uiso   1.00
H650   H     0.53314   0.10813   0.33350   0.00000  Uiso   1.00
H651   H     0.94153   0.34967   0.67494   0.00000  Uiso   1.00
H652   H     0.96771   0.38946   0.66425   0.00000  Uiso   1.00
H653   H     0.91925   0.39275   0.66257   0.00000  Uiso   1.00
H654   H     0.72419   0.37203   0.21975   0.00000  Uiso   1.00
H655   H     0.72198   0.34948   0.17343   0.00000  Uiso   1.00
H656   H     0.69938   0.32966   0.21386   0.00000  Uiso   1.00
H657   H     0.57213   0.30728   0.96497   0.00000  Uiso   1.00
H658   H     0.83081   0.09668   0.63142   0.00000  Uiso   1.00
H659   H     0.83587   0.06481   0.67066   0.00000  Uiso   1.00
H660   H     0.87322   0.09409   0.65716   0.00000  Uiso   1.00
H661   H     0.50420   0.34512   0.42033   0.00000  Uiso   1.00
H662   H     0.99065   0.32606   0.37360   0.00000  Uiso   1.00
H663   H     0.52937   0.35545   0.37728   0.00000  Uiso   1.00
H664   H     0.51199   0.17490   0.62716   0.00000  Uiso   1.00
H665   H     0.99962   0.15488   0.58047   0.00000  Uiso   1.00
H666   H     0.97470   0.14382   0.62354   0.00000  Uiso   1.00
H667   H     0.67402   0.00728   0.37042   0.00000  Uiso   1.00
H668   H     0.92688   0.19427   0.03509   0.00000  Uiso   1.00
H669   H     0.65616   0.49753   0.41876   0.00000  Uiso   1.00
H670   H     0.64426   0.46942   0.37829   0.00000  Uiso   1.00
H671   H     0.84515   0.49863   0.57760   0.00000  Uiso   1.00
H672   H     0.82544   0.48407   0.62361   0.00000  Uiso   1.00
H673   H     0.85746   0.02072   0.62200   0.00000  Uiso   1.00
H674   H     0.50105   0.15473   0.42236   0.00000  Uiso   1.00
H675   H     0.51577   0.17451   0.37644   0.00000  Uiso   1.00
H676   H     0.97906   0.14256   0.37785   0.00000  Uiso   1.00
H677   H     0.99285   0.32621   0.62972   0.00000  Uiso   1.00
H678   H     0.50225   0.34379   0.58118   0.00000  Uiso   1.00
H679   H     0.80333   0.07480   0.96488   0.00000  Uiso   1.00
H680   H     0.53058   0.35601   0.62132   0.00000  Uiso   1.00
H681   H     0.82502   0.48802   0.37268   0.00000  Uiso   1.00
H682   H     0.84508   0.00032   0.41936   0.00000  Uiso   1.00
H683   H     0.85608   0.02533   0.37630   0.00000  Uiso   1.00
H684   H     0.65502   0.49560   0.57937   0.00000  Uiso   1.00
H685   H     0.67390   0.00936   0.62610   0.00000  Uiso   1.00
H686   H     0.64461   0.47054   0.62245   0.00000  Uiso   1.00
H687   H     0.74726   0.09498   0.92192   0.00000  Uiso   1.00
H688   H     0.73354   0.07502   0.87568   0.00000  Uiso   1.00
H689   H     0.76970   0.10755   0.87784   0.00000  Uiso   1.00
H690   H     0.69509   0.42591   0.03501   0.00000  Uiso   1.00
H691   H     0.76136   0.42422   0.12606   0.00000  Uiso   1.00
H692   H     0.74761   0.40443   0.07976   0.00000  Uiso   1.00
H693   H     0.72321   0.39403   0.12329   0.00000  Uiso   1.00
H694   H     0.92489   0.26320   0.87527   0.00000  Uiso   1.00
H695   H     0.90415   0.24804   0.92054   0.00000  Uiso   1.00
H696   H     0.89425   0.22539   0.87566   0.00000  Uiso   1.00
H697   H     0.59383   0.25296   0.08125   0.00000  Uiso   1.00
H698   H     0.57604   0.24319   0.12962   0.00000  Uiso   1.00
H699   H     0.60560   0.28120   0.12166   0.00000  Uiso   1.00
H700   H     0.74974   0.40566   0.91856   0.00000  Uiso   1.00
H701   H     0.92690   0.19425   0.96478   0.00000  Uiso   1.00
H702   H     0.75931   0.42411   0.87043   0.00000  Uiso   1.00
H703   H     0.72214   0.39340   0.87782   0.00000  Uiso   1.00
H704   H     0.73336   0.07514   0.12372   0.00000  Uiso   1.00
H705   H     0.74785   0.09535   0.07793   0.00000  Uiso   1.00
H706   H     0.76974   0.10749   0.12252   0.00000  Uiso   1.00
H707   H     0.57588   0.24362   0.87022   0.00000  Uiso   1.00
H708   H     0.59385   0.25339   0.91856   0.00000  Uiso   1.00
H709   H     0.60524   0.28178   0.87820   0.00000  Uiso   1.00
H710   H     0.90505   0.24918   0.08035   0.00000  Uiso   1.00
H711   H     0.92490   0.26167   0.12708   0.00000  Uiso   1.00
H712   H     0.57217   0.30723   0.03523   0.00000  Uiso   1.00
H713   H     0.89400   0.22423   0.12341   0.00000  Uiso   1.00
H714   H     0.60213   0.46089   0.27090   0.00000  Uiso   1.00
H715   H     0.63976   0.47854   0.29905   0.00000  Uiso   1.00
H716   H     0.59646   0.47021   0.32164   0.00000  Uiso   1.00
H717   H     0.55674   0.32260   0.53527   0.00000  Uiso   1.00
H718   H     0.81459   0.08630   0.82918   0.00000  Uiso   1.00
H719   H     0.84392   0.12360   0.84288   0.00000  Uiso   1.00
H720   H     0.84623   0.08115   0.86860   0.00000  Uiso   1.00
H721   H     0.63901   0.21750   0.16382   0.00000  Uiso   1.00
H722   H     0.59938   0.19120   0.17474   0.00000  Uiso   1.00
H723   H     0.64246   0.16899   0.16230   0.00000  Uiso   1.00
H724   H     0.88728   0.32163   0.82969   0.00000  Uiso   1.00
H725   H     0.90029   0.27850   0.80730   0.00000  Uiso   1.00
H726   H     0.85818   0.28274   0.83317   0.00000  Uiso   1.00
H727   H     0.81505   0.08542   0.17031   0.00000  Uiso   1.00
H728   H     0.82374   0.05495   0.46491   0.00000  Uiso   1.00
H729   H     0.84707   0.08025   0.13127   0.00000  Uiso   1.00
H730   H     0.84419   0.12287   0.15672   0.00000  Uiso   1.00
H731   H     0.60050   0.47205   0.67281   0.00000  Uiso   1.00
H732   H     0.62262   0.47406   0.71933   0.00000  Uiso   1.00
H733   H     0.58012   0.44956   0.71301   0.00000  Uiso   1.00
H734   H     0.86192   0.27132   0.17704   0.00000  Uiso   1.00
H735   H     0.89668   0.30523   0.17958   0.00000  Uiso   1.00
H736   H     0.85003   0.31784   0.16680   0.00000  Uiso   1.00
H737   H     0.60022   0.19276   0.82392   0.00000  Uiso   1.00
H738   H     0.63997   0.21908   0.83417   0.00000  Uiso   1.00
H739   H     0.67759   0.44307   0.53496   0.00000  Uiso   1.00
H740   H     0.64328   0.17061   0.83662   0.00000  Uiso   1.00
H741   H     0.72233   0.10106   0.80648   0.00000  Uiso   1.00
H742   H     0.67950   0.11465   0.82898   0.00000  Uiso   1.00
H743   H     0.71835   0.14390   0.83113   0.00000  Uiso   1.00
H744   H     0.82584   0.38254   0.16967   0.00000  Uiso   1.00
H745   H     0.78241   0.39906   0.18831   0.00000  Uiso   1.00
H746   H     0.78610   0.35500   0.16582   0.00000  Uiso   1.00
H747   H     0.53942   0.39804   0.72825   0.00000  Uiso   1.00
H748   H     0.52182   0.36021   0.70033   0.00000  Uiso   1.00
H749   H     0.53042   0.40334   0.67741   0.00000  Uiso   1.00
H750   H     0.55675   0.32259   0.46501   0.00000  Uiso   1.00
H751   H     0.94453   0.15629   0.14660   0.00000  Uiso   1.00
H752   H     0.90191   0.17093   0.16711   0.00000  Uiso   1.00
H753   H     0.90488   0.13018   0.13667   0.00000  Uiso   1.00
H754   H     0.78184   0.36079   0.83535   0.00000  Uiso   1.00
H755   H     0.80902   0.40003   0.82513   0.00000  Uiso   1.00
H756   H     0.83022   0.35638   0.83737   0.00000  Uiso   1.00
H757   H     0.67825   0.11258   0.17029   0.00000  Uiso   1.00
H758   H     0.72151   0.09990   0.19249   0.00000  Uiso   1.00
H759   H     0.71686   0.14200   0.16661   0.00000  Uiso   1.00
H760   H     0.90221   0.17152   0.83288   0.00000  Uiso   1.00
H761   H     0.94501   0.17630   0.53508   0.00000  Uiso   1.00
H762   H     0.94455   0.15637   0.85364   0.00000  Uiso   1.00
H763   H     0.90450   0.13081   0.86336   0.00000  Uiso   1.00
H764   H     0.52792   0.39999   0.32683   0.00000  Uiso   1.00
H765   H     0.52595   0.37796   0.28023   0.00000  Uiso   1.00
H766   H     0.55058   0.42037   0.28675   0.00000  Uiso   1.00
H767   H     0.92127   0.15192   0.66718   0.00000  Uiso   1.00
H768   H     0.90652   0.19449   0.64660   0.00000  Uiso   1.00
H769   H     0.88065   0.15465   0.63660   0.00000  Uiso   1.00
H770   H     0.61023   0.27145   0.20089   0.00000  Uiso   1.00
H771   H     0.64780   0.28910   0.22913   0.00000  Uiso   1.00
H772   H     0.67754   0.44315   0.46471   0.00000  Uiso   1.00
H773   H     0.65356   0.27981   0.17839   0.00000  Uiso   1.00
H774   H     0.84989   0.47159   0.69262   0.00000  Uiso   1.00
H775   H     0.86278   0.42838   0.67034   0.00000  Uiso   1.00
H776   H     0.89203   0.46715   0.66685   0.00000  Uiso   1.00
H777   H     0.65061   0.05891   0.32530   0.00000  Uiso   1.00
H778   H     0.61105   0.03250   0.33621   0.00000  Uiso   1.00
H779   H     0.60746   0.08100   0.33773   0.00000  Uiso   1.00
H780   H     0.62261   0.27371   0.78801   0.00000  Uiso   1.00
H781   H     0.65259   0.28156   0.82849   0.00000  Uiso   1.00
H782   H     0.66498   0.29838   0.78183   0.00000  Uiso   1.00
H783   H     0.82388   0.05469   0.53522   0.00000  Uiso   1.00
H784   H     0.90251   0.16991   0.36871   0.00000  Uiso   1.00
H785   H     0.93470   0.16485   0.32982   0.00000  Uiso   1.00
H786   H     0.90563   0.12732   0.34326   0.00000  Uiso   1.00
H787   H     0.65002   0.03285   0.68770   0.00000  Uiso   1.00
H788   H     0.63368   0.07641   0.66914   0.00000  Uiso   1.00
H789   H     0.60627   0.03658   0.66467   0.00000  Uiso   1.00
H790   H     0.85334   0.44476   0.32042   0.00000  Uiso   1.00
H791   H     0.88807   0.47870   0.32292   0.00000  Uiso   1.00
H792   H     0.90000   0.43221   0.33319   0.00000  Uiso   1.00
H793   H     0.96752   0.35090   0.31182   0.00000  Uiso   1.00
H794   H     0.69523   0.42580   0.96474   0.00000  Uiso   1.00
H795   H     0.92406   0.36742   0.33037   0.00000  Uiso   1.00
H796   H     0.96379   0.39497   0.33430   0.00000  Uiso   1.00
H797   H     0.55638   0.14755   0.67864   0.00000  Uiso   1.00
H798   H     0.52279   0.11257   0.67489   0.00000  Uiso   1.00
H799   H     0.56950   0.10111   0.66539   0.00000  Uiso   1.00
H800   H     0.84824   0.07909   0.33282   0.00000  Uiso   1.00
H801   H     0.80550   0.09347   0.35326   0.00000  Uiso   1.00
H802   H     0.84501   0.11974   0.36337   0.00000  Uiso   1.00
H803   H     0.72819   0.38738   0.79736   0.00000  Uiso   1.00
H804   H     0.70878   0.34855   0.77252   0.00000  Uiso   1.00
O805   O     0.75000  -0.00000   0.25000   0.00000  Uiso   1.00
O806   O     0.75000   0.46964   0.66245   0.00000  Uiso   1.00
O807   O     0.94534   0.21369   0.10195   0.00000  Uiso   1.00
O808   O     0.96964   0.25000   0.33755   0.00000  Uiso   1.00
O809   O     0.53037   0.25000   0.66245   0.00000  Uiso   1.00
O810   O     0.50000   0.21963   0.83755   0.00000  Uiso   1.00
O811   O     0.50000   0.28036   0.16245   0.00000  Uiso   1.00
O812   O     0.78037   0.00000   0.83755   0.00000  Uiso   1.00
O813   O     0.71964  -0.00000   0.16245   0.00000  Uiso   1.00
O814   O     0.50000   0.28036   0.83755   0.00000  Uiso   1.00
O815   O     0.50000   0.21963   0.16245   0.00000  Uiso   1.00
O816   O     0.71964   0.00000   0.83755   0.00000  Uiso   1.00
O817   O     0.75000   0.00000   0.75000   0.00000  Uiso   1.00
O818   O     0.78037  -0.00000   0.16245   0.00000  Uiso   1.00
O819   O     0.70725   0.07307   0.27302   0.00000  Uiso   1.00
O820   O     0.79276   0.42693   0.72698   0.00000  Uiso   1.00
O821   O     0.92693   0.20724   0.27302   0.00000  Uiso   1.00
O822   O     0.57308   0.29276   0.72698   0.00000  Uiso   1.00
O823   O     0.79276   0.42693   0.27302   0.00000  Uiso   1.00
O824   O     0.70725   0.07307   0.72698   0.00000  Uiso   1.00
O825   O     0.57308   0.29276   0.27302   0.00000  Uiso   1.00
O826   O     0.92693   0.20724   0.72698   0.00000  Uiso   1.00
O827   O     0.70725   0.42693   0.72698   0.00000  Uiso   1.00
O828   O     0.50000   0.25000   0.25000   0.00000  Uiso   1.00
O829   O     0.79276   0.07307   0.27302   0.00000  Uiso   1.00
O830   O     0.92693   0.29275   0.72698   0.00000  Uiso   1.00
O831   O     0.57308   0.20725   0.27302   0.00000  Uiso   1.00
O832   O     0.79276   0.07307   0.72698   0.00000  Uiso   1.00
O833   O     0.70725   0.42693   0.27302   0.00000  Uiso   1.00
O834   O     0.57308   0.20725   0.72698   0.00000  Uiso   1.00
O835   O     0.92693   0.29275   0.27302   0.00000  Uiso   1.00
O836   O     0.95725   0.32307   0.77302   0.00000  Uiso   1.00
O837   O     0.54276   0.17693   0.22698   0.00000  Uiso   1.00
O838   O     0.67693   0.45725   0.77302   0.00000  Uiso   1.00
O839   O     0.50000   0.25000   0.75000   0.00000  Uiso   1.00
O840   O     0.82308   0.04275   0.22698   0.00000  Uiso   1.00
O841   O     0.54276   0.17693   0.77302   0.00000  Uiso   1.00
O842   O     0.95725   0.32307   0.22698   0.00000  Uiso   1.00
O843   O     0.82308   0.04275   0.77302   0.00000  Uiso   1.00
O844   O     0.67693   0.45725   0.22698   0.00000  Uiso   1.00
O845   O     0.95725   0.17692   0.22698   0.00000  Uiso   1.00
O846   O     0.54276   0.32308   0.77302   0.00000  Uiso   1.00
O847   O     0.67693   0.04275   0.22698   0.00000  Uiso   1.00
O848   O     0.82308   0.45725   0.77302   0.00000  Uiso   1.00
O849   O     0.54276   0.32308   0.22698   0.00000  Uiso   1.00
O850   O     0.75000   0.46964   0.33755   0.00000  Uiso   1.00
O851   O     0.95725   0.17692   0.77302   0.00000  Uiso   1.00
O852   O     0.82308   0.45725   0.22698   0.00000  Uiso   1.00
O853   O     0.67693   0.04275   0.77302   0.00000  Uiso   1.00
O854   O     0.62819   0.42473   0.31142   0.00000  Uiso   1.00
O855   O     0.86926   0.07890   0.81426   0.00000  Uiso   1.00
O856   O     0.63954   0.19318   0.21769   0.00000  Uiso   1.00
O857   O     0.85843   0.30564   0.77866   0.00000  Uiso   1.00
O858   O     0.86965   0.07858   0.18588   0.00000  Uiso   1.00
O859   O     0.62747   0.42512   0.68900   0.00000  Uiso   1.00
O860   O     0.85867   0.30441   0.22510   0.00000  Uiso   1.00
O861   O     0.75000   0.03036   0.66245   0.00000  Uiso   1.00
O862   O     0.64025   0.19378   0.78079   0.00000  Uiso   1.00
O863   O     0.69487   0.14215   0.77691   0.00000  Uiso   1.00
O864   O     0.80573   0.35809   0.22172   0.00000  Uiso   1.00
O865   O     0.57570   0.37150   0.68818   0.00000  Uiso   1.00
O866   O     0.92759   0.12401   0.19147   0.00000  Uiso   1.00
O867   O     0.80670   0.36021   0.78178   0.00000  Uiso   1.00
O868   O     0.69422   0.14163   0.22123   0.00000  Uiso   1.00
O869   O     0.92736   0.12424   0.80869   0.00000  Uiso   1.00
O870   O     0.57471   0.37284   0.31072   0.00000  Uiso   1.00
O871   O     0.87418   0.17740   0.69136   0.00000  Uiso   1.00
O872   O     0.53037   0.25000   0.33755   0.00000  Uiso   1.00
O873   O     0.62179   0.32528   0.18859   0.00000  Uiso   1.00
O874   O     0.89159   0.44436   0.72141   0.00000  Uiso   1.00
O875   O     0.61046   0.05682   0.28234   0.00000  Uiso   1.00
O876   O     0.62182   0.32580   0.81155   0.00000  Uiso   1.00
O877   O     0.88017   0.17156   0.31400   0.00000  Uiso   1.00
O878   O     0.60867   0.05597   0.72072   0.00000  Uiso   1.00
O879   O     0.89134   0.44559   0.27488   0.00000  Uiso   1.00
O880   O     0.94426   0.39187   0.27835   0.00000  Uiso   1.00
O881   O     0.55500   0.10892   0.72354   0.00000  Uiso   1.00
O882   O     0.82240   0.12596   0.30854   0.00000  Uiso   1.00
O883   O     0.96964   0.25000   0.66245   0.00000  Uiso   1.00
O884   O     0.67427   0.37855   0.81158   0.00000  Uiso   1.00
O885   O     0.55579   0.10840   0.27887   0.00000  Uiso   1.00
O886   O     0.94324   0.38974   0.71804   0.00000  Uiso   1.00
O887   O     0.67537   0.37706   0.18938   0.00000  Uiso   1.00
O888   O     0.82865   0.11946   0.68592   0.00000  Uiso   1.00
O889   O     0.53795   0.30364   0.39800   0.00000  Uiso   1.00
O890   O     0.96399   0.19512   0.60197   0.00000  Uiso   1.00
O891   O     0.69662   0.46163   0.39784   0.00000  Uiso   1.00
O892   O     0.80611   0.03395   0.60199   0.00000  Uiso   1.00
O893   O     0.96593   0.19395   0.39800   0.00000  Uiso   1.00
O894   O     0.75000   0.03036   0.33755   0.00000  Uiso   1.00
O895   O     0.53831   0.30347   0.60214   0.00000  Uiso   1.00
O896   O     0.80487   0.03603   0.39800   0.00000  Uiso   1.00
O897   O     0.69645   0.46198   0.60197   0.00000  Uiso   1.00
O898   O     0.78337   0.05637   0.89804   0.00000  Uiso   1.00
O899   O     0.71332   0.44544   0.10206   0.00000  Uiso   1.00
O900   O     0.94514   0.21404   0.89794   0.00000  Uiso   1.00
O901   O     0.55319   0.28867   0.10212   0.00000  Uiso   1.00
O902   O     0.71308   0.44547   0.89780   0.00000  Uiso   1.00
O903   O     0.78341   0.05639   0.10201   0.00000  Uiso   1.00
O904   O     0.55296   0.28896   0.89803   0.00000  Uiso   1.00
Zn905  Zn    0.70660  -0.00000   0.21735   0.00000  Uiso   1.00
Zn906  Zn    0.54341   0.25000   0.28265   0.00000  Uiso   1.00
Zn907  Zn    0.75000   0.45660   0.71735   0.00000  Uiso   1.00
Zn908  Zn    0.75000   0.04340   0.28265   0.00000  Uiso   1.00
Zn909  Zn    0.54341   0.25000   0.71735   0.00000  Uiso   1.00
Zn910  Zn    0.95660   0.25000   0.28265   0.00000  Uiso   1.00
Zn911  Zn    0.75000   0.04340   0.71735   0.00000  Uiso   1.00
Zn912  Zn    0.75000   0.45660   0.28265   0.00000  Uiso   1.00
Zn913  Zn    0.79341  -0.00000   0.78265   0.00000  Uiso   1.00
Zn914  Zn    0.50000   0.20659   0.21735   0.00000  Uiso   1.00
Zn915  Zn    0.50000   0.29341   0.78265   0.00000  Uiso   1.00
Zn916  Zn    0.79341  -0.00000   0.21735   0.00000  Uiso   1.00
Zn917  Zn    0.70660  -0.00000   0.78265   0.00000  Uiso   1.00
Zn918  Zn    0.50000   0.29340   0.21735   0.00000  Uiso   1.00
Zn919  Zn    0.50000   0.20660   0.78265   0.00000  Uiso   1.00
Zn920  Zn    0.95660   0.25000   0.71735   0.00000  Uiso   1.00
C921   C     0.01936   0.77708   0.41836   0.00000  Uiso   1.00
C922   C     0.23131   0.97238   0.08167   0.00000  Uiso   1.00
C923   C     0.22369   0.97944   0.54082   0.00000  Uiso   1.00
C924   C     0.02045   0.77641   0.45915   0.00000  Uiso   1.00
C925   C     0.48070   0.72294   0.54092   0.00000  Uiso   1.00
C926   C     0.22368   0.97947   0.45898   0.00000  Uiso   1.00
C927   C     0.27725   0.51901   0.54088   0.00000  Uiso   1.00
C928   C     0.23035   0.97287   0.95900   0.00000  Uiso   1.00
C929   C     0.26868   0.52739   0.04089   0.00000  Uiso   1.00
C930   C     0.02621   0.77069   0.95912   0.00000  Uiso   1.00
C931   C     0.47314   0.73043   0.04090   0.00000  Uiso   1.00
C932   C     0.26869   0.52736   0.95909   0.00000  Uiso   1.00
C933   C     0.47247   0.73150   0.91831   0.00000  Uiso   1.00
C934   C     0.23030   0.97293   0.04086   0.00000  Uiso   1.00
C935   C     0.47312   0.73046   0.95908   0.00000  Uiso   1.00
C936   C     0.02625   0.77064   0.04097   0.00000  Uiso   1.00
C937   C     0.09799   0.84816   0.25011   0.00000  Uiso   1.00
C938   C     0.40181   0.65185   0.75003   0.00000  Uiso   1.00
C939   C     0.15203   0.59807   0.25013   0.00000  Uiso   1.00
C940   C     0.34804   0.90200   0.75005   0.00000  Uiso   1.00
C941   C     0.40277   0.65095   0.25078   0.00000  Uiso   1.00
C942   C     0.09802   0.84812   0.75010   0.00000  Uiso   1.00
C943   C     0.34800   0.90194   0.24967   0.00000  Uiso   1.00
C944   C     0.02690   0.76963   0.08176   0.00000  Uiso   1.00
C945   C     0.15205   0.59806   0.74988   0.00000  Uiso   1.00
C946   C     0.09805   0.65198   0.75032   0.00000  Uiso   1.00
C947   C     0.40200   0.84806   0.25033   0.00000  Uiso   1.00
C948   C     0.15181   0.90204   0.74985   0.00000  Uiso   1.00
C949   C     0.34718   0.59909   0.24919   0.00000  Uiso   1.00
C950   C     0.40197   0.84799   0.74994   0.00000  Uiso   1.00
C951   C     0.09796   0.65194   0.24988   0.00000  Uiso   1.00
C952   C     0.34802   0.59812   0.75004   0.00000  Uiso   1.00
C953   C     0.15200   0.90185   0.24990   0.00000  Uiso   1.00
C954   C     0.00053   0.74972   0.47956   0.00000  Uiso   1.00
C955   C     0.23134   0.97229   0.91820   0.00000  Uiso   1.00
C956   C     0.00051   0.74973   0.52053   0.00000  Uiso   1.00
C957   C     0.25034   0.99943   0.47945   0.00000  Uiso   1.00
C958   C     0.25036   0.99939   0.52042   0.00000  Uiso   1.00
C959   C     0.24966   0.50001   0.97947   0.00000  Uiso   1.00
C960   C     0.24964   0.50004   0.02045   0.00000  Uiso   1.00
C961   C     0.49975   0.75047   0.97953   0.00000  Uiso   1.00
C962   C     0.49976   0.75045   0.02051   0.00000  Uiso   1.00
C963   C     0.11613   0.95983   0.29971   0.00000  Uiso   1.00
C964   C     0.34231   0.59341   0.83943   0.00000  Uiso   1.00
C965   C     0.12950   0.69223   0.17807   0.00000  Uiso   1.00
C966   C     0.26745   0.52813   0.08166   0.00000  Uiso   1.00
C967   C     0.37712   0.79732   0.81356   0.00000  Uiso   1.00
C968   C     0.34280   0.59269   0.16033   0.00000  Uiso   1.00
C969   C     0.10679   0.95631   0.69947   0.00000  Uiso   1.00
C970   C     0.36736   0.80001   0.18543   0.00000  Uiso   1.00
C971   C     0.13034   0.69361   0.82045   0.00000  Uiso   1.00
C972   C     0.20359   0.62441   0.81227   0.00000  Uiso   1.00
C973   C     0.30026   0.87463   0.18499   0.00000  Uiso   1.00
C974   C     0.04060   0.88378   0.69957   0.00000  Uiso   1.00
C975   C     0.41871   0.64642   0.15941   0.00000  Uiso   1.00
C976   C     0.30742   0.86994   0.82149   0.00000  Uiso   1.00
C977   C     0.02681   0.76974   0.91833   0.00000  Uiso   1.00
C978   C     0.20252   0.62295   0.18630   0.00000  Uiso   1.00
C979   C     0.41865   0.64682   0.84070   0.00000  Uiso   1.00
C980   C     0.04368   0.89369   0.30020   0.00000  Uiso   1.00
C981   C     0.39674   0.66861   0.65939   0.00000  Uiso   1.00
C982   C     0.13385   0.79017   0.20029   0.00000  Uiso   1.00
C983   C     0.37300   0.95268   0.68645   0.00000  Uiso   1.00
C984   C     0.12049   0.55779   0.32197   0.00000  Uiso   1.00
C985   C     0.14133   0.79371   0.80151   0.00000  Uiso   1.00
C986   C     0.40694   0.65750   0.33967   0.00000  Uiso   1.00
C987   C     0.12563   0.55071   0.68417   0.00000  Uiso   1.00
C988   C     0.47252   0.73143   0.08167   0.00000  Uiso   1.00
C989   C     0.38266   0.95001   0.31455   0.00000  Uiso   1.00
C990   C     0.44967   0.87533   0.31510   0.00000  Uiso   1.00
C991   C     0.05125   0.61809   0.68393   0.00000  Uiso   1.00
C992   C     0.33130   0.60349   0.34055   0.00000  Uiso   1.00
C993   C     0.20872   0.86452   0.80018   0.00000  Uiso   1.00
C994   C     0.04752   0.62713   0.31378   0.00000  Uiso   1.00
C995   C     0.44246   0.87981   0.67838   0.00000  Uiso   1.00
C996   C     0.20634   0.85616   0.20004   0.00000  Uiso   1.00
C997   C     0.34306   0.59258   0.66058   0.00000  Uiso   1.00
C998   C     0.01416   0.83364   0.39227   0.00000  Uiso   1.00
C999   C     0.00032   0.74983   0.39819   0.00000  Uiso   1.00
C1000  C     0.48898   0.66619   0.60833   0.00000  Uiso   1.00
C1001  C     0.16673   0.98536   0.39126   0.00000  Uiso   1.00
C1002  C     0.33450   0.50794   0.60626   0.00000  Uiso   1.00
C1003  C     0.49186   0.66548   0.39370   0.00000  Uiso   1.00
C1004  C     0.01460   0.83341   0.60867   0.00000  Uiso   1.00
C1005  C     0.33375   0.51101   0.39154   0.00000  Uiso   1.00
C1006  C     0.16643   0.98576   0.60750   0.00000  Uiso   1.00
C1007  C     0.25704   0.58442   0.89339   0.00000  Uiso   1.00
C1008  C     0.23778   0.91599   0.10783   0.00000  Uiso   1.00
C1009  C     0.41610   0.73906   0.89234   0.00000  Uiso   1.00
C1010  C     0.00021   0.74991   0.60188   0.00000  Uiso   1.00
C1011  C     0.08321   0.76511   0.10873   0.00000  Uiso   1.00
C1012  C     0.23749   0.91615   0.89108   0.00000  Uiso   1.00
C1013  C     0.25717   0.58454   0.10652   0.00000  Uiso   1.00
C1014  C     0.08303   0.76554   0.89117   0.00000  Uiso   1.00
C1015  C     0.41633   0.73860   0.10824   0.00000  Uiso   1.00
C1016  C     0.25011   0.99979   0.39812   0.00000  Uiso   1.00
C1017  C     0.48163   0.72237   0.58169   0.00000  Uiso   1.00
C1018  C     0.25021   0.99963   0.60179   0.00000  Uiso   1.00
C1019  C     0.24978   0.99999   0.89813   0.00000  Uiso   1.00
C1020  C     0.24973   0.50007   0.10182   0.00000  Uiso   1.00
C1021  C     0.49986   0.75027   0.89817   0.00000  Uiso   1.00
C1022  C     0.49992   0.75020   0.10186   0.00000  Uiso   1.00
C1023  C     0.46087   0.69679   0.47976   0.00000  Uiso   1.00
C1024  C     0.04082   0.80216   0.52032   0.00000  Uiso   1.00
C1025  C     0.30317   0.53921   0.47982   0.00000  Uiso   1.00
C1026  C     0.19797   0.95905   0.52007   0.00000  Uiso   1.00
C1027  C     0.04082   0.80217   0.47991   0.00000  Uiso   1.00
C1028  C     0.22302   0.98051   0.41820   0.00000  Uiso   1.00
C1029  C     0.46073   0.69687   0.52017   0.00000  Uiso   1.00
C1030  C     0.19795   0.95907   0.47966   0.00000  Uiso   1.00
C1031  C     0.30327   0.53906   0.52022   0.00000  Uiso   1.00
C1032  C     0.21063   0.94661   0.97969   0.00000  Uiso   1.00
C1033  C     0.28813   0.55385   0.02022   0.00000  Uiso   1.00
C1034  C     0.05183   0.79121   0.97987   0.00000  Uiso   1.00
C1035  C     0.44731   0.71016   0.02016   0.00000  Uiso   1.00
C1036  C     0.28812   0.55385   0.97982   0.00000  Uiso   1.00
C1037  C     0.21058   0.94667   0.02011   0.00000  Uiso   1.00
C1038  C     0.44731   0.71016   0.97976   0.00000  Uiso   1.00
C1039  C     0.27800   0.51777   0.58165   0.00000  Uiso   1.00
C1040  C     0.05186   0.79118   0.02028   0.00000  Uiso   1.00
C1041  C     0.25001   0.99998   0.35581   0.00000  Uiso   1.00
C1042  C     0.25007   0.99993   0.64415   0.00000  Uiso   1.00
C1043  C     0.00006   0.74993   0.35583   0.00000  Uiso   1.00
C1044  C     0.00003   0.75000   0.64419   0.00000  Uiso   1.00
C1045  C     0.49994   0.75005   0.85583   0.00000  Uiso   1.00
C1046  C    -0.00000   0.75002   0.14418   0.00000  Uiso   1.00
C1047  C     0.24996   0.50001   0.85581   0.00000  Uiso   1.00
C1048  C     0.24995   0.50004   0.14417   0.00000  Uiso   1.00
C1049  C     0.17989   0.56983   0.25028   0.00000  Uiso   1.00
C1050  C     0.48216   0.72205   0.41834   0.00000  Uiso   1.00
C1051  C     0.31982   0.92988   0.75026   0.00000  Uiso   1.00
C1052  C     0.43029   0.67959   0.25038   0.00000  Uiso   1.00
C1053  C     0.07015   0.81991   0.75021   0.00000  Uiso   1.00
C1054  C     0.31992   0.92998   0.24989   0.00000  Uiso   1.00
C1055  C     0.17998   0.56990   0.74986   0.00000  Uiso   1.00
C1056  C     0.06985   0.82021   0.25025   0.00000  Uiso   1.00
C1057  C     0.42992   0.67993   0.75001   0.00000  Uiso   1.00
C1058  C     0.17982   0.93011   0.74977   0.00000  Uiso   1.00
C1059  C     0.31970   0.57042   0.24961   0.00000  Uiso   1.00
C1060  C     0.43019   0.82012   0.74973   0.00000  Uiso   1.00
C1061  C     0.01947   0.77703   0.58179   0.00000  Uiso   1.00
C1062  C     0.07011   0.68017   0.24972   0.00000  Uiso   1.00
C1063  C     0.32003   0.57005   0.75001   0.00000  Uiso   1.00
C1064  C     0.18014   0.92979   0.24975   0.00000  Uiso   1.00
C1065  C     0.07006   0.68013   0.75021   0.00000  Uiso   1.00
C1066  C     0.43008   0.82002   0.25012   0.00000  Uiso   1.00
C1067  C     0.12651   0.90064   0.28047   0.00000  Uiso   1.00
C1068  C     0.37193   0.60129   0.78203   0.00000  Uiso   1.00
C1069  C     0.13234   0.65943   0.23384   0.00000  Uiso   1.00
C1070  C     0.36742   0.84024   0.76563   0.00000  Uiso   1.00
C1071  C     0.37202   0.60128   0.21794   0.00000  Uiso   1.00
C1072  C     0.27765   0.51836   0.41829   0.00000  Uiso   1.00
C1073  C     0.12634   0.90042   0.71932   0.00000  Uiso   1.00
C1074  C     0.36706   0.83965   0.23635   0.00000  Uiso   1.00
C1075  C     0.13276   0.65980   0.76532   0.00000  Uiso   1.00
C1076  C     0.16007   0.63295   0.76472   0.00000  Uiso   1.00
C1077  C     0.33998   0.86673   0.23578   0.00000  Uiso   1.00
C1078  C     0.09958   0.87334   0.71928   0.00000  Uiso   1.00
C1079  C     0.40035   0.62629   0.21930   0.00000  Uiso   1.00
C1080  C     0.34053   0.86753   0.76593   0.00000  Uiso   1.00
C1081  C     0.15968   0.63260   0.23428   0.00000  Uiso   1.00
C1082  C     0.40007   0.62650   0.78089   0.00000  Uiso   1.00
C1083  C     0.22301   0.98055   0.58162   0.00000  Uiso   1.00
C1084  C     0.09946   0.87385   0.28046   0.00000  Uiso   1.00
C1085  C     0.37641   0.65015   0.71919   0.00000  Uiso   1.00
C1086  C     0.12348   0.84937   0.21954   0.00000  Uiso   1.00
C1087  C     0.38260   0.90975   0.73438   0.00000  Uiso   1.00
C1088  C     0.11765   0.59057   0.26618   0.00000  Uiso   1.00
C1089  C     0.12324   0.85003   0.78083   0.00000  Uiso   1.00
C1090  C     0.37789   0.64879   0.28199   0.00000  Uiso   1.00
C1091  C     0.11710   0.59017   0.73517   0.00000  Uiso   1.00
C1092  C     0.38295   0.91034   0.26365   0.00000  Uiso   1.00
C1093  C     0.41002   0.88326   0.26425   0.00000  Uiso   1.00
C1094  C     0.26746   0.52808   0.91833   0.00000  Uiso   1.00
C1095  C     0.09000   0.61723   0.73555   0.00000  Uiso   1.00
C1096  C     0.34960   0.62374   0.28066   0.00000  Uiso   1.00
C1097  C     0.15016   0.87690   0.78070   0.00000  Uiso   1.00
C1098  C     0.09032   0.61741   0.26577   0.00000  Uiso   1.00
C1099  C     0.40946   0.88245   0.73402   0.00000  Uiso   1.00
C1100  C     0.15054   0.87614   0.21956   0.00000  Uiso   1.00
C1101  C     0.35114   0.62206   0.71809   0.00000  Uiso   1.00
C1102  C     0.48091   0.72281   0.45911   0.00000  Uiso   1.00
C1103  C     0.02047   0.77639   0.54100   0.00000  Uiso   1.00
C1104  C     0.27711   0.51926   0.45907   0.00000  Uiso   1.00
H1105  H     0.44522   0.67616   0.46477   0.00000  Uiso   1.00
H1106  H     0.30335   0.57480   0.03519   0.00000  Uiso   1.00
H1107  H     0.21882   0.84598   0.82334   0.00000  Uiso   1.00
H1108  H     0.02856   0.65021   0.30756   0.00000  Uiso   1.00
H1109  H     0.07181   0.63748   0.32977   0.00000  Uiso   1.00
H1110  H     0.03314   0.60813   0.33350   0.00000  Uiso   1.00
H1111  H     0.44153   0.84967   0.67494   0.00000  Uiso   1.00
H1112  H     0.46771   0.88946   0.66425   0.00000  Uiso   1.00
H1113  H     0.41925   0.89275   0.66257   0.00000  Uiso   1.00
H1114  H     0.22419   0.87203   0.21975   0.00000  Uiso   1.00
H1115  H     0.22198   0.84948   0.17343   0.00000  Uiso   1.00
H1116  H     0.19938   0.82966   0.21386   0.00000  Uiso   1.00
H1117  H     0.07213   0.80728   0.96497   0.00000  Uiso   1.00
H1118  H     0.33081   0.59668   0.63142   0.00000  Uiso   1.00
H1119  H     0.33587   0.56481   0.67066   0.00000  Uiso   1.00
H1120  H     0.37322   0.59409   0.65716   0.00000  Uiso   1.00
H1121  H     0.00420   0.84512   0.42033   0.00000  Uiso   1.00
H1122  H     0.49065   0.82606   0.37360   0.00000  Uiso   1.00
H1123  H     0.02937   0.85545   0.37728   0.00000  Uiso   1.00
H1124  H     0.01199   0.67490   0.62716   0.00000  Uiso   1.00
H1125  H     0.49962   0.65488   0.58047   0.00000  Uiso   1.00
H1126  H     0.47470   0.64382   0.62354   0.00000  Uiso   1.00
H1127  H     0.17402   0.50728   0.37042   0.00000  Uiso   1.00
H1128  H     0.42688   0.69427   0.03509   0.00000  Uiso   1.00
H1129  H     0.15616   0.99753   0.41876   0.00000  Uiso   1.00
H1130  H     0.14426   0.96942   0.37829   0.00000  Uiso   1.00
H1131  H     0.34515   0.99863   0.57760   0.00000  Uiso   1.00
H1132  H     0.32544   0.98407   0.62361   0.00000  Uiso   1.00
H1133  H     0.35746   0.52072   0.62200   0.00000  Uiso   1.00
H1134  H     0.00105   0.65473   0.42236   0.00000  Uiso   1.00
H1135  H     0.01577   0.67451   0.37644   0.00000  Uiso   1.00
H1136  H     0.47906   0.64256   0.37785   0.00000  Uiso   1.00
H1137  H     0.49285   0.82621   0.62972   0.00000  Uiso   1.00
H1138  H     0.00225   0.84379   0.58118   0.00000  Uiso   1.00
H1139  H     0.30333   0.57480   0.96488   0.00000  Uiso   1.00
H1140  H     0.03058   0.85601   0.62132   0.00000  Uiso   1.00
H1141  H     0.32502   0.98802   0.37268   0.00000  Uiso   1.00
H1142  H     0.34508   0.50032   0.41936   0.00000  Uiso   1.00
H1143  H     0.35608   0.52533   0.37630   0.00000  Uiso   1.00
H1144  H     0.15502   0.99560   0.57937   0.00000  Uiso   1.00
H1145  H     0.17390   0.50936   0.62610   0.00000  Uiso   1.00
H1146  H     0.14461   0.97054   0.62245   0.00000  Uiso   1.00
H1147  H     0.24726   0.59498   0.92192   0.00000  Uiso   1.00
H1148  H     0.23354   0.57502   0.87568   0.00000  Uiso   1.00
H1149  H     0.26970   0.60755   0.87784   0.00000  Uiso   1.00
H1150  H     0.19509   0.92591   0.03501   0.00000  Uiso   1.00
H1151  H     0.26136   0.92422   0.12606   0.00000  Uiso   1.00
H1152  H     0.24761   0.90443   0.07976   0.00000  Uiso   1.00
H1153  H     0.22321   0.89403   0.12329   0.00000  Uiso   1.00
H1154  H     0.42489   0.76320   0.87527   0.00000  Uiso   1.00
H1155  H     0.40415   0.74804   0.92054   0.00000  Uiso   1.00
H1156  H     0.39425   0.72539   0.87566   0.00000  Uiso   1.00
H1157  H     0.09383   0.75296   0.08125   0.00000  Uiso   1.00
H1158  H     0.07604   0.74319   0.12962   0.00000  Uiso   1.00
H1159  H     0.10560   0.78120   0.12166   0.00000  Uiso   1.00
H1160  H     0.24974   0.90566   0.91856   0.00000  Uiso   1.00
H1161  H     0.42690   0.69425   0.96478   0.00000  Uiso   1.00
H1162  H     0.25931   0.92411   0.87043   0.00000  Uiso   1.00
H1163  H     0.22214   0.89340   0.87782   0.00000  Uiso   1.00
H1164  H     0.23336   0.57514   0.12372   0.00000  Uiso   1.00
H1165  H     0.24785   0.59535   0.07793   0.00000  Uiso   1.00
H1166  H     0.26974   0.60749   0.12252   0.00000  Uiso   1.00
H1167  H     0.07588   0.74362   0.87022   0.00000  Uiso   1.00
H1168  H     0.09385   0.75339   0.91856   0.00000  Uiso   1.00
H1169  H     0.10524   0.78178   0.87820   0.00000  Uiso   1.00
H1170  H     0.40505   0.74918   0.08035   0.00000  Uiso   1.00
H1171  H     0.42490   0.76167   0.12708   0.00000  Uiso   1.00
H1172  H     0.07217   0.80723   0.03523   0.00000  Uiso   1.00
H1173  H     0.39400   0.72423   0.12341   0.00000  Uiso   1.00
H1174  H     0.10213   0.96089   0.27090   0.00000  Uiso   1.00
H1175  H     0.13976   0.97854   0.29905   0.00000  Uiso   1.00
H1176  H     0.09646   0.97021   0.32164   0.00000  Uiso   1.00
H1177  H     0.05674   0.82260   0.53527   0.00000  Uiso   1.00
H1178  H     0.31459   0.58630   0.82918   0.00000  Uiso   1.00
H1179  H     0.34392   0.62360   0.84288   0.00000  Uiso   1.00
H1180  H     0.34623   0.58115   0.86860   0.00000  Uiso   1.00
H1181  H     0.13901   0.71750   0.16382   0.00000  Uiso   1.00
H1182  H     0.09938   0.69120   0.17474   0.00000  Uiso   1.00
H1183  H     0.14246   0.66899   0.16230   0.00000  Uiso   1.00
H1184  H     0.38728   0.82163   0.82969   0.00000  Uiso   1.00
H1185  H     0.40029   0.77850   0.80730   0.00000  Uiso   1.00
H1186  H     0.35818   0.78274   0.83317   0.00000  Uiso   1.00
H1187  H     0.31505   0.58542   0.17031   0.00000  Uiso   1.00
H1188  H     0.32374   0.55495   0.46491   0.00000  Uiso   1.00
H1189  H     0.34707   0.58025   0.13127   0.00000  Uiso   1.00
H1190  H     0.34419   0.62287   0.15672   0.00000  Uiso   1.00
H1191  H     0.10050   0.97205   0.67281   0.00000  Uiso   1.00
H1192  H     0.12262   0.97406   0.71933   0.00000  Uiso   1.00
H1193  H     0.08012   0.94956   0.71301   0.00000  Uiso   1.00
H1194  H     0.36192   0.77132   0.17704   0.00000  Uiso   1.00
H1195  H     0.39668   0.80523   0.17958   0.00000  Uiso   1.00
H1196  H     0.35003   0.81784   0.16680   0.00000  Uiso   1.00
H1197  H     0.10022   0.69276   0.82392   0.00000  Uiso   1.00
H1198  H     0.13997   0.71908   0.83417   0.00000  Uiso   1.00
H1199  H     0.17759   0.94307   0.53496   0.00000  Uiso   1.00
H1200  H     0.14328   0.67061   0.83662   0.00000  Uiso   1.00
H1201  H     0.22233   0.60106   0.80648   0.00000  Uiso   1.00
H1202  H     0.17950   0.61465   0.82898   0.00000  Uiso   1.00
H1203  H     0.21835   0.64390   0.83113   0.00000  Uiso   1.00
H1204  H     0.32584   0.88254   0.16967   0.00000  Uiso   1.00
H1205  H     0.28241   0.89906   0.18831   0.00000  Uiso   1.00
H1206  H     0.28610   0.85500   0.16582   0.00000  Uiso   1.00
H1207  H     0.03942   0.89804   0.72825   0.00000  Uiso   1.00
H1208  H     0.02182   0.86021   0.70033   0.00000  Uiso   1.00
H1209  H     0.03042   0.90334   0.67741   0.00000  Uiso   1.00
H1210  H     0.05675   0.82259   0.46501   0.00000  Uiso   1.00
H1211  H     0.44453   0.65629   0.14660   0.00000  Uiso   1.00
H1212  H     0.40191   0.67093   0.16711   0.00000  Uiso   1.00
H1213  H     0.40488   0.63018   0.13667   0.00000  Uiso   1.00
H1214  H     0.28184   0.86079   0.83535   0.00000  Uiso   1.00
H1215  H     0.30902   0.90003   0.82513   0.00000  Uiso   1.00
H1216  H     0.33022   0.85638   0.83737   0.00000  Uiso   1.00
H1217  H     0.17825   0.61258   0.17029   0.00000  Uiso   1.00
H1218  H     0.22151   0.59990   0.19249   0.00000  Uiso   1.00
H1219  H     0.21686   0.64200   0.16661   0.00000  Uiso   1.00
H1220  H     0.40221   0.67152   0.83288   0.00000  Uiso   1.00
H1221  H     0.44501   0.67630   0.53508   0.00000  Uiso   1.00
H1222  H     0.44455   0.65637   0.85364   0.00000  Uiso   1.00
H1223  H     0.40450   0.63081   0.86336   0.00000  Uiso   1.00
H1224  H     0.02792   0.89999   0.32683   0.00000  Uiso   1.00
H1225  H     0.02595   0.87796   0.28023   0.00000  Uiso   1.00
H1226  H     0.05058   0.92037   0.28675   0.00000  Uiso   1.00
H1227  H     0.42127   0.65192   0.66718   0.00000  Uiso   1.00
H1228  H     0.40652   0.69449   0.64660   0.00000  Uiso   1.00
H1229  H     0.38065   0.65465   0.63660   0.00000  Uiso   1.00
H1230  H     0.11023   0.77145   0.20089   0.00000  Uiso   1.00
H1231  H     0.14780   0.78910   0.22913   0.00000  Uiso   1.00
H1232  H     0.17754   0.94315   0.46471   0.00000  Uiso   1.00
H1233  H     0.15356   0.77981   0.17839   0.00000  Uiso   1.00
H1234  H     0.34989   0.97159   0.69262   0.00000  Uiso   1.00
H1235  H     0.36278   0.92838   0.67034   0.00000  Uiso   1.00
H1236  H     0.39203   0.96715   0.66685   0.00000  Uiso   1.00
H1237  H     0.15061   0.55891   0.32530   0.00000  Uiso   1.00
H1238  H     0.11105   0.53250   0.33621   0.00000  Uiso   1.00
H1239  H     0.10746   0.58100   0.33773   0.00000  Uiso   1.00
H1240  H     0.12261   0.77371   0.78801   0.00000  Uiso   1.00
H1241  H     0.15259   0.78156   0.82849   0.00000  Uiso   1.00
H1242  H     0.16498   0.79838   0.78183   0.00000  Uiso   1.00
H1243  H     0.32388   0.55469   0.53522   0.00000  Uiso   1.00
H1244  H     0.40251   0.66991   0.36871   0.00000  Uiso   1.00
H1245  H     0.43470   0.66485   0.32982   0.00000  Uiso   1.00
H1246  H     0.40563   0.62732   0.34326   0.00000  Uiso   1.00
H1247  H     0.15002   0.53285   0.68770   0.00000  Uiso   1.00
H1248  H     0.13368   0.57641   0.66914   0.00000  Uiso   1.00
H1249  H     0.10627   0.53658   0.66467   0.00000  Uiso   1.00
H1250  H     0.35334   0.94476   0.32042   0.00000  Uiso   1.00
H1251  H     0.38807   0.97870   0.32292   0.00000  Uiso   1.00
H1252  H     0.40000   0.93221   0.33319   0.00000  Uiso   1.00
H1253  H     0.46752   0.85090   0.31182   0.00000  Uiso   1.00
H1254  H     0.19523   0.92580   0.96474   0.00000  Uiso   1.00
H1255  H     0.42406   0.86742   0.33037   0.00000  Uiso   1.00
H1256  H     0.46379   0.89497   0.33430   0.00000  Uiso   1.00
H1257  H     0.05638   0.64755   0.67864   0.00000  Uiso   1.00
H1258  H     0.02279   0.61257   0.67489   0.00000  Uiso   1.00
H1259  H     0.06950   0.60111   0.66539   0.00000  Uiso   1.00
H1260  H     0.34824   0.57909   0.33282   0.00000  Uiso   1.00
H1261  H     0.30550   0.59347   0.35326   0.00000  Uiso   1.00
H1262  H     0.34501   0.61974   0.36337   0.00000  Uiso   1.00
H1263  H     0.22819   0.88738   0.79736   0.00000  Uiso   1.00
H1264  H     0.20878   0.84855   0.77252   0.00000  Uiso   1.00
O1265  O     0.25000   0.50000   0.25000   0.00000  Uiso   1.00
O1266  O     0.25000   0.96964   0.66245   0.00000  Uiso   1.00
O1267  O     0.44534   0.71369   0.10195   0.00000  Uiso   1.00
O1268  O     0.46964   0.75000   0.33755   0.00000  Uiso   1.00
O1269  O     0.03037   0.75000   0.66245   0.00000  Uiso   1.00
O1270  O     0.00000   0.71963   0.83755   0.00000  Uiso   1.00
O1271  O     0.00000   0.78036   0.16245   0.00000  Uiso   1.00
O1272  O     0.28037   0.50000   0.83755   0.00000  Uiso   1.00
O1273  O     0.21964   0.50000   0.16245   0.00000  Uiso   1.00
O1274  O     0.00000   0.78036   0.83755   0.00000  Uiso   1.00
O1275  O     0.00000   0.71963   0.16245   0.00000  Uiso   1.00
O1276  O     0.21964   0.50000   0.83755   0.00000  Uiso   1.00
O1277  O     0.25000   0.50000   0.75000   0.00000  Uiso   1.00
O1278  O     0.28037   0.50000   0.16245   0.00000  Uiso   1.00
O1279  O     0.20725   0.57307   0.27302   0.00000  Uiso   1.00
O1280  O     0.29276   0.92693   0.72698   0.00000  Uiso   1.00
O1281  O     0.42693   0.70724   0.27302   0.00000  Uiso   1.00
O1282  O     0.07308   0.79276   0.72698   0.00000  Uiso   1.00
O1283  O     0.29276   0.92693   0.27302   0.00000  Uiso   1.00
O1284  O     0.20725   0.57307   0.72698   0.00000  Uiso   1.00
O1285  O     0.07308   0.79276   0.27302   0.00000  Uiso   1.00
O1286  O     0.42693   0.70724   0.72698   0.00000  Uiso   1.00
O1287  O     0.20725   0.92693   0.72698   0.00000  Uiso   1.00
O1288  O     0.00000   0.75000   0.25000   0.00000  Uiso   1.00
O1289  O     0.29276   0.57307   0.27302   0.00000  Uiso   1.00
O1290  O     0.42693   0.79275   0.72698   0.00000  Uiso   1.00
O1291  O     0.07308   0.70725   0.27302   0.00000  Uiso   1.00
O1292  O     0.29276   0.57307   0.72698   0.00000  Uiso   1.00
O1293  O     0.20725   0.92693   0.27302   0.00000  Uiso   1.00
O1294  O     0.07308   0.70725   0.72698   0.00000  Uiso   1.00
O1295  O     0.42693   0.79275   0.27302   0.00000  Uiso   1.00
O1296  O     0.45725   0.82307   0.77302   0.00000  Uiso   1.00
O1297  O     0.04276   0.67693   0.22698   0.00000  Uiso   1.00
O1298  O     0.17693   0.95725   0.77302   0.00000  Uiso   1.00
O1299  O     0.00000   0.75000   0.75000   0.00000  Uiso   1.00
O1300  O     0.32308   0.54275   0.22698   0.00000  Uiso   1.00
O1301  O     0.04276   0.67693   0.77302   0.00000  Uiso   1.00
O1302  O     0.45725   0.82307   0.22698   0.00000  Uiso   1.00
O1303  O     0.32308   0.54275   0.77302   0.00000  Uiso   1.00
O1304  O     0.17693   0.95725   0.22698   0.00000  Uiso   1.00
O1305  O     0.45725   0.67692   0.22698   0.00000  Uiso   1.00
O1306  O     0.04276   0.82308   0.77302   0.00000  Uiso   1.00
O1307  O     0.17693   0.54275   0.22698   0.00000  Uiso   1.00
O1308  O     0.32308   0.95725   0.77302   0.00000  Uiso   1.00
O1309  O     0.04276   0.82308   0.22698   0.00000  Uiso   1.00
O1310  O     0.25000   0.96964   0.33755   0.00000  Uiso   1.00
O1311  O     0.45725   0.67692   0.77302   0.00000  Uiso   1.00
O1312  O     0.32308   0.95725   0.22698   0.00000  Uiso   1.00
O1313  O     0.17693   0.54275   0.77302   0.00000  Uiso   1.00
O1314  O     0.12819   0.92473   0.31142   0.00000  Uiso   1.00
O1315  O     0.36926   0.57890   0.81426   0.00000  Uiso   1.00
O1316  O     0.13954   0.69318   0.21769   0.00000  Uiso   1.00
O1317  O     0.35843   0.80564   0.77866   0.00000  Uiso   1.00
O1318  O     0.36965   0.57858   0.18588   0.00000  Uiso   1.00
O1319  O     0.12747   0.92512   0.68900   0.00000  Uiso   1.00
O1320  O     0.35867   0.80441   0.22510   0.00000  Uiso   1.00
O1321  O     0.25000   0.53036   0.66245   0.00000  Uiso   1.00
O1322  O     0.14025   0.69378   0.78079   0.00000  Uiso   1.00
O1323  O     0.19487   0.64215   0.77691   0.00000  Uiso   1.00
O1324  O     0.30573   0.85809   0.22172   0.00000  Uiso   1.00
O1325  O     0.07570   0.87150   0.68818   0.00000  Uiso   1.00
O1326  O     0.42759   0.62401   0.19147   0.00000  Uiso   1.00
O1327  O     0.30670   0.86021   0.78178   0.00000  Uiso   1.00
O1328  O     0.19422   0.64163   0.22123   0.00000  Uiso   1.00
O1329  O     0.42736   0.62424   0.80869   0.00000  Uiso   1.00
O1330  O     0.07471   0.87284   0.31072   0.00000  Uiso   1.00
O1331  O     0.37418   0.67740   0.69136   0.00000  Uiso   1.00
O1332  O     0.03037   0.75000   0.33755   0.00000  Uiso   1.00
O1333  O     0.12179   0.82528   0.18859   0.00000  Uiso   1.00
O1334  O     0.39159   0.94436   0.72141   0.00000  Uiso   1.00
O1335  O     0.11046   0.55682   0.28234   0.00000  Uiso   1.00
O1336  O     0.12182   0.82580   0.81155   0.00000  Uiso   1.00
O1337  O     0.38017   0.67156   0.31400   0.00000  Uiso   1.00
O1338  O     0.10867   0.55597   0.72072   0.00000  Uiso   1.00
O1339  O     0.39134   0.94559   0.27488   0.00000  Uiso   1.00
O1340  O     0.44426   0.89187   0.27835   0.00000  Uiso   1.00
O1341  O     0.05500   0.60892   0.72354   0.00000  Uiso   1.00
O1342  O     0.32240   0.62596   0.30854   0.00000  Uiso   1.00
O1343  O     0.46964   0.75000   0.66245   0.00000  Uiso   1.00
O1344  O     0.17427   0.87855   0.81158   0.00000  Uiso   1.00
O1345  O     0.05579   0.60840   0.27887   0.00000  Uiso   1.00
O1346  O     0.44324   0.88974   0.71804   0.00000  Uiso   1.00
O1347  O     0.17537   0.87706   0.18938   0.00000  Uiso   1.00
O1348  O     0.32865   0.61946   0.68592   0.00000  Uiso   1.00
O1349  O     0.03795   0.80364   0.39800   0.00000  Uiso   1.00
O1350  O     0.46399   0.69512   0.60197   0.00000  Uiso   1.00
O1351  O     0.19662   0.96163   0.39784   0.00000  Uiso   1.00
O1352  O     0.30611   0.53395   0.60199   0.00000  Uiso   1.00
O1353  O     0.46593   0.69395   0.39800   0.00000  Uiso   1.00
O1354  O     0.25000   0.53036   0.33755   0.00000  Uiso   1.00
O1355  O     0.03831   0.80347   0.60214   0.00000  Uiso   1.00
O1356  O     0.30487   0.53603   0.39800   0.00000  Uiso   1.00
O1357  O     0.19645   0.96198   0.60197   0.00000  Uiso   1.00
O1358  O     0.28337   0.55637   0.89804   0.00000  Uiso   1.00
O1359  O     0.21332   0.94544   0.10206   0.00000  Uiso   1.00
O1360  O     0.44514   0.71404   0.89794   0.00000  Uiso   1.00
O1361  O     0.05319   0.78867   0.10212   0.00000  Uiso   1.00
O1362  O     0.21308   0.94547   0.89780   0.00000  Uiso   1.00
O1363  O     0.28341   0.55639   0.10201   0.00000  Uiso   1.00
O1364  O     0.05296   0.78896   0.89803   0.00000  Uiso   1.00
Zn1365 Zn    0.20660   0.50000   0.21735   0.00000  Uiso   1.00
Zn1366 Zn    0.04341   0.75000   0.28265   0.00000  Uiso   1.00
Zn1367 Zn    0.25000   0.95660   0.71735   0.00000  Uiso   1.00
Zn1368 Zn    0.25000   0.54340   0.28265   0.00000  Uiso   1.00
Zn1369 Zn    0.04341   0.75000   0.71735   0.00000  Uiso   1.00
Zn1370 Zn    0.45660   0.75000   0.28265   0.00000  Uiso   1.00
Zn1371 Zn    0.25000   0.54340   0.71735   0.00000  Uiso   1.00
Zn1372 Zn    0.25000   0.95660   0.28265   0.00000  Uiso   1.00
Zn1373 Zn    0.29341   0.50000   0.78265   0.00000  Uiso   1.00
Zn1374 Zn    0.00000   0.70659   0.21735   0.00000  Uiso   1.00
Zn1375 Zn    0.00000   0.79341   0.78265   0.00000  Uiso   1.00
Zn1376 Zn    0.29341   0.50000   0.21735   0.00000  Uiso   1.00
Zn1377 Zn    0.20660   0.50000   0.78265   0.00000  Uiso   1.00
Zn1378 Zn    0.00000   0.79340   0.21735   0.00000  Uiso   1.00
Zn1379 Zn    0.00000   0.70660   0.78265   0.00000  Uiso   1.00
Zn1380 Zn    0.45660   0.75000   0.71735   0.00000  Uiso   1.00
C1381  C     0.51936   0.77708   0.41836   0.00000  Uiso   1.00
C1382  C     0.73131   0.97238   0.08167   0.00000  Uiso   1.00
C1383  C     0.72369   0.97944   0.54082   0.00000  Uiso   1.00
C1384  C     0.52045   0.77641   0.45915   0.00000  Uiso   1.00
C1385  C     0.98070   0.72294   0.54092   0.00000  Uiso   1.00
C1386  C     0.72368   0.97947   0.45898   0.00000  Uiso   1.00
C1387  C     0.77725   0.51901   0.54088   0.00000  Uiso   1.00
C1388  C     0.73035   0.97287   0.95900   0.00000  Uiso   1.00
C1389  C     0.76868   0.52739   0.04089   0.00000  Uiso   1.00
C1390  C     0.52621   0.77069   0.95912   0.00000  Uiso   1.00
C1391  C     0.97314   0.73043   0.04090   0.00000  Uiso   1.00
C1392  C     0.76869   0.52736   0.95909   0.00000  Uiso   1.00
C1393  C     0.97247   0.73150   0.91831   0.00000  Uiso   1.00
C1394  C     0.73030   0.97293   0.04086   0.00000  Uiso   1.00
C1395  C     0.97312   0.73046   0.95908   0.00000  Uiso   1.00
C1396  C     0.52625   0.77064   0.04097   0.00000  Uiso   1.00
C1397  C     0.59799   0.84816   0.25011   0.00000  Uiso   1.00
C1398  C     0.90181   0.65185   0.75003   0.00000  Uiso   1.00
C1399  C     0.65203   0.59807   0.25013   0.00000  Uiso   1.00
C1400  C     0.84804   0.90200   0.75005   0.00000  Uiso   1.00
C1401  C     0.90277   0.65095   0.25078   0.00000  Uiso   1.00
C1402  C     0.59802   0.84812   0.75010   0.00000  Uiso   1.00
C1403  C     0.84800   0.90194   0.24967   0.00000  Uiso   1.00
C1404  C     0.52690   0.76963   0.08176   0.00000  Uiso   1.00
C1405  C     0.65205   0.59806   0.74988   0.00000  Uiso   1.00
C1406  C     0.59805   0.65198   0.75032   0.00000  Uiso   1.00
C1407  C     0.90200   0.84806   0.25033   0.00000  Uiso   1.00
C1408  C     0.65181   0.90204   0.74985   0.00000  Uiso   1.00
C1409  C     0.84718   0.59909   0.24919   0.00000  Uiso   1.00
C1410  C     0.90197   0.84799   0.74994   0.00000  Uiso   1.00
C1411  C     0.59796   0.65194   0.24988   0.00000  Uiso   1.00
C1412  C     0.84802   0.59812   0.75004   0.00000  Uiso   1.00
C1413  C     0.65200   0.90185   0.24990   0.00000  Uiso   1.00
C1414  C     0.50053   0.74972   0.47956   0.00000  Uiso   1.00
C1415  C     0.73134   0.97229   0.91820   0.00000  Uiso   1.00
C1416  C     0.50051   0.74973   0.52053   0.00000  Uiso   1.00
C1417  C     0.75034   0.99943   0.47945   0.00000  Uiso   1.00
C1418  C     0.75036   0.99939   0.52042   0.00000  Uiso   1.00
C1419  C     0.74966   0.50001   0.97947   0.00000  Uiso   1.00
C1420  C     0.74964   0.50004   0.02045   0.00000  Uiso   1.00
C1421  C     0.99975   0.75047   0.97953   0.00000  Uiso   1.00
C1422  C     0.99976   0.75045   0.02051   0.00000  Uiso   1.00
C1423  C     0.61613   0.95983   0.29971   0.00000  Uiso   1.00
C1424  C     0.84231   0.59341   0.83943   0.00000  Uiso   1.00
C1425  C     0.62950   0.69223   0.17807   0.00000  Uiso   1.00
C1426  C     0.76745   0.52813   0.08166   0.00000  Uiso   1.00
C1427  C     0.87712   0.79732   0.81356   0.00000  Uiso   1.00
C1428  C     0.84280   0.59269   0.16033   0.00000  Uiso   1.00
C1429  C     0.60679   0.95631   0.69947   0.00000  Uiso   1.00
C1430  C     0.86736   0.80001   0.18543   0.00000  Uiso   1.00
C1431  C     0.63034   0.69361   0.82045   0.00000  Uiso   1.00
C1432  C     0.70359   0.62441   0.81227   0.00000  Uiso   1.00
C1433  C     0.80026   0.87463   0.18499   0.00000  Uiso   1.00
C1434  C     0.54060   0.88378   0.69957   0.00000  Uiso   1.00
C1435  C     0.91871   0.64642   0.15941   0.00000  Uiso   1.00
C1436  C     0.80742   0.86994   0.82149   0.00000  Uiso   1.00
C1437  C     0.52681   0.76974   0.91833   0.00000  Uiso   1.00
C1438  C     0.70252   0.62295   0.18630   0.00000  Uiso   1.00
C1439  C     0.91865   0.64682   0.84070   0.00000  Uiso   1.00
C1440  C     0.54368   0.89369   0.30020   0.00000  Uiso   1.00
C1441  C     0.89674   0.66861   0.65939   0.00000  Uiso   1.00
C1442  C     0.63385   0.79017   0.20029   0.00000  Uiso   1.00
C1443  C     0.87300   0.95268   0.68645   0.00000  Uiso   1.00
C1444  C     0.62049   0.55779   0.32197   0.00000  Uiso   1.00
C1445  C     0.64133   0.79371   0.80151   0.00000  Uiso   1.00
C1446  C     0.90694   0.65750   0.33967   0.00000  Uiso   1.00
C1447  C     0.62563   0.55071   0.68417   0.00000  Uiso   1.00
C1448  C     0.97252   0.73143   0.08167   0.00000  Uiso   1.00
C1449  C     0.88266   0.95001   0.31455   0.00000  Uiso   1.00
C1450  C     0.94967   0.87533   0.31510   0.00000  Uiso   1.00
C1451  C     0.55125   0.61809   0.68393   0.00000  Uiso   1.00
C1452  C     0.83130   0.60349   0.34055   0.00000  Uiso   1.00
C1453  C     0.70872   0.86452   0.80018   0.00000  Uiso   1.00
C1454  C     0.54752   0.62713   0.31378   0.00000  Uiso   1.00
C1455  C     0.94246   0.87981   0.67838   0.00000  Uiso   1.00
C1456  C     0.70634   0.85616   0.20004   0.00000  Uiso   1.00
C1457  C     0.84306   0.59258   0.66058   0.00000  Uiso   1.00
C1458  C     0.51416   0.83364   0.39227   0.00000  Uiso   1.00
C1459  C     0.50032   0.74983   0.39819   0.00000  Uiso   1.00
C1460  C     0.98898   0.66619   0.60833   0.00000  Uiso   1.00
C1461  C     0.66673   0.98536   0.39126   0.00000  Uiso   1.00
C1462  C     0.83450   0.50794   0.60626   0.00000  Uiso   1.00
C1463  C     0.99186   0.66548   0.39370   0.00000  Uiso   1.00
C1464  C     0.51460   0.83341   0.60867   0.00000  Uiso   1.00
C1465  C     0.83375   0.51101   0.39154   0.00000  Uiso   1.00
C1466  C     0.66643   0.98576   0.60750   0.00000  Uiso   1.00
C1467  C     0.75704   0.58442   0.89339   0.00000  Uiso   1.00
C1468  C     0.73778   0.91599   0.10783   0.00000  Uiso   1.00
C1469  C     0.91610   0.73906   0.89234   0.00000  Uiso   1.00
C1470  C     0.50021   0.74991   0.60188   0.00000  Uiso   1.00
C1471  C     0.58321   0.76511   0.10873   0.00000  Uiso   1.00
C1472  C     0.73749   0.91615   0.89108   0.00000  Uiso   1.00
C1473  C     0.75717   0.58454   0.10652   0.00000  Uiso   1.00
C1474  C     0.58303   0.76554   0.89117   0.00000  Uiso   1.00
C1475  C     0.91633   0.73860   0.10824   0.00000  Uiso   1.00
C1476  C     0.75011   0.99979   0.39812   0.00000  Uiso   1.00
C1477  C     0.98163   0.72237   0.58169   0.00000  Uiso   1.00
C1478  C     0.75021   0.99963   0.60179   0.00000  Uiso   1.00
C1479  C     0.74978   0.99999   0.89813   0.00000  Uiso   1.00
C1480  C     0.74973   0.50007   0.10182   0.00000  Uiso   1.00
C1481  C     0.99986   0.75027   0.89817   0.00000  Uiso   1.00
C1482  C     0.99992   0.75020   0.10186   0.00000  Uiso   1.00
C1483  C     0.96087   0.69679   0.47976   0.00000  Uiso   1.00
C1484  C     0.54082   0.80216   0.52032   0.00000  Uiso   1.00
C1485  C     0.80317   0.53921   0.47982   0.00000  Uiso   1.00
C1486  C     0.69797   0.95905   0.52007   0.00000  Uiso   1.00
C1487  C     0.54082   0.80217   0.47991   0.00000  Uiso   1.00
C1488  C     0.72302   0.98051   0.41820   0.00000  Uiso   1.00
C1489  C     0.96073   0.69687   0.52017   0.00000  Uiso   1.00
C1490  C     0.69795   0.95907   0.47966   0.00000  Uiso   1.00
C1491  C     0.80327   0.53906   0.52022   0.00000  Uiso   1.00
C1492  C     0.71063   0.94661   0.97969   0.00000  Uiso   1.00
C1493  C     0.78813   0.55385   0.02022   0.00000  Uiso   1.00
C1494  C     0.55183   0.79121   0.97987   0.00000  Uiso   1.00
C1495  C     0.94731   0.71016   0.02016   0.00000  Uiso   1.00
C1496  C     0.78812   0.55385   0.97982   0.00000  Uiso   1.00
C1497  C     0.71058   0.94667   0.02011   0.00000  Uiso   1.00
C1498  C     0.94731   0.71016   0.97976   0.00000  Uiso   1.00
C1499  C     0.77800   0.51777   0.58165   0.00000  Uiso   1.00
C1500  C     0.55186   0.79118   0.02028   0.00000  Uiso   1.00
C1501  C     0.75001   0.99998   0.35581   0.00000  Uiso   1.00
C1502  C     0.75007   0.99993   0.64415   0.00000  Uiso   1.00
C1503  C     0.50006   0.74993   0.35583   0.00000  Uiso   1.00
C1504  C     0.50003   0.75000   0.64419   0.00000  Uiso   1.00
C1505  C     0.99994   0.75005   0.85583   0.00000  Uiso   1.00
C1506  C     0.50000   0.75002   0.14418   0.00000  Uiso   1.00
C1507  C     0.74996   0.50001   0.85581   0.00000  Uiso   1.00
C1508  C     0.74995   0.50004   0.14417   0.00000  Uiso   1.00
C1509  C     0.67989   0.56983   0.25028   0.00000  Uiso   1.00
C1510  C     0.98216   0.72205   0.41834   0.00000  Uiso   1.00
C1511  C     0.81982   0.92988   0.75026   0.00000  Uiso   1.00
C1512  C     0.93029   0.67959   0.25038   0.00000  Uiso   1.00
C1513  C     0.57015   0.81991   0.75021   0.00000  Uiso   1.00
C1514  C     0.81992   0.92998   0.24989   0.00000  Uiso   1.00
C1515  C     0.67998   0.56990   0.74986   0.00000  Uiso   1.00
C1516  C     0.56985   0.82021   0.25025   0.00000  Uiso   1.00
C1517  C     0.92992   0.67993   0.75001   0.00000  Uiso   1.00
C1518  C     0.67982   0.93011   0.74977   0.00000  Uiso   1.00
C1519  C     0.81970   0.57042   0.24961   0.00000  Uiso   1.00
C1520  C     0.93019   0.82012   0.74973   0.00000  Uiso   1.00
C1521  C     0.51947   0.77703   0.58179   0.00000  Uiso   1.00
C1522  C     0.57011   0.68017   0.24972   0.00000  Uiso   1.00
C1523  C     0.82003   0.57005   0.75001   0.00000  Uiso   1.00
C1524  C     0.68014   0.92979   0.24975   0.00000  Uiso   1.00
C1525  C     0.57006   0.68013   0.75021   0.00000  Uiso   1.00
C1526  C     0.93008   0.82002   0.25012   0.00000  Uiso   1.00
C1527  C     0.62651   0.90064   0.28047   0.00000  Uiso   1.00
C1528  C     0.87193   0.60129   0.78203   0.00000  Uiso   1.00
C1529  C     0.63234   0.65943   0.23384   0.00000  Uiso   1.00
C1530  C     0.86742   0.84024   0.76563   0.00000  Uiso   1.00
C1531  C     0.87202   0.60128   0.21794   0.00000  Uiso   1.00
C1532  C     0.77765   0.51836   0.41829   0.00000  Uiso   1.00
C1533  C     0.62634   0.90042   0.71932   0.00000  Uiso   1.00
C1534  C     0.86706   0.83965   0.23635   0.00000  Uiso   1.00
C1535  C     0.63276   0.65980   0.76532   0.00000  Uiso   1.00
C1536  C     0.66007   0.63295   0.76472   0.00000  Uiso   1.00
C1537  C     0.83998   0.86673   0.23578   0.00000  Uiso   1.00
C1538  C     0.59958   0.87334   0.71928   0.00000  Uiso   1.00
C1539  C     0.90035   0.62629   0.21930   0.00000  Uiso   1.00
C1540  C     0.84053   0.86753   0.76593   0.00000  Uiso   1.00
C1541  C     0.65968   0.63260   0.23428   0.00000  Uiso   1.00
C1542  C     0.90007   0.62650   0.78089   0.00000  Uiso   1.00
C1543  C     0.72301   0.98055   0.58162   0.00000  Uiso   1.00
C1544  C     0.59946   0.87385   0.28046   0.00000  Uiso   1.00
C1545  C     0.87641   0.65015   0.71919   0.00000  Uiso   1.00
C1546  C     0.62348   0.84937   0.21954   0.00000  Uiso   1.00
C1547  C     0.88260   0.90975   0.73438   0.00000  Uiso   1.00
C1548  C     0.61765   0.59057   0.26618   0.00000  Uiso   1.00
C1549  C     0.62324   0.85003   0.78083   0.00000  Uiso   1.00
C1550  C     0.87789   0.64879   0.28199   0.00000  Uiso   1.00
C1551  C     0.61710   0.59017   0.73517   0.00000  Uiso   1.00
C1552  C     0.88295   0.91034   0.26365   0.00000  Uiso   1.00
C1553  C     0.91002   0.88326   0.26425   0.00000  Uiso   1.00
C1554  C     0.76746   0.52808   0.91833   0.00000  Uiso   1.00
C1555  C     0.59000   0.61723   0.73555   0.00000  Uiso   1.00
C1556  C     0.84960   0.62374   0.28066   0.00000  Uiso   1.00
C1557  C     0.65016   0.87690   0.78070   0.00000  Uiso   1.00
C1558  C     0.59032   0.61741   0.26577   0.00000  Uiso   1.00
C1559  C     0.90946   0.88245   0.73402   0.00000  Uiso   1.00
C1560  C     0.65054   0.87614   0.21956   0.00000  Uiso   1.00
C1561  C     0.85114   0.62206   0.71809   0.00000  Uiso   1.00
C1562  C     0.98091   0.72281   0.45911   0.00000  Uiso   1.00
C1563  C     0.52047   0.77639   0.54100   0.00000  Uiso   1.00
C1564  C     0.77711   0.51926   0.45907   0.00000  Uiso   1.00
H1565  H     0.94522   0.67616   0.46477   0.00000  Uiso   1.00
H1566  H     0.80335   0.57480   0.03519   0.00000  Uiso   1.00
H1567  H     0.71882   0.84598   0.82334   0.00000  Uiso   1.00
H1568  H     0.52856   0.65021   0.30756   0.00000  Uiso   1.00
H1569  H     0.57181   0.63748   0.32977   0.00000  Uiso   1.00
H1570  H     0.53314   0.60813   0.33350   0.00000  Uiso   1.00
H1571  H     0.94153   0.84967   0.67494   0.00000  Uiso   1.00
H1572  H     0.96771   0.88946   0.66425   0.00000  Uiso   1.00
H1573  H     0.91925   0.89275   0.66257   0.00000  Uiso   1.00
H1574  H     0.72419   0.87203   0.21975   0.00000  Uiso   1.00
H1575  H     0.72198   0.84948   0.17343   0.00000  Uiso   1.00
H1576  H     0.69938   0.82966   0.21386   0.00000  Uiso   1.00
H1577  H     0.57213   0.80728   0.96497   0.00000  Uiso   1.00
H1578  H     0.83081   0.59668   0.63142   0.00000  Uiso   1.00
H1579  H     0.83587   0.56481   0.67066   0.00000  Uiso   1.00
H1580  H     0.87322   0.59409   0.65716   0.00000  Uiso   1.00
H1581  H     0.50420   0.84512   0.42033   0.00000  Uiso   1.00
H1582  H     0.99065   0.82606   0.37360   0.00000  Uiso   1.00
H1583  H     0.52937   0.85545   0.37728   0.00000  Uiso   1.00
H1584  H     0.51199   0.67490   0.62716   0.00000  Uiso   1.00
H1585  H     0.99962   0.65488   0.58047   0.00000  Uiso   1.00
H1586  H     0.97470   0.64382   0.62354   0.00000  Uiso   1.00
H1587  H     0.67402   0.50728   0.37042   0.00000  Uiso   1.00
H1588  H     0.92688   0.69427   0.03509   0.00000  Uiso   1.00
H1589  H     0.65616   0.99753   0.41876   0.00000  Uiso   1.00
H1590  H     0.64426   0.96942   0.37829   0.00000  Uiso   1.00
H1591  H     0.84515   0.99863   0.57760   0.00000  Uiso   1.00
H1592  H     0.82544   0.98407   0.62361   0.00000  Uiso   1.00
H1593  H     0.85746   0.52072   0.62200   0.00000  Uiso   1.00
H1594  H     0.50105   0.65473   0.42236   0.00000  Uiso   1.00
H1595  H     0.51577   0.67451   0.37644   0.00000  Uiso   1.00
H1596  H     0.97906   0.64256   0.37785   0.00000  Uiso   1.00
H1597  H     0.99285   0.82621   0.62972   0.00000  Uiso   1.00
H1598  H     0.50225   0.84379   0.58118   0.00000  Uiso   1.00
H1599  H     0.80333   0.57480   0.96488   0.00000  Uiso   1.00
H1600  H     0.53058   0.85601   0.62132   0.00000  Uiso   1.00
H1601  H     0.82502   0.98802   0.37268   0.00000  Uiso   1.00
H1602  H     0.84508   0.50032   0.41936   0.00000  Uiso   1.00
H1603  H     0.85608   0.52533   0.37630   0.00000  Uiso   1.00
H1604  H     0.65502   0.99560   0.57937   0.00000  Uiso   1.00
H1605  H     0.67390   0.50936   0.62610   0.00000  Uiso   1.00
H1606  H     0.64461   0.97054   0.62245   0.00000  Uiso   1.00
H1607  H     0.74726   0.59498   0.92192   0.00000  Uiso   1.00
H1608  H     0.73354   0.57502   0.87568   0.00000  Uiso   1.00
H1609  H     0.76970   0.60755   0.87784   0.00000  Uiso   1.00
H1610  H     0.69509   0.92591   0.03501   0.00000  Uiso   1.00
H1611  H     0.76136   0.92422   0.12606   0.00000  Uiso   1.00
H1612  H     0.74761   0.90443   0.07976   0.00000  Uiso   1.00
H1613  H     0.72321   0.89403   0.12329   0.00000  Uiso   1.00
H1614  H     0.92489   0.76320   0.87527   0.00000  Uiso   1.00
H1615  H     0.90415   0.74804   0.92054   0.00000  Uiso   1.00
H1616  H     0.89425   0.72539   0.87566   0.00000  Uiso   1.00
H1617  H     0.59383   0.75296   0.08125   0.00000  Uiso   1.00
H1618  H     0.57604   0.74319   0.12962   0.00000  Uiso   1.00
H1619  H     0.60560   0.78120   0.12166   0.00000  Uiso   1.00
H1620  H     0.74974   0.90566   0.91856   0.00000  Uiso   1.00
H1621  H     0.92690   0.69425   0.96478   0.00000  Uiso   1.00
H1622  H     0.75931   0.92411   0.87043   0.00000  Uiso   1.00
H1623  H     0.72214   0.89340   0.87782   0.00000  Uiso   1.00
H1624  H     0.73336   0.57514   0.12372   0.00000  Uiso   1.00
H1625  H     0.74785   0.59535   0.07793   0.00000  Uiso   1.00
H1626  H     0.76974   0.60749   0.12252   0.00000  Uiso   1.00
H1627  H     0.57588   0.74362   0.87022   0.00000  Uiso   1.00
H1628  H     0.59385   0.75339   0.91856   0.00000  Uiso   1.00
H1629  H     0.60524   0.78178   0.87820   0.00000  Uiso   1.00
H1630  H     0.90505   0.74918   0.08035   0.00000  Uiso   1.00
H1631  H     0.92490   0.76167   0.12708   0.00000  Uiso   1.00
H1632  H     0.57217   0.80723   0.03523   0.00000  Uiso   1.00
H1633  H     0.89400   0.72423   0.12341   0.00000  Uiso   1.00
H1634  H     0.60213   0.96089   0.27090   0.00000  Uiso   1.00
H1635  H     0.63976   0.97854   0.29905   0.00000  Uiso   1.00
H1636  H     0.59646   0.97021   0.32164   0.00000  Uiso   1.00
H1637  H     0.55674   0.82260   0.53527   0.00000  Uiso   1.00
H1638  H     0.81459   0.58630   0.82918   0.00000  Uiso   1.00
H1639  H     0.84392   0.62360   0.84288   0.00000  Uiso   1.00
H1640  H     0.84623   0.58115   0.86860   0.00000  Uiso   1.00
H1641  H     0.63901   0.71750   0.16382   0.00000  Uiso   1.00
H1642  H     0.59938   0.69120   0.17474   0.00000  Uiso   1.00
H1643  H     0.64246   0.66899   0.16230   0.00000  Uiso   1.00
H1644  H     0.88728   0.82163   0.82969   0.00000  Uiso   1.00
H1645  H     0.90029   0.77850   0.80730   0.00000  Uiso   1.00
H1646  H     0.85818   0.78274   0.83317   0.00000  Uiso   1.00
H1647  H     0.81505   0.58542   0.17031   0.00000  Uiso   1.00
H1648  H     0.82374   0.55495   0.46491   0.00000  Uiso   1.00
H1649  H     0.84707   0.58025   0.13127   0.00000  Uiso   1.00
H1650  H     0.84419   0.62287   0.15672   0.00000  Uiso   1.00
H1651  H     0.60050   0.97205   0.67281   0.00000  Uiso   1.00
H1652  H     0.62262   0.97406   0.71933   0.00000  Uiso   1.00
H1653  H     0.58012   0.94956   0.71301   0.00000  Uiso   1.00
H1654  H     0.86192   0.77132   0.17704   0.00000  Uiso   1.00
H1655  H     0.89668   0.80523   0.17958   0.00000  Uiso   1.00
H1656  H     0.85003   0.81784   0.16680   0.00000  Uiso   1.00
H1657  H     0.60022   0.69276   0.82392   0.00000  Uiso   1.00
H1658  H     0.63997   0.71908   0.83417   0.00000  Uiso   1.00
H1659  H     0.67759   0.94307   0.53496   0.00000  Uiso   1.00
H1660  H     0.64328   0.67061   0.83662   0.00000  Uiso   1.00
H1661  H     0.72233   0.60106   0.80648   0.00000  Uiso   1.00
H1662  H     0.67950   0.61465   0.82898   0.00000  Uiso   1.00
H1663  H     0.71835   0.64390   0.83113   0.00000  Uiso   1.00
H1664  H     0.82584   0.88254   0.16967   0.00000  Uiso   1.00
H1665  H     0.78241   0.89906   0.18831   0.00000  Uiso   1.00
H1666  H     0.78610   0.85500   0.16582   0.00000  Uiso   1.00
H1667  H     0.53942   0.89804   0.72825   0.00000  Uiso   1.00
H1668  H     0.52182   0.86021   0.70033   0.00000  Uiso   1.00
H1669  H     0.53042   0.90334   0.67741   0.00000  Uiso   1.00
H1670  H     0.55675   0.82259   0.46501   0.00000  Uiso   1.00
H1671  H     0.94453   0.65629   0.14660   0.00000  Uiso   1.00
H1672  H     0.90191   0.67093   0.16711   0.00000  Uiso   1.00
H1673  H     0.90488   0.63018   0.13667   0.00000  Uiso   1.00
H1674  H     0.78184   0.86079   0.83535   0.00000  Uiso   1.00
H1675  H     0.80902   0.90003   0.82513   0.00000  Uiso   1.00
H1676  H     0.83022   0.85638   0.83737   0.00000  Uiso   1.00
H1677  H     0.67825   0.61258   0.17029   0.00000  Uiso   1.00
H1678  H     0.72151   0.59990   0.19249   0.00000  Uiso   1.00
H1679  H     0.71686   0.64200   0.16661   0.00000  Uiso   1.00
H1680  H     0.90221   0.67152   0.83288   0.00000  Uiso   1.00
H1681  H     0.94501   0.67630   0.53508   0.00000  Uiso   1.00
H1682  H     0.94455   0.65637   0.85364   0.00000  Uiso   1.00
H1683  H     0.90450   0.63081   0.86336   0.00000  Uiso   1.00
H1684  H     0.52792   0.89999   0.32683   0.00000  Uiso   1.00
H1685  H     0.52595   0.87796   0.28023   0.00000  Uiso   1.00
H1686  H     0.55058   0.92037   0.28675   0.00000  Uiso   1.00
H1687  H     0.92127   0.65192   0.66718   0.00000  Uiso   1.00
H1688  H     0.90652   0.69449   0.64660   0.00000  Uiso   1.00
H1689  H     0.88065   0.65465   0.63660   0.00000  Uiso   1.00
H1690  H     0.61023   0.77145   0.20089   0.00000  Uiso   1.00
H1691  H     0.64780   0.78910   0.22913   0.00000  Uiso   1.00
H1692  H     0.67754   0.94315   0.46471   0.00000  Uiso   1.00
H1693  H     0.65356   0.77981   0.17839   0.00000  Uiso   1.00
H1694  H     0.84989   0.97159   0.69262   0.00000  Uiso   1.00
H1695  H     0.86278   0.92838   0.67034   0.00000  Uiso   1.00
H1696  H     0.89203   0.96715   0.66685   0.00000  Uiso   1.00
H1697  H     0.65061   0.55891   0.32530   0.00000  Uiso   1.00
H1698  H     0.61105   0.53250   0.33621   0.00000  Uiso   1.00
H1699  H     0.60746   0.58100   0.33773   0.00000  Uiso   1.00
H1700  H     0.62261   0.77371   0.78801   0.00000  Uiso   1.00
H1701  H     0.65259   0.78156   0.82849   0.00000  Uiso   1.00
H1702  H     0.66498   0.79838   0.78183   0.00000  Uiso   1.00
H1703  H     0.82388   0.55469   0.53522   0.00000  Uiso   1.00
H1704  H     0.90251   0.66991   0.36871   0.00000  Uiso   1.00
H1705  H     0.93470   0.66485   0.32982   0.00000  Uiso   1.00
H1706  H     0.90563   0.62732   0.34326   0.00000  Uiso   1.00
H1707  H     0.65002   0.53285   0.68770   0.00000  Uiso   1.00
H1708  H     0.63368   0.57641   0.66914   0.00000  Uiso   1.00
H1709  H     0.60627   0.53658   0.66467   0.00000  Uiso   1.00
H1710  H     0.85334   0.94476   0.32042   0.00000  Uiso   1.00
H1711  H     0.88807   0.97870   0.32292   0.00000  Uiso   1.00
H1712  H     0.90000   0.93221   0.33319   0.00000  Uiso   1.00
H1713  H     0.96752   0.85090   0.31182   0.00000  Uiso   1.00
H1714  H     0.69523   0.92580   0.96474   0.00000  Uiso   1.00
H1715  H     0.92406   0.86742   0.33037   0.00000  Uiso   1.00
H1716  H     0.96379   0.89497   0.33430   0.00000  Uiso   1.00
H1717  H     0.55638   0.64755   0.67864   0.00000  Uiso   1.00
H1718  H     0.52279   0.61257   0.67489   0.00000  Uiso   1.00
H1719  H     0.56950   0.60111   0.66539   0.00000  Uiso   1.00
H1720  H     0.84824   0.57909   0.33282   0.00000  Uiso   1.00
H1721  H     0.80550   0.59347   0.35326   0.00000  Uiso   1.00
H1722  H     0.84501   0.61974   0.36337   0.00000  Uiso   1.00
H1723  H     0.72819   0.88738   0.79736   0.00000  Uiso   1.00
H1724  H     0.70878   0.84855   0.77252   0.00000  Uiso   1.00
O1725  O     0.75000   0.50000   0.25000   0.00000  Uiso   1.00
O1726  O     0.75000   0.96964   0.66245   0.00000  Uiso   1.00
O1727  O     0.94534   0.71369   0.10195   0.00000  Uiso   1.00
O1728  O     0.96964   0.75000   0.33755   0.00000  Uiso   1.00
O1729  O     0.53037   0.75000   0.66245   0.00000  Uiso   1.00
O1730  O     0.50000   0.71963   0.83755   0.00000  Uiso   1.00
O1731  O     0.50000   0.78036   0.16245   0.00000  Uiso   1.00
O1732  O     0.78037   0.50000   0.83755   0.00000  Uiso   1.00
O1733  O     0.71964   0.50000   0.16245   0.00000  Uiso   1.00
O1734  O     0.50000   0.78036   0.83755   0.00000  Uiso   1.00
O1735  O     0.50000   0.71963   0.16245   0.00000  Uiso   1.00
O1736  O     0.71964   0.50000   0.83755   0.00000  Uiso   1.00
O1737  O     0.75000   0.50000   0.75000   0.00000  Uiso   1.00
O1738  O     0.78037   0.50000   0.16245   0.00000  Uiso   1.00
O1739  O     0.70725   0.57307   0.27302   0.00000  Uiso   1.00
O1740  O     0.79276   0.92693   0.72698   0.00000  Uiso   1.00
O1741  O     0.92693   0.70724   0.27302   0.00000  Uiso   1.00
O1742  O     0.57308   0.79276   0.72698   0.00000  Uiso   1.00
O1743  O     0.79276   0.92693   0.27302   0.00000  Uiso   1.00
O1744  O     0.70725   0.57307   0.72698   0.00000  Uiso   1.00
O1745  O     0.57308   0.79276   0.27302   0.00000  Uiso   1.00
O1746  O     0.92693   0.70724   0.72698   0.00000  Uiso   1.00
O1747  O     0.70725   0.92693   0.72698   0.00000  Uiso   1.00
O1748  O     0.50000   0.75000   0.25000   0.00000  Uiso   1.00
O1749  O     0.79276   0.57307   0.27302   0.00000  Uiso   1.00
O1750  O     0.92693   0.79275   0.72698   0.00000  Uiso   1.00
O1751  O     0.57308   0.70725   0.27302   0.00000  Uiso   1.00
O1752  O     0.79276   0.57307   0.72698   0.00000  Uiso   1.00
O1753  O     0.70725   0.92693   0.27302   0.00000  Uiso   1.00
O1754  O     0.57308   0.70725   0.72698   0.00000  Uiso   1.00
O1755  O     0.92693   0.79275   0.27302   0.00000  Uiso   1.00
O1756  O     0.95725   0.82307   0.77302   0.00000  Uiso   1.00
O1757  O     0.54276   0.67693   0.22698   0.00000  Uiso   1.00
O1758  O     0.67693   0.95725   0.77302   0.00000  Uiso   1.00
O1759  O     0.50000   0.75000   0.75000   0.00000  Uiso   1.00
O1760  O     0.82308   0.54275   0.22698   0.00000  Uiso   1.00
O1761  O     0.54276   0.67693   0.77302   0.00000  Uiso   1.00
O1762  O     0.95725   0.82307   0.22698   0.00000  Uiso   1.00
O1763  O     0.82308   0.54275   0.77302   0.00000  Uiso   1.00
O1764  O     0.67693   0.95725   0.22698   0.00000  Uiso   1.00
O1765  O     0.95725   0.67692   0.22698   0.00000  Uiso   1.00
O1766  O     0.54276   0.82308   0.77302   0.00000  Uiso   1.00
O1767  O     0.67693   0.54275   0.22698   0.00000  Uiso   1.00
O1768  O     0.82308   0.95725   0.77302   0.00000  Uiso   1.00
O1769  O     0.54276   0.82308   0.22698   0.00000  Uiso   1.00
O1770  O     0.75000   0.96964   0.33755   0.00000  Uiso   1.00
O1771  O     0.95725   0.67692   0.77302   0.00000  Uiso   1.00
O1772  O     0.82308   0.95725   0.22698   0.00000  Uiso   1.00
O1773  O     0.67693   0.54275   0.77302   0.00000  Uiso   1.00
O1774  O     0.62819   0.92473   0.31142   0.00000  Uiso   1.00
O1775  O     0.86926   0.57890   0.81426   0.00000  Uiso   1.00
O1776  O     0.63954   0.69318   0.21769   0.00000  Uiso   1.00
O1777  O     0.85843   0.80564   0.77866   0.00000  Uiso   1.00
O1778  O     0.86965   0.57858   0.18588   0.00000  Uiso   1.00
O1779  O     0.62747   0.92512   0.68900   0.00000  Uiso   1.00
O1780  O     0.85867   0.80441   0.22510   0.00000  Uiso   1.00
O1781  O     0.75000   0.53036   0.66245   0.00000  Uiso   1.00
O1782  O     0.64025   0.69378   0.78079   0.00000  Uiso   1.00
O1783  O     0.69487   0.64215   0.77691   0.00000  Uiso   1.00
O1784  O     0.80573   0.85809   0.22172   0.00000  Uiso   1.00
O1785  O     0.57570   0.87150   0.68818   0.00000  Uiso   1.00
O1786  O     0.92759   0.62401   0.19147   0.00000  Uiso   1.00
O1787  O     0.80670   0.86021   0.78178   0.00000  Uiso   1.00
O1788  O     0.69422   0.64163   0.22123   0.00000  Uiso   1.00
O1789  O     0.92736   0.62424   0.80869   0.00000  Uiso   1.00
O1790  O     0.57471   0.87284   0.31072   0.00000  Uiso   1.00
O1791  O     0.87418   0.67740   0.69136   0.00000  Uiso   1.00
O1792  O     0.53037   0.75000   0.33755   0.00000  Uiso   1.00
O1793  O     0.62179   0.82528   0.18859   0.00000  Uiso   1.00
O1794  O     0.89159   0.94436   0.72141   0.00000  Uiso   1.00
O1795  O     0.61046   0.55682   0.28234   0.00000  Uiso   1.00
O1796  O     0.62182   0.82580   0.81155   0.00000  Uiso   1.00
O1797  O     0.88017   0.67156   0.31400   0.00000  Uiso   1.00
O1798  O     0.60867   0.55597   0.72072   0.00000  Uiso   1.00
O1799  O     0.89134   0.94559   0.27488   0.00000  Uiso   1.00
O1800  O     0.94426   0.89187   0.27835   0.00000  Uiso   1.00
O1801  O     0.55500   0.60892   0.72354   0.00000  Uiso   1.00
O1802  O     0.82240   0.62596   0.30854   0.00000  Uiso   1.00
O1803  O     0.96964   0.75000   0.66245   0.00000  Uiso   1.00
O1804  O     0.67427   0.87855   0.81158   0.00000  Uiso   1.00
O1805  O     0.55579   0.60840   0.27887   0.00000  Uiso   1.00
O1806  O     0.94324   0.88974   0.71804   0.00000  Uiso   1.00
O1807  O     0.67537   0.87706   0.18938   0.00000  Uiso   1.00
O1808  O     0.82865   0.61946   0.68592   0.00000  Uiso   1.00
O1809  O     0.53795   0.80364   0.39800   0.00000  Uiso   1.00
O1810  O     0.96399   0.69512   0.60197   0.00000  Uiso   1.00
O1811  O     0.69662   0.96163   0.39784   0.00000  Uiso   1.00
O1812  O     0.80611   0.53395   0.60199   0.00000  Uiso   1.00
O1813  O     0.96593   0.69395   0.39800   0.00000  Uiso   1.00
O1814  O     0.75000   0.53036   0.33755   0.00000  Uiso   1.00
O1815  O     0.53831   0.80347   0.60214   0.00000  Uiso   1.00
O1816  O     0.80487   0.53603   0.39800   0.00000  Uiso   1.00
O1817  O     0.69645   0.96198   0.60197   0.00000  Uiso   1.00
O1818  O     0.78337   0.55637   0.89804   0.00000  Uiso   1.00
O1819  O     0.71332   0.94544   0.10206   0.00000  Uiso   1.00
O1820  O     0.94514   0.71404   0.89794   0.00000  Uiso   1.00
O1821  O     0.55319   0.78867   0.10212   0.00000  Uiso   1.00
O1822  O     0.71308   0.94547   0.89780   0.00000  Uiso   1.00
O1823  O     0.78341   0.55639   0.10201   0.00000  Uiso   1.00
O1824  O     0.55296   0.78896   0.89803   0.00000  Uiso   1.00
Zn1825 Zn    0.70660   0.50000   0.21735   0.00000  Uiso   1.00
Zn1826 Zn    0.54341   0.75000   0.28265   0.00000  Uiso   1.00
Zn1827 Zn    0.75000   0.95660   0.71735   0.00000  Uiso   1.00
Zn1828 Zn    0.75000   0.54340   0.28265   0.00000  Uiso   1.00
Zn1829 Zn    0.54341   0.75000   0.71735   0.00000  Uiso   1.00
Zn1830 Zn    0.95660   0.75000   0.28265   0.00000  Uiso   1.00
Zn1831 Zn    0.75000   0.54340   0.71735   0.00000  Uiso   1.00
Zn1832 Zn    0.75000   0.95660   0.28265   0.00000  Uiso   1.00
Zn1833 Zn    0.79341   0.50000   0.78265   0.00000  Uiso   1.00
Zn1834 Zn    0.50000   0.70659   0.21735   0.00000  Uiso   1.00
Zn1835 Zn    0.50000   0.79341   0.78265   0.00000  Uiso   1.00
Zn1836 Zn    0.79341   0.50000   0.21735   0.00000  Uiso   1.00
Zn1837 Zn    0.70660   0.50000   0.78265   0.00000  Uiso   1.00
Zn1838 Zn    0.50000   0.79340   0.21735   0.00000  Uiso   1.00
Zn1839 Zn    0.50000   0.70660   0.78265   0.00000  Uiso   1.00
Zn1840 Zn    0.95660   0.75000   0.71735   0.00000  Uiso   1.00
loop_
_geom_bond_atom_site_label_1
_geom_bond_atom_site_label_2
_geom_bond_distance
_geom_bond_site_symmetry_2
_ccdc_geom_bond_type
C1     O429    1.384   .     S
C1     C4      1.404   .     A
C1     C79     1.406   .     A
C2     C14     1.405   .     A
C2     O439    1.384   .     S
C2     C1020   1.406   .     S
C3     C163    1.404   .     A
C3     C106    1.403   .     A
C3     C38     1.413   .     A
C4     C107    1.403   .     A
C4     C34     1.413   .     A
C5     C109    1.403   .     A
C5     C97     1.403   .     A
C5     C496    1.413   .     S
C6     C110    1.403   .     A
C6     C37     1.414   .     A
C6     C108    1.404   .     A
C7     C119    1.404   .     A
C7     C111    1.403   .     A
C7     C958    1.413   1_545 S
C8     C35     1.404   .     A
C8     C112    1.403   .     A
C8     C959    1.414   .     S
C9     C46     1.404   .     A
C9     C113    1.403   .     A
C9     C40     1.413   .     A
C10    C114    1.403   .     A
C10    C57     1.404   .     A
C10    C501    1.414   1_455 S
C11    C115    1.403   .     A
C11    C42     1.413   .     A
C11    C68     1.403   .     A
C12    C174    1.403   .     A
C12    C116    1.403   .     A
C12    C39     1.413   .     A
C13    O440    1.384   .     S
C13    C15     1.404   .     A
C13    C101    1.406   .     A
C14    C117    1.404   .     A
C14    C960    1.413   .     S
C15    C118    1.403   .     A
C15    C41     1.413   .     A
C16    C120    1.403   .     A
C16    C24     1.404   .     A
C16    C502    1.414   1_455 S
C17    C166    1.408   .     A
C17    C164    1.407   .     A
C17    C136    1.460   .     S
C18    C137    1.463   .     S
C18    C165    1.413   .     A
C18    C162    1.413   .     A
C19    C129    1.447   .     S
C19    C161    1.409   .     A
C19    C168    1.406   .     A
C20    C160    1.406   .     A
C20    C167    1.409   .     A
C20    C131    1.447   .     S
C21    C159    1.413   .     A
C21    C132    1.463   .     S
C21    C170    1.412   .     A
C22    C133    1.460   .     S
C22    C158    1.409   .     A
C22    C169    1.406   .     A
C23    C134    1.447   .     S
C23    C157    1.409   .     A
C23    C172    1.405   .     A
C24    O441    1.385   .     S
C24    C562    1.407   1_455 S
C25    C171    1.410   .     A
C25    C135    1.447   .     S
C25    C156    1.410   .     A
C26    C155    1.405   .     A
C26    C145    1.447   .     S
C26    C175    1.404   .     A
C27    C154    1.405   .     A
C27    C146    1.447   .     S
C27    C173    1.409   .     A
C28    C153    1.407   .     A
C28    C177    1.407   .     A
C28    C138    1.460   .     S
C29    C151    1.412   .     A
C29    C139    1.462   .     S
C29    C176    1.413   .     A
C30    C150    1.409   .     A
C30    C179    1.406   .     A
C30    C140    1.446   .     S
C31    C178    1.409   .     A
C31    C149    1.406   .     A
C31    C142    1.446   .     S
C32    C181    1.412   .     A
C32    C148    1.412   .     A
C32    C143    1.460   .     S
C33    C147    1.408   .     A
C33    C144    1.461   .     S
C33    C180    1.407   .     A
C34    C36     1.410   .     A
C34    C642    1.413   1_455 S
C35    O442    1.385   .     S
C35    C99     1.406   .     A
C36    C183    1.413   .     A
C36    C465    1.413   1_455 S
C37    C38     1.410   .     A
C37    C1104   1.413   .     S
C38    C927    1.413   .     S
C39    C928    1.414   1_545 S
C39    C40     1.410   1_556 S
C40    C934    1.413   1_545 S
C40    C39     1.410   1_554 S
C41    C470    1.414   .     S
C41    C42     1.410   1_556 S
C42    C476    1.414   .     S
C42    C41     1.410   1_554 S
C43    H256    1.109   .     S
C43    O394    1.415   .     S
C43    H254    1.117   .     S
C43    H255    1.110   .     S
C44    H258    1.109   .     S
C44    H260    1.109   .     S
C44    O395    1.414   .     S
C44    H259    1.114   .     S
C45    H261    1.107   .     S
C45    H263    1.112   .     S
C45    H262    1.111   .     S
C45    O396    1.412   .     S
C46    O443    1.384   .     S
C46    C100    1.405   .     A
C47    H264    1.116   .     S
C47    O397    1.414   .     S
C47    H266    1.109   .     S
C47    H265    1.110   .     S
C48    O398    1.414   .     S
C48    H270    1.114   .     S
C48    H267    1.109   .     S
C48    H269    1.109   .     S
C49    H273    1.113   .     S
C49    H271    1.107   .     S
C49    O399    1.412   .     S
C49    H272    1.110   .     S
C50    H274    1.109   .     S
C50    O400    1.411   .     S
C50    H275    1.112   .     S
C50    H276    1.111   .     S
C51    H280    1.112   .     S
C51    H277    1.111   .     S
C51    H278    1.106   .     S
C51    O402    1.412   .     S
C52    O403    1.414   .     S
C52    H281    1.110   .     S
C52    H283    1.109   .     S
C52    H282    1.116   .     S
C53    H285    1.109   .     S
C53    H284    1.117   .     S
C53    H286    1.108   .     S
C53    O404    1.415   .     S
C54    H287    1.117   .     S
C54    H289    1.109   .     S
C54    O405    1.415   .     S
C54    H288    1.110   .     S
C55    H291    1.108   .     S
C55    H293    1.108   .     S
C55    O406    1.412   .     S
C55    H292    1.115   .     S
C56    H294    1.107   .     S
C56    H296    1.112   .     S
C56    H295    1.111   .     S
C56    O407    1.412   .     S
C57    O444    1.385   .     S
C57    C561    1.406   1_455 S
C58    H298    1.110   .     S
C58    O408    1.414   .     S
C58    H299    1.109   .     S
C58    H297    1.116   .     S
C59    H302    1.108   .     S
C59    H300    1.115   .     S
C59    H303    1.108   .     S
C59    O409    1.412   .     S
C60    H305    1.110   .     S
C60    H304    1.107   .     S
C60    H306    1.113   .     S
C60    O410    1.412   .     S
C61    H307    1.115   .     S
C61    O411    1.412   .     S
C61    H309    1.108   .     S
C61    H308    1.108   .     S
C62    H310    1.110   .     S
C62    H313    1.109   .     S
C62    O413    1.415   .     S
C62    H311    1.117   .     S
C63    H315    1.116   .     S
C63    O414    1.414   .     S
C63    H316    1.109   .     S
C63    H314    1.110   .     S
C64    H319    1.112   .     S
C64    H318    1.107   .     S
C64    H317    1.111   .     S
C64    O415    1.412   .     S
C65    H321    1.108   .     S
C65    H320    1.110   .     S
C65    H322    1.115   .     S
C65    O416    1.413   .     S
C66    H325    1.109   .     S
C66    O417    1.414   .     S
C66    H326    1.114   .     S
C66    H324    1.109   .     S
C67    H327    1.109   .     S
C67    O418    1.415   .     S
C67    H329    1.108   .     S
C67    H328    1.117   .     S
C68    O347    1.384   .     S
C68    C102    1.406   .     A
C69    H331    1.109   .     S
C69    O419    1.411   .     S
C69    H330    1.112   .     S
C69    H332    1.111   .     S
C70    H333    1.109   .     S
C70    O420    1.415   .     S
C70    H336    1.108   .     S
C70    H335    1.117   .     S
C71    O421    1.411   .     S
C71    H337    1.112   .     S
C71    H338    1.109   .     S
C71    H339    1.111   .     S
C72    H342    1.108   .     S
C72    H340    1.115   .     S
C72    O422    1.412   .     S
C72    H341    1.108   .     S
C73    H343    1.110   .     S
C73    H187    1.109   .     S
C73    H344    1.117   .     S
C73    O424    1.414   .     S
C74    H190    1.109   .     S
C74    O425    1.414   .     S
C74    H188    1.110   .     S
C74    H189    1.116   .     S
C75    O426    1.412   .     S
C75    H191    1.111   .     S
C75    H193    1.112   .     S
C75    H192    1.107   .     S
C76    H195    1.107   .     S
C76    O427    1.412   .     S
C76    H194    1.110   .     S
C76    H196    1.113   .     S
C77    O428    1.413   .     S
C77    H198    1.109   .     S
C77    H200    1.114   .     S
C77    H199    1.109   .     S
C78    H203    1.107   .     S
C78    H201    1.113   .     S
C78    O429    1.410   .     S
C78    H662    1.112   1_455 S
C79    C123    1.457   .     S
C79    C590    1.405   1_455 S
C80    O430    1.411   .     S
C80    H206    1.109   .     S
C80    H205    1.113   .     S
C80    H664    1.112   .     S
C81    H209    1.114   .     S
C81    O431    1.411   .     S
C81    H210    1.108   .     S
C81    H1127   1.112   .     S
C82    O432    1.412   .     S
C82    H213    1.108   .     S
C82    H1131   1.113   1_545 S
C82    H1132   1.112   1_545 S
C83    O433    1.412   .     S
C83    H216    1.108   .     S
C83    H674    1.113   .     S
C83    H675    1.112   .     S
C84    O435    1.411   .     S
C84    H218    1.114   .     S
C84    H220    1.108   .     S
C84    H677    1.112   1_455 S
C85    H222    1.113   .     S
C85    H223    1.109   .     S
C85    O436    1.411   .     S
C85    H1141   1.112   1_545 S
C86    O437    1.410   .     S
C86    H224    1.113   .     S
C86    H226    1.107   .     S
C86    H1145   1.112   .     S
C87    H229    1.108   .     S
C87    H228    1.112   .     S
C87    O438    1.412   .     S
C87    H227    1.113   .     S
C88    H232    1.113   .     S
C88    H233    1.107   .     S
C88    O439    1.410   .     S
C88    H231    1.112   .     S
C89    H236    1.109   .     S
C89    H235    1.113   .     S
C89    O440    1.411   .     S
C89    H234    1.112   .     S
C90    C141    1.406   .     A
C90    C124    1.456   .     S
C90    C557    1.406   1_455 S
C91    H239    1.108   .     S
C91    O441    1.411   .     S
C91    H238    1.112   .     S
C91    H237    1.114   .     S
C92    H242    1.111   .     S
C92    H240    1.114   .     S
C92    H243    1.108   .     S
C92    O442    1.410   .     S
C93    H244    1.112   .     S
C93    O443    1.412   .     S
C93    H246    1.109   .     S
C93    H245    1.113   .     S
C94    H247    1.112   .     S
C94    O444    1.410   .     S
C94    H249    1.107   .     S
C94    H248    1.114   .     S
C95    H253    1.109   .     S
C95    H250    1.113   .     S
C95    O347    1.411   .     S
C95    H251    1.112   .     S
C96    C108    1.406   .     A
C96    C121    1.456   .     S
C96    C1072   1.406   .     S
C97    O430    1.384   .     S
C97    C550    1.406   .     S
C98    C122    1.458   .     S
C98    C163    1.406   .     A
C98    C1039   1.405   .     S
C99    C1047   1.456   .     S
C99    C1094   1.405   .     S
C100   C128    1.457   .     S
C100   C922    1.406   1_545 S
C101   C125    1.457   .     S
C101   C517    1.406   .     S
C102   C586    1.456   .     S
C102   C484    1.407   .     S
C103   H185    1.083   .     S
C103   C109    1.390   .     A
C103   C182    1.403   .     A
C104   C183    1.403   .     A
C104   C107    1.390   .     A
C104   H257    1.083   .     S
C105   H268    1.083   .     S
C105   C184    1.403   .     A
C105   C111    1.390   .     A
C106   C110    1.390   .     A
C106   H279    1.083   .     S
C107   H290    1.083   .     S
C108   O431    1.385   .     S
C109   H301    1.083   .     S
C110   H312    1.083   .     S
C111   H323    1.083   .     S
C112   H334    1.083   .     S
C112   C117    1.391   1_556 S
C113   H186    1.083   .     S
C113   C116    1.390   1_554 S
C114   H197    1.083   .     S
C114   C120    1.390   1_556 S
C115   H208    1.083   .     S
C115   C118    1.390   1_554 S
C116   H219    1.083   .     S
C116   C113    1.390   1_556 S
C117   H230    1.083   .     S
C117   C112    1.391   1_554 S
C118   H241    1.083   .     S
C118   C115    1.390   1_556 S
C119   O432    1.383   .     S
C119   C1018   1.405   1_545 S
C120   H252    1.083   .     S
C120   C114    1.390   1_554 S
C121   O390    1.276   .     A
C121   O1354   1.279   .     S
C122   O346    1.276   .     A
C122   O1321   1.280   .     S
C123   O412    1.277   .     A
C123   O808    1.280   1_455 S
C124   O349    1.277   .     A
C124   O883    1.279   1_455 S
C125   O810    1.279   .     A
C125   O814    1.277   .     A
C126   O355    1.279   .     A
C126   C562    1.456   1_455 S
C126   O351    1.276   .     A
C127   C1019   1.456   1_545 S
C127   O352    1.280   .     S
C127   O356    1.277   .     S
C128   O358    1.280   .     A
C128   O353    1.277   .     A
C129   O359    1.278   .     A
C129   O387    1.280   .     A
C130   O433    1.383   .     S
C130   C182    1.404   .     A
C130   C539    1.405   .     S
C131   O388    1.278   .     A
C131   O360    1.280   .     A
C132   O361    1.283   .     A
C132   O385    1.278   .     A
C133   O386    1.279   .     A
C133   O362    1.279   .     A
C134   O392    1.279   .     A
C134   O363    1.281   .     A
C135   O364    1.279   .     A
C135   O393    1.281   .     A
C136   O365    1.280   .     A
C136   O389    1.279   .     A
C137   O366    1.281   .     A
C137   O391    1.281   .     A
C138   O367    1.280   .     A
C138   O378    1.279   .     A
C139   O369    1.278   .     A
C139   O380    1.283   .     A
C140   O370    1.278   .     A
C140   O376    1.280   .     A
C141   O435    1.385   .     S
C141   C183    1.404   .     A
C142   O377    1.278   .     A
C142   O371    1.280   .     A
C143   O383    1.280   .     A
C143   O372    1.280   .     A
C144   O373    1.279   .     A
C144   O384    1.280   .     A
C145   O381    1.279   .     A
C145   O374    1.281   .     A
C146   O382    1.281   .     A
C146   O375    1.279   .     A
C147   C164    1.402   .     A
C147   O394    1.384   .     S
C148   C162    1.392   .     A
C148   O395    1.384   .     S
C149   C161    1.397   .     A
C149   O396    1.384   .     S
C150   C160    1.397   .     A
C150   O397    1.387   .     S
C151   C159    1.392   .     A
C151   O398    1.384   .     S
C152   O436    1.384   .     S
C152   C184    1.403   .     A
C152   C1016   1.406   1_545 S
C153   O399    1.382   .     S
C153   C158    1.402   .     A
C154   O400    1.385   .     S
C154   C157    1.397   .     A
C155   O402    1.383   .     S
C155   C156    1.397   .     A
C156   O403    1.387   .     S
C157   O404    1.385   .     S
C158   O405    1.384   .     S
C159   O406    1.386   .     S
C160   O407    1.384   .     S
C161   O408    1.387   .     S
C162   O409    1.386   .     S
C163   O437    1.384   .     S
C164   O410    1.382   .     S
C165   O411    1.386   .     S
C165   C181    1.392   .     A
C166   O413    1.384   .     S
C166   C180    1.402   .     A
C167   C179    1.397   .     A
C167   O414    1.387   .     S
C168   O415    1.384   .     S
C168   C178    1.397   .     A
C169   C177    1.401   .     A
C169   O416    1.382   .     S
C170   C176    1.392   .     A
C170   O417    1.384   .     S
C171   O418    1.385   .     S
C171   C175    1.397   .     A
C172   O419    1.385   .     S
C172   C173    1.397   .     A
C173   O420    1.385   .     S
C174   O438    1.384   .     S
C174   C1019   1.405   1_545 S
C175   O421    1.384   .     S
C176   O422    1.386   .     S
C177   O424    1.384   .     S
C178   O425    1.387   .     S
C179   O426    1.384   .     S
C180   O427    1.382   .     S
C181   O428    1.384   .     S
C182   C494    1.413   .     S
C184   C957    1.413   1_545 S
H202   C538    1.112   .     S
H204   C540    1.112   1_455 S
H207   C1001   1.112   1_545 S
H211   C1002   1.113   .     S
H212   C1002   1.112   .     S
H214   C543    1.113   1_455 S
H215   C543    1.112   1_455 S
H217   C544    1.112   .     S
H221   C1005   1.112   .     S
H225   C1006   1.112   1_545 S
O345   Zn456   1.948   .     S
O345   Zn448   1.946   .     S
O345   Zn445   1.948   .     S
O345   Zn1372  1.948   1_545 S
O346   Zn447   1.949   .     S
O348   Zn450   1.948   .     S
O348   C583    1.280   .     S
O349   Zn449   1.948   .     S
O350   C585    1.279   1_455 A
O350   Zn459   1.948   .     S
O351   Zn458   1.948   .     S
O352   Zn453   1.949   .     S
O353   Zn445   1.949   .     S
O354   C585    1.277   1_455 A
O354   Zn455   1.949   .     S
O355   Zn454   1.949   .     S
O356   Zn457   1.948   .     S
O357   Zn1367  1.946   1_545 S
O357   Zn451   1.948   .     S
O357   Zn453   1.948   .     S
O357   Zn457   1.948   .     S
O358   Zn456   1.948   .     S
O359   Zn448   1.928   .     S
O360   Zn447   1.928   .     S
O361   Zn450   1.944   .     S
O362   Zn449   1.944   .     S
O363   Zn452   1.928   .     S
O364   Zn451   1.928   .     S
O365   Zn446   1.944   .     S
O366   Zn460   1.944   .     S
O367   Zn447   1.945   .     S
O368   Zn458   1.948   .     S
O368   Zn454   1.946   .     S
O368   Zn910   1.948   1_455 S
O368   Zn446   1.948   .     S
O369   Zn448   1.945   .     S
O370   Zn460   1.927   .     S
O371   Zn446   1.927   .     S
O372   Zn451   1.944   .     S
O373   Zn452   1.944   .     S
O374   Zn449   1.927   .     S
O375   Zn450   1.927   .     S
O376   Zn915   1.928   .     S
O377   Zn454   1.928   .     S
O378   Zn1377  1.944   .     S
O379   Zn920   1.948   1_455 S
O379   Zn449   1.948   .     S
O379   Zn455   1.946   .     S
O379   Zn459   1.948   .     S
O380   Zn456   1.944   .     S
O381   Zn459   1.928   .     S
O382   Zn918   1.928   .     S
O383   Zn453   1.944   .     S
O384   Zn1365  1.944   .     S
O385   Zn914   1.945   .     S
O386   Zn455   1.945   .     S
O387   Zn445   1.927   .     S
O388   Zn1373  1.927   .     S
O389   Zn458   1.944   .     S
O390   Zn452   1.948   .     S
O391   Zn919   1.944   .     S
O392   Zn1376  1.927   .     S
O393   Zn457   1.927   .     S
O401   Zn451   1.948   .     S
O401   C1042   1.280   1_545 S
O412   Zn446   1.949   .     S
O423   Zn460   1.949   .     S
O423   C584    1.279   .     S
O434   Zn448   1.949   .     S
O434   C1041   1.279   1_545 S
Zn445  O1304   1.944   1_545 S
Zn447  O1277   1.946   .     S
Zn450  O828    1.948   .     S
Zn452  O1265   1.948   .     S
Zn453  O1308   1.927   1_545 S
Zn454  O845    1.945   1_455 S
Zn455  O836    1.928   1_455 S
Zn456  O1312   1.927   1_545 S
Zn457  O1298   1.944   1_545 S
Zn458  O842    1.928   1_455 S
Zn459  O851    1.944   1_455 S
Zn460  O839    1.948   .     S
C461   O889    1.384   .     S
C461   C464    1.404   .     A
C461   C539    1.406   .     A
C462   C474    1.405   .     A
C462   O899    1.384   .     S
C462   C1480   1.406   .     S
C463   C623    1.404   .     A
C463   C566    1.403   .     A
C463   C498    1.413   .     A
C464   C567    1.403   .     A
C464   C494    1.413   .     A
C465   C569    1.403   .     A
C465   C557    1.403   .     A
C465   C36     1.413   1_655 S
C466   C570    1.403   .     A
C466   C497    1.414   .     A
C466   C568    1.404   .     A
C467   C579    1.404   .     A
C467   C571    1.403   .     A
C467   C1418   1.413   1_545 S
C468   C495    1.404   .     A
C468   C572    1.403   .     A
C468   C1419   1.414   .     S
C469   C506    1.404   .     A
C469   C573    1.403   .     A
C469   C500    1.413   .     A
C470   C574    1.403   .     A
C470   C517    1.404   .     A
C471   C575    1.403   .     A
C471   C502    1.413   .     A
C471   C528    1.403   .     A
C472   C634    1.403   .     A
C472   C576    1.403   .     A
C472   C499    1.413   .     A
C473   O900    1.384   .     S
C473   C475    1.404   .     A
C473   C561    1.406   .     A
C474   C577    1.404   .     A
C474   C1420   1.413   .     S
C475   C578    1.403   .     A
C475   C501    1.413   .     A
C476   C580    1.403   .     A
C476   C484    1.404   .     A
C477   C626    1.408   .     A
C477   C624    1.407   .     A
C477   C596    1.460   .     S
C478   C597    1.463   .     S
C478   C625    1.413   .     A
C478   C622    1.413   .     A
C479   C589    1.447   .     S
C479   C621    1.409   .     A
C479   C628    1.406   .     A
C480   C620    1.406   .     A
C480   C627    1.409   .     A
C480   C591    1.447   .     S
C481   C619    1.413   .     A
C481   C592    1.463   .     S
C481   C630    1.412   .     A
C482   C593    1.460   .     S
C482   C618    1.409   .     A
C482   C629    1.406   .     A
C483   C594    1.447   .     S
C483   C617    1.409   .     A
C483   C632    1.405   .     A
C484   O901    1.385   .     S
C485   C631    1.410   .     A
C485   C595    1.447   .     S
C485   C616    1.410   .     A
C486   C615    1.405   .     A
C486   C605    1.447   .     S
C486   C635    1.404   .     A
C487   C614    1.405   .     A
C487   C606    1.447   .     S
C487   C633    1.409   .     A
C488   C613    1.407   .     A
C488   C637    1.407   .     A
C488   C598    1.460   .     S
C489   C611    1.412   .     A
C489   C599    1.462   .     S
C489   C636    1.413   .     A
C490   C610    1.409   .     A
C490   C639    1.406   .     A
C490   C600    1.446   .     S
C491   C638    1.409   .     A
C491   C609    1.406   .     A
C491   C602    1.446   .     S
C492   C641    1.412   .     A
C492   C608    1.412   .     A
C492   C603    1.460   .     S
C493   C607    1.408   .     A
C493   C604    1.461   .     S
C493   C640    1.407   .     A
C494   C496    1.410   .     A
C495   O902    1.385   .     S
C495   C559    1.406   .     A
C496   C643    1.413   .     A
C497   C498    1.410   .     A
C497   C1564   1.413   .     S
C498   C1387   1.413   .     S
C499   C1388   1.414   1_545 S
C499   C500    1.410   1_556 S
C500   C1394   1.413   1_545 S
C500   C499    1.410   1_554 S
C501   C10     1.414   1_655 S
C501   C502    1.410   1_556 S
C502   C16     1.414   1_655 S
C502   C501    1.410   1_554 S
C503   H716    1.109   .     S
C503   O854    1.415   .     S
C503   H714    1.117   .     S
C503   H715    1.110   .     S
C504   H718    1.109   .     S
C504   H720    1.109   .     S
C504   O855    1.414   .     S
C504   H719    1.114   .     S
C505   H721    1.107   .     S
C505   H723    1.112   .     S
C505   H722    1.111   .     S
C505   O856    1.412   .     S
C506   O903    1.384   .     S
C506   C560    1.405   .     A
C507   H724    1.116   .     S
C507   O857    1.414   .     S
C507   H726    1.109   .     S
C507   H725    1.110   .     S
C508   O858    1.414   .     S
C508   H730    1.114   .     S
C508   H727    1.109   .     S
C508   H729    1.109   .     S
C509   H733    1.113   .     S
C509   H731    1.107   .     S
C509   O859    1.412   .     S
C509   H732    1.110   .     S
C510   H734    1.109   .     S
C510   O860    1.411   .     S
C510   H735    1.112   .     S
C510   H736    1.111   .     S
C511   H740    1.112   .     S
C511   H737    1.111   .     S
C511   H738    1.106   .     S
C511   O862    1.412   .     S
C512   O863    1.414   .     S
C512   H741    1.110   .     S
C512   H743    1.109   .     S
C512   H742    1.116   .     S
C513   H745    1.109   .     S
C513   H744    1.117   .     S
C513   H746    1.108   .     S
C513   O864    1.415   .     S
C514   H747    1.117   .     S
C514   H749    1.109   .     S
C514   O865    1.415   .     S
C514   H748    1.110   .     S
C515   H751    1.108   .     S
C515   H753    1.108   .     S
C515   O866    1.412   .     S
C515   H752    1.115   .     S
C516   H754    1.107   .     S
C516   H756    1.112   .     S
C516   H755    1.111   .     S
C516   O867    1.412   .     S
C517   O904    1.385   .     S
C518   H758    1.110   .     S
C518   O868    1.414   .     S
C518   H759    1.109   .     S
C518   H757    1.116   .     S
C519   H762    1.108   .     S
C519   H760    1.115   .     S
C519   H763    1.108   .     S
C519   O869    1.412   .     S
C520   H765    1.110   .     S
C520   H764    1.107   .     S
C520   H766    1.113   .     S
C520   O870    1.412   .     S
C521   H767    1.115   .     S
C521   O871    1.412   .     S
C521   H769    1.108   .     S
C521   H768    1.108   .     S
C522   H770    1.110   .     S
C522   H773    1.109   .     S
C522   O873    1.415   .     S
C522   H771    1.117   .     S
C523   H775    1.116   .     S
C523   O874    1.414   .     S
C523   H776    1.109   .     S
C523   H774    1.110   .     S
C524   H779    1.112   .     S
C524   H778    1.107   .     S
C524   H777    1.111   .     S
C524   O875    1.412   .     S
C525   H781    1.108   .     S
C525   H780    1.110   .     S
C525   H782    1.115   .     S
C525   O876    1.413   .     S
C526   H785    1.109   .     S
C526   O877    1.414   .     S
C526   H786    1.114   .     S
C526   H784    1.109   .     S
C527   H787    1.109   .     S
C527   O878    1.415   .     S
C527   H789    1.108   .     S
C527   H788    1.117   .     S
C528   O807    1.384   .     S
C528   C562    1.406   .     A
C529   H791    1.109   .     S
C529   O879    1.411   .     S
C529   H790    1.112   .     S
C529   H792    1.111   .     S
C530   H793    1.109   .     S
C530   O880    1.415   .     S
C530   H796    1.108   .     S
C530   H795    1.117   .     S
C531   O881    1.411   .     S
C531   H797    1.112   .     S
C531   H798    1.109   .     S
C531   H799    1.111   .     S
C532   H802    1.108   .     S
C532   H800    1.115   .     S
C532   O882    1.412   .     S
C532   H801    1.108   .     S
C533   H803    1.110   .     S
C533   H647    1.109   .     S
C533   H804    1.117   .     S
C533   O884    1.414   .     S
C534   H650    1.109   .     S
C534   O885    1.414   .     S
C534   H648    1.110   .     S
C534   H649    1.116   .     S
C535   O886    1.412   .     S
C535   H651    1.111   .     S
C535   H653    1.112   .     S
C535   H652    1.107   .     S
C536   H655    1.107   .     S
C536   O887    1.412   .     S
C536   H654    1.110   .     S
C536   H656    1.113   .     S
C537   O888    1.413   .     S
C537   H658    1.109   .     S
C537   H660    1.114   .     S
C537   H659    1.109   .     S
C538   H663    1.107   .     S
C538   H661    1.113   .     S
C538   O889    1.410   .     S
C539   C583    1.457   .     S
C540   O890    1.411   .     S
C540   H666    1.109   .     S
C540   H665    1.113   .     S
C540   H204    1.112   1_655 S
C541   H669    1.114   .     S
C541   O891    1.411   .     S
C541   H670    1.108   .     S
C541   H1587   1.112   .     S
C542   O892    1.412   .     S
C542   H673    1.108   .     S
C542   H1591   1.113   1_545 S
C542   H1592   1.112   1_545 S
C543   O893    1.412   .     S
C543   H676    1.108   .     S
C543   H214    1.113   1_655 S
C543   H215    1.112   1_655 S
C544   O895    1.411   .     S
C544   H678    1.114   .     S
C544   H680    1.108   .     S
C545   H682    1.113   .     S
C545   H683    1.109   .     S
C545   O896    1.411   .     S
C545   H1601   1.112   1_545 S
C546   O897    1.410   .     S
C546   H684    1.113   .     S
C546   H686    1.107   .     S
C546   H1605   1.112   .     S
C547   H689    1.108   .     S
C547   H688    1.112   .     S
C547   O898    1.412   .     S
C547   H687    1.113   .     S
C548   H692    1.113   .     S
C548   H693    1.107   .     S
C548   O899    1.410   .     S
C548   H691    1.112   .     S
C549   H696    1.109   .     S
C549   H695    1.113   .     S
C549   O900    1.411   .     S
C549   H694    1.112   .     S
C550   C601    1.406   .     A
C550   C584    1.456   .     S
C551   H699    1.108   .     S
C551   O901    1.411   .     S
C551   H698    1.112   .     S
C551   H697    1.114   .     S
C552   H702    1.111   .     S
C552   H700    1.114   .     S
C552   H703    1.108   .     S
C552   O902    1.410   .     S
C553   H704    1.112   .     S
C553   O903    1.412   .     S
C553   H706    1.109   .     S
C553   H705    1.113   .     S
C554   H707    1.112   .     S
C554   O904    1.410   .     S
C554   H709    1.107   .     S
C554   H708    1.114   .     S
C555   H713    1.109   .     S
C555   H710    1.113   .     S
C555   O807    1.411   .     S
C555   H711    1.112   .     S
C556   C568    1.406   .     A
C556   C581    1.456   .     S
C556   C1532   1.406   .     S
C557   O890    1.384   .     S
C557   C90     1.406   1_655 S
C558   C582    1.458   .     S
C558   C623    1.406   .     A
C558   C1499   1.405   .     S
C559   C1507   1.456   .     S
C559   C1554   1.405   .     S
C560   C588    1.457   .     S
C560   C1382   1.406   1_545 S
C561   C585    1.457   .     S
C561   C57     1.406   1_655 S
C562   C126    1.456   1_655 S
C562   C24     1.407   1_655 S
C563   H645    1.083   .     S
C563   C569    1.390   .     A
C563   C642    1.403   .     A
C564   C643    1.403   .     A
C564   C567    1.390   .     A
C564   H717    1.083   .     S
C565   H728    1.083   .     S
C565   C644    1.403   .     A
C565   C571    1.390   .     A
C566   C570    1.390   .     A
C566   H739    1.083   .     S
C567   H750    1.083   .     S
C568   O891    1.385   .     S
C569   H761    1.083   .     S
C570   H772    1.083   .     S
C571   H783    1.083   .     S
C572   H794    1.083   .     S
C572   C577    1.391   1_556 S
C573   H646    1.083   .     S
C573   C576    1.390   1_554 S
C574   H657    1.083   .     S
C574   C580    1.390   1_556 S
C575   H668    1.083   .     S
C575   C578    1.390   1_554 S
C576   H679    1.083   .     S
C576   C573    1.390   1_556 S
C577   H690    1.083   .     S
C577   C572    1.391   1_554 S
C578   H701    1.083   .     S
C578   C575    1.390   1_556 S
C579   O892    1.383   .     S
C579   C1478   1.405   1_545 S
C580   H712    1.083   .     S
C580   C574    1.390   1_554 S
C581   O850    1.276   .     A
C581   O1814   1.279   .     S
C582   O806    1.276   .     A
C582   O1781   1.280   .     S
C583   O872    1.277   .     A
C584   O809    1.277   .     A
C585   O350    1.279   1_655 A
C585   O354    1.277   1_655 A
C586   O815    1.279   .     A
C586   O811    1.276   .     A
C587   C1479   1.456   1_545 S
C587   O812    1.280   .     S
C587   O816    1.277   .     S
C588   O818    1.280   .     A
C588   O813    1.277   .     A
C589   O819    1.278   .     A
C589   O847    1.280   .     A
C590   O893    1.383   .     S
C590   C642    1.404   .     A
C590   C79     1.405   1_655 S
C591   O848    1.278   .     A
C591   O820    1.280   .     A
C592   O821    1.283   .     A
C592   O845    1.278   .     A
C593   O846    1.279   .     A
C593   O822    1.279   .     A
C594   O852    1.279   .     A
C594   O823    1.281   .     A
C595   O824    1.279   .     A
C595   O853    1.281   .     A
C596   O825    1.280   .     A
C596   O849    1.279   .     A
C597   O826    1.281   .     A
C597   O851    1.281   .     A
C598   O827    1.280   .     A
C598   O838    1.279   .     A
C599   O829    1.278   .     A
C599   O840    1.283   .     A
C600   O830    1.278   .     A
C600   O836    1.280   .     A
C601   O895    1.385   .     S
C601   C643    1.404   .     A
C602   O837    1.278   .     A
C602   O831    1.280   .     A
C603   O843    1.280   .     A
C603   O832    1.280   .     A
C604   O833    1.279   .     A
C604   O844    1.280   .     A
C605   O841    1.279   .     A
C605   O834    1.281   .     A
C606   O842    1.281   .     A
C606   O835    1.279   .     A
C607   C624    1.402   .     A
C607   O854    1.384   .     S
C608   C622    1.392   .     A
C608   O855    1.384   .     S
C609   C621    1.397   .     A
C609   O856    1.384   .     S
C610   C620    1.397   .     A
C610   O857    1.387   .     S
C611   C619    1.392   .     A
C611   O858    1.384   .     S
C612   O896    1.384   .     S
C612   C644    1.403   .     A
C612   C1476   1.406   1_545 S
C613   O859    1.382   .     S
C613   C618    1.402   .     A
C614   O860    1.385   .     S
C614   C617    1.397   .     A
C615   O862    1.383   .     S
C615   C616    1.397   .     A
C616   O863    1.387   .     S
C617   O864    1.385   .     S
C618   O865    1.384   .     S
C619   O866    1.386   .     S
C620   O867    1.384   .     S
C621   O868    1.387   .     S
C622   O869    1.386   .     S
C623   O897    1.384   .     S
C624   O870    1.382   .     S
C625   O871    1.386   .     S
C625   C641    1.392   .     A
C626   O873    1.384   .     S
C626   C640    1.402   .     A
C627   C639    1.397   .     A
C627   O874    1.387   .     S
C628   O875    1.384   .     S
C628   C638    1.397   .     A
C629   C637    1.401   .     A
C629   O876    1.382   .     S
C630   C636    1.392   .     A
C630   O877    1.384   .     S
C631   O878    1.385   .     S
C631   C635    1.397   .     A
C632   O879    1.385   .     S
C632   C633    1.397   .     A
C633   O880    1.385   .     S
C634   O898    1.384   .     S
C634   C1479   1.405   1_545 S
C635   O881    1.384   .     S
C636   O882    1.386   .     S
C637   O884    1.384   .     S
C638   O885    1.387   .     S
C639   O886    1.384   .     S
C640   O887    1.382   .     S
C641   O888    1.384   .     S
C642   C34     1.413   1_655 S
C644   C1417   1.413   1_545 S
H662   C78     1.112   1_655 S
H667   C1461   1.112   1_545 S
H671   C1462   1.113   .     S
H672   C1462   1.112   .     S
H677   C84     1.112   1_655 S
H681   C1465   1.112   .     S
H685   C1466   1.112   1_545 S
O805   Zn916   1.948   .     S
O805   Zn908   1.946   .     S
O805   Zn905   1.948   .     S
O805   Zn1832  1.948   1_545 S
O806   Zn907   1.949   .     S
O808   Zn910   1.948   .     S
O808   C123    1.280   1_655 S
O809   Zn909   1.948   .     S
O810   Zn919   1.948   .     S
O811   Zn918   1.948   .     S
O812   Zn913   1.949   .     S
O813   Zn905   1.949   .     S
O814   Zn915   1.949   .     S
O815   Zn914   1.949   .     S
O816   Zn917   1.948   .     S
O817   Zn1827  1.946   1_545 S
O817   Zn911   1.948   .     S
O817   Zn913   1.948   .     S
O817   Zn917   1.948   .     S
O818   Zn916   1.948   .     S
O819   Zn908   1.928   .     S
O820   Zn907   1.928   .     S
O821   Zn910   1.944   .     S
O822   Zn909   1.944   .     S
O823   Zn912   1.928   .     S
O824   Zn911   1.928   .     S
O825   Zn906   1.944   .     S
O826   Zn920   1.944   .     S
O827   Zn907   1.945   .     S
O828   Zn918   1.948   .     S
O828   Zn914   1.946   .     S
O828   Zn906   1.948   .     S
O829   Zn908   1.945   .     S
O830   Zn920   1.927   .     S
O831   Zn906   1.927   .     S
O832   Zn911   1.944   .     S
O833   Zn912   1.944   .     S
O834   Zn909   1.927   .     S
O835   Zn910   1.927   .     S
O836   Zn455   1.928   1_655 S
O837   Zn914   1.928   .     S
O838   Zn1837  1.944   .     S
O839   Zn909   1.948   .     S
O839   Zn915   1.946   .     S
O839   Zn919   1.948   .     S
O840   Zn916   1.944   .     S
O841   Zn919   1.928   .     S
O842   Zn458   1.928   1_655 S
O843   Zn913   1.944   .     S
O844   Zn1825  1.944   .     S
O845   Zn454   1.945   1_655 S
O846   Zn915   1.945   .     S
O847   Zn905   1.927   .     S
O848   Zn1833  1.927   .     S
O849   Zn918   1.944   .     S
O850   Zn912   1.948   .     S
O851   Zn459   1.944   1_655 S
O852   Zn1836  1.927   .     S
O853   Zn917   1.927   .     S
O861   Zn911   1.948   .     S
O861   C1502   1.280   1_545 S
O872   Zn906   1.949   .     S
O883   Zn920   1.949   .     S
O883   C124    1.279   1_655 S
O894   Zn908   1.949   .     S
O894   C1501   1.279   1_545 S
Zn905  O1764   1.944   1_545 S
Zn907  O1737   1.946   .     S
Zn910  O368    1.948   1_655 S
Zn912  O1725   1.948   .     S
Zn913  O1768   1.927   1_545 S
Zn916  O1772   1.927   1_545 S
Zn917  O1758   1.944   1_545 S
Zn920  O379    1.948   1_655 S
C921   O1349   1.384   .     S
C921   C924    1.404   .     A
C921   C999    1.406   .     A
C922   C934    1.405   .     A
C922   O1359   1.384   .     S
C922   C100    1.406   1_565 S
C923   C1083   1.404   .     A
C923   C1026   1.403   .     A
C923   C958    1.413   .     A
C924   C1027   1.403   .     A
C924   C954    1.413   .     A
C925   C1029   1.403   .     A
C925   C1017   1.403   .     A
C925   C1416   1.413   .     S
C926   C1030   1.403   .     A
C926   C957    1.414   .     A
C926   C1028   1.404   .     A
C927   C1039   1.404   .     A
C927   C1031   1.403   .     A
C928   C955    1.404   .     A
C928   C1032   1.403   .     A
C928   C39     1.414   1_565 S
C929   C966    1.404   .     A
C929   C1033   1.403   .     A
C929   C960    1.413   .     A
C930   C1034   1.403   .     A
C930   C977    1.404   .     A
C930   C1421   1.414   1_455 S
C931   C1035   1.403   .     A
C931   C962    1.413   .     A
C931   C988    1.403   .     A
C932   C1094   1.403   .     A
C932   C1036   1.403   .     A
C932   C959    1.413   .     A
C933   O1360   1.384   .     S
C933   C935    1.404   .     A
C933   C1021   1.406   .     A
C934   C1037   1.404   .     A
C934   C40     1.413   1_565 S
C935   C1038   1.403   .     A
C935   C961    1.413   .     A
C936   C1040   1.403   .     A
C936   C944    1.404   .     A
C936   C1422   1.414   1_455 S
C937   C1086   1.408   .     A
C937   C1084   1.407   .     A
C937   C1056   1.460   .     S
C938   C1057   1.463   .     S
C938   C1085   1.413   .     A
C938   C1082   1.413   .     A
C939   C1049   1.447   .     S
C939   C1081   1.409   .     A
C939   C1088   1.406   .     A
C940   C1080   1.406   .     A
C940   C1087   1.409   .     A
C940   C1051   1.447   .     S
C941   C1079   1.413   .     A
C941   C1052   1.463   .     S
C941   C1090   1.412   .     A
C942   C1053   1.460   .     S
C942   C1078   1.409   .     A
C942   C1089   1.406   .     A
C943   C1054   1.447   .     S
C943   C1077   1.409   .     A
C943   C1092   1.405   .     A
C944   O1361   1.385   .     S
C944   C1482   1.407   1_455 S
C945   C1091   1.410   .     A
C945   C1055   1.447   .     S
C945   C1076   1.410   .     A
C946   C1075   1.405   .     A
C946   C1065   1.447   .     S
C946   C1095   1.404   .     A
C947   C1074   1.405   .     A
C947   C1066   1.447   .     S
C947   C1093   1.409   .     A
C948   C1073   1.407   .     A
C948   C1097   1.407   .     A
C948   C1058   1.460   .     S
C949   C1071   1.412   .     A
C949   C1059   1.462   .     S
C949   C1096   1.413   .     A
C950   C1070   1.409   .     A
C950   C1099   1.406   .     A
C950   C1060   1.446   .     S
C951   C1098   1.409   .     A
C951   C1069   1.406   .     A
C951   C1062   1.446   .     S
C952   C1101   1.412   .     A
C952   C1068   1.412   .     A
C952   C1063   1.460   .     S
C953   C1067   1.408   .     A
C953   C1064   1.461   .     S
C953   C1100   1.407   .     A
C954   C956    1.410   .     A
C954   C1562   1.413   1_455 S
C955   O1362   1.385   .     S
C955   C1019   1.406   .     A
C956   C1103   1.413   .     A
C956   C1385   1.413   1_455 S
C957   C958    1.410   .     A
C957   C184    1.413   1_565 S
C958   C7      1.413   1_565 S
C959   C960    1.410   1_556 S
C960   C959    1.410   1_554 S
C961   C1390   1.414   .     S
C961   C962    1.410   1_556 S
C962   C1396   1.414   .     S
C962   C961    1.410   1_554 S
C963   H1176   1.109   .     S
C963   O1314   1.415   .     S
C963   H1174   1.117   .     S
C963   H1175   1.110   .     S
C964   H1178   1.109   .     S
C964   H1180   1.109   .     S
C964   O1315   1.414   .     S
C964   H1179   1.114   .     S
C965   H1181   1.107   .     S
C965   H1183   1.112   .     S
C965   H1182   1.111   .     S
C965   O1316   1.412   .     S
C966   O1363   1.384   .     S
C966   C1020   1.405   .     A
C967   H1184   1.116   .     S
C967   O1317   1.414   .     S
C967   H1186   1.109   .     S
C967   H1185   1.110   .     S
C968   O1318   1.414   .     S
C968   H1190   1.114   .     S
C968   H1187   1.109   .     S
C968   H1189   1.109   .     S
C969   H1193   1.113   .     S
C969   H1191   1.107   .     S
C969   O1319   1.412   .     S
C969   H1192   1.110   .     S
C970   H1194   1.109   .     S
C970   O1320   1.411   .     S
C970   H1195   1.112   .     S
C970   H1196   1.111   .     S
C971   H1200   1.112   .     S
C971   H1197   1.111   .     S
C971   H1198   1.106   .     S
C971   O1322   1.412   .     S
C972   O1323   1.414   .     S
C972   H1201   1.110   .     S
C972   H1203   1.109   .     S
C972   H1202   1.116   .     S
C973   H1205   1.109   .     S
C973   H1204   1.117   .     S
C973   H1206   1.108   .     S
C973   O1324   1.415   .     S
C974   H1207   1.117   .     S
C974   H1209   1.109   .     S
C974   O1325   1.415   .     S
C974   H1208   1.110   .     S
C975   H1211   1.108   .     S
C975   H1213   1.108   .     S
C975   O1326   1.412   .     S
C975   H1212   1.115   .     S
C976   H1214   1.107   .     S
C976   H1216   1.112   .     S
C976   H1215   1.111   .     S
C976   O1327   1.412   .     S
C977   O1364   1.385   .     S
C977   C1481   1.406   1_455 S
C978   H1218   1.110   .     S
C978   O1328   1.414   .     S
C978   H1219   1.109   .     S
C978   H1217   1.116   .     S
C979   H1222   1.108   .     S
C979   H1220   1.115   .     S
C979   H1223   1.108   .     S
C979   O1329   1.412   .     S
C980   H1225   1.110   .     S
C980   H1224   1.107   .     S
C980   H1226   1.113   .     S
C980   O1330   1.412   .     S
C981   H1227   1.115   .     S
C981   O1331   1.412   .     S
C981   H1229   1.108   .     S
C981   H1228   1.108   .     S
C982   H1230   1.110   .     S
C982   H1233   1.109   .     S
C982   O1333   1.415   .     S
C982   H1231   1.117   .     S
C983   H1235   1.116   .     S
C983   O1334   1.414   .     S
C983   H1236   1.109   .     S
C983   H1234   1.110   .     S
C984   H1239   1.112   .     S
C984   H1238   1.107   .     S
C984   H1237   1.111   .     S
C984   O1335   1.412   .     S
C985   H1241   1.108   .     S
C985   H1240   1.110   .     S
C985   H1242   1.115   .     S
C985   O1336   1.413   .     S
C986   H1245   1.109   .     S
C986   O1337   1.414   .     S
C986   H1246   1.114   .     S
C986   H1244   1.109   .     S
C987   H1247   1.109   .     S
C987   O1338   1.415   .     S
C987   H1249   1.108   .     S
C987   H1248   1.117   .     S
C988   O1267   1.384   .     S
C988   C1022   1.406   .     A
C989   H1251   1.109   .     S
C989   O1339   1.411   .     S
C989   H1250   1.112   .     S
C989   H1252   1.111   .     S
C990   H1253   1.109   .     S
C990   O1340   1.415   .     S
C990   H1256   1.108   .     S
C990   H1255   1.117   .     S
C991   O1341   1.411   .     S
C991   H1257   1.112   .     S
C991   H1258   1.109   .     S
C991   H1259   1.111   .     S
C992   H1262   1.108   .     S
C992   H1260   1.115   .     S
C992   O1342   1.412   .     S
C992   H1261   1.108   .     S
C993   H1263   1.110   .     S
C993   H1107   1.109   .     S
C993   H1264   1.117   .     S
C993   O1344   1.414   .     S
C994   H1110   1.109   .     S
C994   O1345   1.414   .     S
C994   H1108   1.110   .     S
C994   H1109   1.116   .     S
C995   O1346   1.412   .     S
C995   H1111   1.111   .     S
C995   H1113   1.112   .     S
C995   H1112   1.107   .     S
C996   H1115   1.107   .     S
C996   O1347   1.412   .     S
C996   H1114   1.110   .     S
C996   H1116   1.113   .     S
C997   O1348   1.413   .     S
C997   H1118   1.109   .     S
C997   H1120   1.114   .     S
C997   H1119   1.109   .     S
C998   H1123   1.107   .     S
C998   H1121   1.113   .     S
C998   O1349   1.410   .     S
C998   H1582   1.112   1_455 S
C999   C1043   1.457   .     S
C999   C1510   1.405   1_455 S
C1000  O1350   1.411   .     S
C1000  H1126   1.109   .     S
C1000  H1125   1.113   .     S
C1000  H1584   1.112   .     S
C1001  H1129   1.114   .     S
C1001  O1351   1.411   .     S
C1001  H1130   1.108   .     S
C1001  H207    1.112   1_565 S
C1002  O1352   1.412   .     S
C1002  H1133   1.108   .     S
C1003  O1353   1.412   .     S
C1003  H1136   1.108   .     S
C1003  H1594   1.113   .     S
C1003  H1595   1.112   .     S
C1004  O1355   1.411   .     S
C1004  H1138   1.114   .     S
C1004  H1140   1.108   .     S
C1004  H1597   1.112   1_455 S
C1005  H1142   1.113   .     S
C1005  H1143   1.109   .     S
C1005  O1356   1.411   .     S
C1006  O1357   1.410   .     S
C1006  H1144   1.113   .     S
C1006  H1146   1.107   .     S
C1006  H225    1.112   1_565 S
C1007  H1149   1.108   .     S
C1007  H1148   1.112   .     S
C1007  O1358   1.412   .     S
C1007  H1147   1.113   .     S
C1008  H1152   1.113   .     S
C1008  H1153   1.107   .     S
C1008  O1359   1.410   .     S
C1008  H1151   1.112   .     S
C1009  H1156   1.109   .     S
C1009  H1155   1.113   .     S
C1009  O1360   1.411   .     S
C1009  H1154   1.112   .     S
C1010  C1061   1.406   .     A
C1010  C1044   1.456   .     S
C1010  C1477   1.406   1_455 S
C1011  H1159   1.108   .     S
C1011  O1361   1.411   .     S
C1011  H1158   1.112   .     S
C1011  H1157   1.114   .     S
C1012  H1162   1.111   .     S
C1012  H1160   1.114   .     S
C1012  H1163   1.108   .     S
C1012  O1362   1.410   .     S
C1013  H1164   1.112   .     S
C1013  O1363   1.412   .     S
C1013  H1166   1.109   .     S
C1013  H1165   1.113   .     S
C1014  H1167   1.112   .     S
C1014  O1364   1.410   .     S
C1014  H1169   1.107   .     S
C1014  H1168   1.114   .     S
C1015  H1173   1.109   .     S
C1015  H1170   1.113   .     S
C1015  O1267   1.411   .     S
C1015  H1171   1.112   .     S
C1016  C1028   1.406   .     A
C1016  C1041   1.456   .     S
C1016  C152    1.406   1_565 S
C1017  O1350   1.384   .     S
C1017  C1470   1.406   .     S
C1018  C1042   1.458   .     S
C1018  C1083   1.406   .     A
C1018  C119    1.405   1_565 S
C1019  C127    1.456   1_565 S
C1019  C174    1.405   1_565 S
C1020  C1048   1.457   .     S
C1021  C1045   1.457   .     S
C1021  C1437   1.406   .     S
C1022  C1506   1.456   .     S
C1022  C1404   1.407   .     S
C1023  H1105   1.083   .     S
C1023  C1029   1.390   .     A
C1023  C1102   1.403   .     A
C1024  C1103   1.403   .     A
C1024  C1027   1.390   .     A
C1024  H1177   1.083   .     S
C1025  H1188   1.083   .     S
C1025  C1104   1.403   .     A
C1025  C1031   1.390   .     A
C1026  C1030   1.390   .     A
C1026  H1199   1.083   .     S
C1027  H1210   1.083   .     S
C1028  O1351   1.385   .     S
C1029  H1221   1.083   .     S
C1030  H1232   1.083   .     S
C1031  H1243   1.083   .     S
C1032  H1254   1.083   .     S
C1032  C1037   1.391   1_556 S
C1033  H1106   1.083   .     S
C1033  C1036   1.390   1_554 S
C1034  H1117   1.083   .     S
C1034  C1040   1.390   1_556 S
C1035  H1128   1.083   .     S
C1035  C1038   1.390   1_554 S
C1036  H1139   1.083   .     S
C1036  C1033   1.390   1_556 S
C1037  H1150   1.083   .     S
C1037  C1032   1.391   1_554 S
C1038  H1161   1.083   .     S
C1038  C1035   1.390   1_556 S
C1039  O1352   1.383   .     S
C1040  H1172   1.083   .     S
C1040  C1034   1.390   1_554 S
C1041  O1310   1.276   .     A
C1041  O434    1.279   1_565 S
C1042  O1266   1.276   .     A
C1042  O401    1.280   1_565 S
C1043  O1332   1.277   .     A
C1043  O1728   1.280   1_455 S
C1044  O1269   1.277   .     A
C1044  O1803   1.279   1_455 S
C1045  O1730   1.279   .     A
C1045  O1734   1.277   .     A
C1046  O1275   1.279   .     A
C1046  C1482   1.456   1_455 S
C1046  O1271   1.276   .     A
C1047  O1272   1.280   .     S
C1047  O1276   1.277   .     S
C1048  O1278   1.280   .     A
C1048  O1273   1.277   .     A
C1049  O1279   1.278   .     A
C1049  O1307   1.280   .     A
C1050  O1353   1.383   .     S
C1050  C1102   1.404   .     A
C1050  C1459   1.405   .     S
C1051  O1308   1.278   .     A
C1051  O1280   1.280   .     A
C1052  O1281   1.283   .     A
C1052  O1305   1.278   .     A
C1053  O1306   1.279   .     A
C1053  O1282   1.279   .     A
C1054  O1312   1.279   .     A
C1054  O1283   1.281   .     A
C1055  O1284   1.279   .     A
C1055  O1313   1.281   .     A
C1056  O1285   1.280   .     A
C1056  O1309   1.279   .     A
C1057  O1286   1.281   .     A
C1057  O1311   1.281   .     A
C1058  O1287   1.280   .     A
C1058  O1298   1.279   .     A
C1059  O1289   1.278   .     A
C1059  O1300   1.283   .     A
C1060  O1290   1.278   .     A
C1060  O1296   1.280   .     A
C1061  O1355   1.385   .     S
C1061  C1103   1.404   .     A
C1062  O1297   1.278   .     A
C1062  O1291   1.280   .     A
C1063  O1303   1.280   .     A
C1063  O1292   1.280   .     A
C1064  O1293   1.279   .     A
C1064  O1304   1.280   .     A
C1065  O1301   1.279   .     A
C1065  O1294   1.281   .     A
C1066  O1302   1.281   .     A
C1066  O1295   1.279   .     A
C1067  C1084   1.402   .     A
C1067  O1314   1.384   .     S
C1068  C1082   1.392   .     A
C1068  O1315   1.384   .     S
C1069  C1081   1.397   .     A
C1069  O1316   1.384   .     S
C1070  C1080   1.397   .     A
C1070  O1317   1.387   .     S
C1071  C1079   1.392   .     A
C1071  O1318   1.384   .     S
C1072  O1356   1.384   .     S
C1072  C1104   1.403   .     A
C1073  O1319   1.382   .     S
C1073  C1078   1.402   .     A
C1074  O1320   1.385   .     S
C1074  C1077   1.397   .     A
C1075  O1322   1.383   .     S
C1075  C1076   1.397   .     A
C1076  O1323   1.387   .     S
C1077  O1324   1.385   .     S
C1078  O1325   1.384   .     S
C1079  O1326   1.386   .     S
C1080  O1327   1.384   .     S
C1081  O1328   1.387   .     S
C1082  O1329   1.386   .     S
C1083  O1357   1.384   .     S
C1084  O1330   1.382   .     S
C1085  O1331   1.386   .     S
C1085  C1101   1.392   .     A
C1086  O1333   1.384   .     S
C1086  C1100   1.402   .     A
C1087  C1099   1.397   .     A
C1087  O1334   1.387   .     S
C1088  O1335   1.384   .     S
C1088  C1098   1.397   .     A
C1089  C1097   1.401   .     A
C1089  O1336   1.382   .     S
C1090  C1096   1.392   .     A
C1090  O1337   1.384   .     S
C1091  O1338   1.385   .     S
C1091  C1095   1.397   .     A
C1092  O1339   1.385   .     S
C1092  C1093   1.397   .     A
C1093  O1340   1.385   .     S
C1094  O1358   1.384   .     S
C1095  O1341   1.384   .     S
C1096  O1342   1.386   .     S
C1097  O1344   1.384   .     S
C1098  O1345   1.387   .     S
C1099  O1346   1.384   .     S
C1100  O1347   1.382   .     S
C1101  O1348   1.384   .     S
C1102  C1414   1.413   .     S
H1122  C1458   1.112   .     S
H1124  C1460   1.112   1_455 S
H1131  C82     1.113   1_565 S
H1132  C82     1.112   1_565 S
H1134  C1463   1.113   1_455 S
H1135  C1463   1.112   1_455 S
H1137  C1464   1.112   .     S
H1141  C85     1.112   1_565 S
O1265  Zn1376  1.948   .     S
O1265  Zn1368  1.946   .     S
O1265  Zn1365  1.948   .     S
O1266  Zn1367  1.949   .     S
O1268  Zn1370  1.948   .     S
O1268  C1503   1.280   .     S
O1269  Zn1369  1.948   .     S
O1270  C1505   1.279   1_455 A
O1270  Zn1379  1.948   .     S
O1271  Zn1378  1.948   .     S
O1272  Zn1373  1.949   .     S
O1273  Zn1365  1.949   .     S
O1274  C1505   1.277   1_455 A
O1274  Zn1375  1.949   .     S
O1275  Zn1374  1.949   .     S
O1276  Zn1377  1.948   .     S
O1277  Zn1371  1.948   .     S
O1277  Zn1373  1.948   .     S
O1277  Zn1377  1.948   .     S
O1278  Zn1376  1.948   .     S
O1279  Zn1368  1.928   .     S
O1280  Zn1367  1.928   .     S
O1281  Zn1370  1.944   .     S
O1282  Zn1369  1.944   .     S
O1283  Zn1372  1.928   .     S
O1284  Zn1371  1.928   .     S
O1285  Zn1366  1.944   .     S
O1286  Zn1380  1.944   .     S
O1287  Zn1367  1.945   .     S
O1288  Zn1378  1.948   .     S
O1288  Zn1374  1.946   .     S
O1288  Zn1830  1.948   1_455 S
O1288  Zn1366  1.948   .     S
O1289  Zn1368  1.945   .     S
O1290  Zn1380  1.927   .     S
O1291  Zn1366  1.927   .     S
O1292  Zn1371  1.944   .     S
O1293  Zn1372  1.944   .     S
O1294  Zn1369  1.927   .     S
O1295  Zn1370  1.927   .     S
O1296  Zn1835  1.928   .     S
O1297  Zn1374  1.928   .     S
O1298  Zn457   1.944   1_565 S
O1299  Zn1840  1.948   1_455 S
O1299  Zn1369  1.948   .     S
O1299  Zn1375  1.946   .     S
O1299  Zn1379  1.948   .     S
O1300  Zn1376  1.944   .     S
O1301  Zn1379  1.928   .     S
O1302  Zn1838  1.928   .     S
O1303  Zn1373  1.944   .     S
O1304  Zn445   1.944   1_565 S
O1305  Zn1834  1.945   .     S
O1306  Zn1375  1.945   .     S
O1307  Zn1365  1.927   .     S
O1308  Zn453   1.927   1_565 S
O1309  Zn1378  1.944   .     S
O1310  Zn1372  1.948   .     S
O1311  Zn1839  1.944   .     S
O1312  Zn456   1.927   1_565 S
O1313  Zn1377  1.927   .     S
O1321  Zn1371  1.948   .     S
O1332  Zn1366  1.949   .     S
O1343  Zn1380  1.949   .     S
O1343  C1504   1.279   .     S
O1354  Zn1368  1.949   .     S
Zn1367 O357    1.946   1_565 S
Zn1370 O1748   1.948   .     S
Zn1372 O345    1.948   1_565 S
Zn1374 O1765   1.945   1_455 S
Zn1375 O1756   1.928   1_455 S
Zn1378 O1762   1.928   1_455 S
Zn1379 O1771   1.944   1_455 S
Zn1380 O1759   1.948   .     S
C1381  O1809   1.384   .     S
C1381  C1384   1.404   .     A
C1381  C1459   1.406   .     A
C1382  C1394   1.405   .     A
C1382  O1819   1.384   .     S
C1382  C560    1.406   1_565 S
C1383  C1543   1.404   .     A
C1383  C1486   1.403   .     A
C1383  C1418   1.413   .     A
C1384  C1487   1.403   .     A
C1384  C1414   1.413   .     A
C1385  C1489   1.403   .     A
C1385  C1477   1.403   .     A
C1385  C956    1.413   1_655 S
C1386  C1490   1.403   .     A
C1386  C1417   1.414   .     A
C1386  C1488   1.404   .     A
C1387  C1499   1.404   .     A
C1387  C1491   1.403   .     A
C1388  C1415   1.404   .     A
C1388  C1492   1.403   .     A
C1388  C499    1.414   1_565 S
C1389  C1426   1.404   .     A
C1389  C1493   1.403   .     A
C1389  C1420   1.413   .     A
C1390  C1494   1.403   .     A
C1390  C1437   1.404   .     A
C1391  C1495   1.403   .     A
C1391  C1422   1.413   .     A
C1391  C1448   1.403   .     A
C1392  C1554   1.403   .     A
C1392  C1496   1.403   .     A
C1392  C1419   1.413   .     A
C1393  O1820   1.384   .     S
C1393  C1395   1.404   .     A
C1393  C1481   1.406   .     A
C1394  C1497   1.404   .     A
C1394  C500    1.413   1_565 S
C1395  C1498   1.403   .     A
C1395  C1421   1.413   .     A
C1396  C1500   1.403   .     A
C1396  C1404   1.404   .     A
C1397  C1546   1.408   .     A
C1397  C1544   1.407   .     A
C1397  C1516   1.460   .     S
C1398  C1517   1.463   .     S
C1398  C1545   1.413   .     A
C1398  C1542   1.413   .     A
C1399  C1509   1.447   .     S
C1399  C1541   1.409   .     A
C1399  C1548   1.406   .     A
C1400  C1540   1.406   .     A
C1400  C1547   1.409   .     A
C1400  C1511   1.447   .     S
C1401  C1539   1.413   .     A
C1401  C1512   1.463   .     S
C1401  C1550   1.412   .     A
C1402  C1513   1.460   .     S
C1402  C1538   1.409   .     A
C1402  C1549   1.406   .     A
C1403  C1514   1.447   .     S
C1403  C1537   1.409   .     A
C1403  C1552   1.405   .     A
C1404  O1821   1.385   .     S
C1405  C1551   1.410   .     A
C1405  C1515   1.447   .     S
C1405  C1536   1.410   .     A
C1406  C1535   1.405   .     A
C1406  C1525   1.447   .     S
C1406  C1555   1.404   .     A
C1407  C1534   1.405   .     A
C1407  C1526   1.447   .     S
C1407  C1553   1.409   .     A
C1408  C1533   1.407   .     A
C1408  C1557   1.407   .     A
C1408  C1518   1.460   .     S
C1409  C1531   1.412   .     A
C1409  C1519   1.462   .     S
C1409  C1556   1.413   .     A
C1410  C1530   1.409   .     A
C1410  C1559   1.406   .     A
C1410  C1520   1.446   .     S
C1411  C1558   1.409   .     A
C1411  C1529   1.406   .     A
C1411  C1522   1.446   .     S
C1412  C1561   1.412   .     A
C1412  C1528   1.412   .     A
C1412  C1523   1.460   .     S
C1413  C1527   1.408   .     A
C1413  C1524   1.461   .     S
C1413  C1560   1.407   .     A
C1414  C1416   1.410   .     A
C1415  O1822   1.385   .     S
C1415  C1479   1.406   .     A
C1416  C1563   1.413   .     A
C1417  C1418   1.410   .     A
C1417  C644    1.413   1_565 S
C1418  C467    1.413   1_565 S
C1419  C1420   1.410   1_556 S
C1420  C1419   1.410   1_554 S
C1421  C930    1.414   1_655 S
C1421  C1422   1.410   1_556 S
C1422  C936    1.414   1_655 S
C1422  C1421   1.410   1_554 S
C1423  H1636   1.109   .     S
C1423  O1774   1.415   .     S
C1423  H1634   1.117   .     S
C1423  H1635   1.110   .     S
C1424  H1638   1.109   .     S
C1424  H1640   1.109   .     S
C1424  O1775   1.414   .     S
C1424  H1639   1.114   .     S
C1425  H1641   1.107   .     S
C1425  H1643   1.112   .     S
C1425  H1642   1.111   .     S
C1425  O1776   1.412   .     S
C1426  O1823   1.384   .     S
C1426  C1480   1.405   .     A
C1427  H1644   1.116   .     S
C1427  O1777   1.414   .     S
C1427  H1646   1.109   .     S
C1427  H1645   1.110   .     S
C1428  O1778   1.414   .     S
C1428  H1650   1.114   .     S
C1428  H1647   1.109   .     S
C1428  H1649   1.109   .     S
C1429  H1653   1.113   .     S
C1429  H1651   1.107   .     S
C1429  O1779   1.412   .     S
C1429  H1652   1.110   .     S
C1430  H1654   1.109   .     S
C1430  O1780   1.411   .     S
C1430  H1655   1.112   .     S
C1430  H1656   1.111   .     S
C1431  H1660   1.112   .     S
C1431  H1657   1.111   .     S
C1431  H1658   1.106   .     S
C1431  O1782   1.412   .     S
C1432  O1783   1.414   .     S
C1432  H1661   1.110   .     S
C1432  H1663   1.109   .     S
C1432  H1662   1.116   .     S
C1433  H1665   1.109   .     S
C1433  H1664   1.117   .     S
C1433  H1666   1.108   .     S
C1433  O1784   1.415   .     S
C1434  H1667   1.117   .     S
C1434  H1669   1.109   .     S
C1434  O1785   1.415   .     S
C1434  H1668   1.110   .     S
C1435  H1671   1.108   .     S
C1435  H1673   1.108   .     S
C1435  O1786   1.412   .     S
C1435  H1672   1.115   .     S
C1436  H1674   1.107   .     S
C1436  H1676   1.112   .     S
C1436  H1675   1.111   .     S
C1436  O1787   1.412   .     S
C1437  O1824   1.385   .     S
C1438  H1678   1.110   .     S
C1438  O1788   1.414   .     S
C1438  H1679   1.109   .     S
C1438  H1677   1.116   .     S
C1439  H1682   1.108   .     S
C1439  H1680   1.115   .     S
C1439  H1683   1.108   .     S
C1439  O1789   1.412   .     S
C1440  H1685   1.110   .     S
C1440  H1684   1.107   .     S
C1440  H1686   1.113   .     S
C1440  O1790   1.412   .     S
C1441  H1687   1.115   .     S
C1441  O1791   1.412   .     S
C1441  H1689   1.108   .     S
C1441  H1688   1.108   .     S
C1442  H1690   1.110   .     S
C1442  H1693   1.109   .     S
C1442  O1793   1.415   .     S
C1442  H1691   1.117   .     S
C1443  H1695   1.116   .     S
C1443  O1794   1.414   .     S
C1443  H1696   1.109   .     S
C1443  H1694   1.110   .     S
C1444  H1699   1.112   .     S
C1444  H1698   1.107   .     S
C1444  H1697   1.111   .     S
C1444  O1795   1.412   .     S
C1445  H1701   1.108   .     S
C1445  H1700   1.110   .     S
C1445  H1702   1.115   .     S
C1445  O1796   1.413   .     S
C1446  H1705   1.109   .     S
C1446  O1797   1.414   .     S
C1446  H1706   1.114   .     S
C1446  H1704   1.109   .     S
C1447  H1707   1.109   .     S
C1447  O1798   1.415   .     S
C1447  H1709   1.108   .     S
C1447  H1708   1.117   .     S
C1448  O1727   1.384   .     S
C1448  C1482   1.406   .     A
C1449  H1711   1.109   .     S
C1449  O1799   1.411   .     S
C1449  H1710   1.112   .     S
C1449  H1712   1.111   .     S
C1450  H1713   1.109   .     S
C1450  O1800   1.415   .     S
C1450  H1716   1.108   .     S
C1450  H1715   1.117   .     S
C1451  O1801   1.411   .     S
C1451  H1717   1.112   .     S
C1451  H1718   1.109   .     S
C1451  H1719   1.111   .     S
C1452  H1722   1.108   .     S
C1452  H1720   1.115   .     S
C1452  O1802   1.412   .     S
C1452  H1721   1.108   .     S
C1453  H1723   1.110   .     S
C1453  H1567   1.109   .     S
C1453  H1724   1.117   .     S
C1453  O1804   1.414   .     S
C1454  H1570   1.109   .     S
C1454  O1805   1.414   .     S
C1454  H1568   1.110   .     S
C1454  H1569   1.116   .     S
C1455  O1806   1.412   .     S
C1455  H1571   1.111   .     S
C1455  H1573   1.112   .     S
C1455  H1572   1.107   .     S
C1456  H1575   1.107   .     S
C1456  O1807   1.412   .     S
C1456  H1574   1.110   .     S
C1456  H1576   1.113   .     S
C1457  O1808   1.413   .     S
C1457  H1578   1.109   .     S
C1457  H1580   1.114   .     S
C1457  H1579   1.109   .     S
C1458  H1583   1.107   .     S
C1458  H1581   1.113   .     S
C1458  O1809   1.410   .     S
C1459  C1503   1.457   .     S
C1460  O1810   1.411   .     S
C1460  H1586   1.109   .     S
C1460  H1585   1.113   .     S
C1460  H1124   1.112   1_655 S
C1461  H1589   1.114   .     S
C1461  O1811   1.411   .     S
C1461  H1590   1.108   .     S
C1461  H667    1.112   1_565 S
C1462  O1812   1.412   .     S
C1462  H1593   1.108   .     S
C1463  O1813   1.412   .     S
C1463  H1596   1.108   .     S
C1463  H1134   1.113   1_655 S
C1463  H1135   1.112   1_655 S
C1464  O1815   1.411   .     S
C1464  H1598   1.114   .     S
C1464  H1600   1.108   .     S
C1465  H1602   1.113   .     S
C1465  H1603   1.109   .     S
C1465  O1816   1.411   .     S
C1466  O1817   1.410   .     S
C1466  H1604   1.113   .     S
C1466  H1606   1.107   .     S
C1466  H685    1.112   1_565 S
C1467  H1609   1.108   .     S
C1467  H1608   1.112   .     S
C1467  O1818   1.412   .     S
C1467  H1607   1.113   .     S
C1468  H1612   1.113   .     S
C1468  H1613   1.107   .     S
C1468  O1819   1.410   .     S
C1468  H1611   1.112   .     S
C1469  H1616   1.109   .     S
C1469  H1615   1.113   .     S
C1469  O1820   1.411   .     S
C1469  H1614   1.112   .     S
C1470  C1521   1.406   .     A
C1470  C1504   1.456   .     S
C1471  H1619   1.108   .     S
C1471  O1821   1.411   .     S
C1471  H1618   1.112   .     S
C1471  H1617   1.114   .     S
C1472  H1622   1.111   .     S
C1472  H1620   1.114   .     S
C1472  H1623   1.108   .     S
C1472  O1822   1.410   .     S
C1473  H1624   1.112   .     S
C1473  O1823   1.412   .     S
C1473  H1626   1.109   .     S
C1473  H1625   1.113   .     S
C1474  H1627   1.112   .     S
C1474  O1824   1.410   .     S
C1474  H1629   1.107   .     S
C1474  H1628   1.114   .     S
C1475  H1633   1.109   .     S
C1475  H1630   1.113   .     S
C1475  O1727   1.411   .     S
C1475  H1631   1.112   .     S
C1476  C1488   1.406   .     A
C1476  C1501   1.456   .     S
C1476  C612    1.406   1_565 S
C1477  O1810   1.384   .     S
C1477  C1010   1.406   1_655 S
C1478  C1502   1.458   .     S
C1478  C1543   1.406   .     A
C1478  C579    1.405   1_565 S
C1479  C587    1.456   1_565 S
C1479  C634    1.405   1_565 S
C1480  C1508   1.457   .     S
C1481  C1505   1.457   .     S
C1481  C977    1.406   1_655 S
C1482  C1046   1.456   1_655 S
C1482  C944    1.407   1_655 S
C1483  H1565   1.083   .     S
C1483  C1489   1.390   .     A
C1483  C1562   1.403   .     A
C1484  C1563   1.403   .     A
C1484  C1487   1.390   .     A
C1484  H1637   1.083   .     S
C1485  H1648   1.083   .     S
C1485  C1564   1.403   .     A
C1485  C1491   1.390   .     A
C1486  C1490   1.390   .     A
C1486  H1659   1.083   .     S
C1487  H1670   1.083   .     S
C1488  O1811   1.385   .     S
C1489  H1681   1.083   .     S
C1490  H1692   1.083   .     S
C1491  H1703   1.083   .     S
C1492  H1714   1.083   .     S
C1492  C1497   1.391   1_556 S
C1493  H1566   1.083   .     S
C1493  C1496   1.390   1_554 S
C1494  H1577   1.083   .     S
C1494  C1500   1.390   1_556 S
C1495  H1588   1.083   .     S
C1495  C1498   1.390   1_554 S
C1496  H1599   1.083   .     S
C1496  C1493   1.390   1_556 S
C1497  H1610   1.083   .     S
C1497  C1492   1.391   1_554 S
C1498  H1621   1.083   .     S
C1498  C1495   1.390   1_556 S
C1499  O1812   1.383   .     S
C1500  H1632   1.083   .     S
C1500  C1494   1.390   1_554 S
C1501  O1770   1.276   .     A
C1501  O894    1.279   1_565 S
C1502  O1726   1.276   .     A
C1502  O861    1.280   1_565 S
C1503  O1792   1.277   .     A
C1504  O1729   1.277   .     A
C1505  O1270   1.279   1_655 A
C1505  O1274   1.277   1_655 A
C1506  O1735   1.279   .     A
C1506  O1731   1.276   .     A
C1507  O1732   1.280   .     S
C1507  O1736   1.277   .     S
C1508  O1738   1.280   .     A
C1508  O1733   1.277   .     A
C1509  O1739   1.278   .     A
C1509  O1767   1.280   .     A
C1510  O1813   1.383   .     S
C1510  C1562   1.404   .     A
C1510  C999    1.405   1_655 S
C1511  O1768   1.278   .     A
C1511  O1740   1.280   .     A
C1512  O1741   1.283   .     A
C1512  O1765   1.278   .     A
C1513  O1766   1.279   .     A
C1513  O1742   1.279   .     A
C1514  O1772   1.279   .     A
C1514  O1743   1.281   .     A
C1515  O1744   1.279   .     A
C1515  O1773   1.281   .     A
C1516  O1745   1.280   .     A
C1516  O1769   1.279   .     A
C1517  O1746   1.281   .     A
C1517  O1771   1.281   .     A
C1518  O1747   1.280   .     A
C1518  O1758   1.279   .     A
C1519  O1749   1.278   .     A
C1519  O1760   1.283   .     A
C1520  O1750   1.278   .     A
C1520  O1756   1.280   .     A
C1521  O1815   1.385   .     S
C1521  C1563   1.404   .     A
C1522  O1757   1.278   .     A
C1522  O1751   1.280   .     A
C1523  O1763   1.280   .     A
C1523  O1752   1.280   .     A
C1524  O1753   1.279   .     A
C1524  O1764   1.280   .     A
C1525  O1761   1.279   .     A
C1525  O1754   1.281   .     A
C1526  O1762   1.281   .     A
C1526  O1755   1.279   .     A
C1527  C1544   1.402   .     A
C1527  O1774   1.384   .     S
C1528  C1542   1.392   .     A
C1528  O1775   1.384   .     S
C1529  C1541   1.397   .     A
C1529  O1776   1.384   .     S
C1530  C1540   1.397   .     A
C1530  O1777   1.387   .     S
C1531  C1539   1.392   .     A
C1531  O1778   1.384   .     S
C1532  O1816   1.384   .     S
C1532  C1564   1.403   .     A
C1533  O1779   1.382   .     S
C1533  C1538   1.402   .     A
C1534  O1780   1.385   .     S
C1534  C1537   1.397   .     A
C1535  O1782   1.383   .     S
C1535  C1536   1.397   .     A
C1536  O1783   1.387   .     S
C1537  O1784   1.385   .     S
C1538  O1785   1.384   .     S
C1539  O1786   1.386   .     S
C1540  O1787   1.384   .     S
C1541  O1788   1.387   .     S
C1542  O1789   1.386   .     S
C1543  O1817   1.384   .     S
C1544  O1790   1.382   .     S
C1545  O1791   1.386   .     S
C1545  C1561   1.392   .     A
C1546  O1793   1.384   .     S
C1546  C1560   1.402   .     A
C1547  C1559   1.397   .     A
C1547  O1794   1.387   .     S
C1548  O1795   1.384   .     S
C1548  C1558   1.397   .     A
C1549  C1557   1.401   .     A
C1549  O1796   1.382   .     S
C1550  C1556   1.392   .     A
C1550  O1797   1.384   .     S
C1551  O1798   1.385   .     S
C1551  C1555   1.397   .     A
C1552  O1799   1.385   .     S
C1552  C1553   1.397   .     A
C1553  O1800   1.385   .     S
C1554  O1818   1.384   .     S
C1555  O1801   1.384   .     S
C1556  O1802   1.386   .     S
C1557  O1804   1.384   .     S
C1558  O1805   1.387   .     S
C1559  O1806   1.384   .     S
C1560  O1807   1.382   .     S
C1561  O1808   1.384   .     S
C1562  C954    1.413   1_655 S
H1582  C998    1.112   1_655 S
H1591  C542    1.113   1_565 S
H1592  C542    1.112   1_565 S
H1597  C1004   1.112   1_655 S
H1601  C545    1.112   1_565 S
O1725  Zn1836  1.948   .     S
O1725  Zn1828  1.946   .     S
O1725  Zn1825  1.948   .     S
O1726  Zn1827  1.949   .     S
O1728  Zn1830  1.948   .     S
O1728  C1043   1.280   1_655 S
O1729  Zn1829  1.948   .     S
O1730  Zn1839  1.948   .     S
O1731  Zn1838  1.948   .     S
O1732  Zn1833  1.949   .     S
O1733  Zn1825  1.949   .     S
O1734  Zn1835  1.949   .     S
O1735  Zn1834  1.949   .     S
O1736  Zn1837  1.948   .     S
O1737  Zn1831  1.948   .     S
O1737  Zn1833  1.948   .     S
O1737  Zn1837  1.948   .     S
O1738  Zn1836  1.948   .     S
O1739  Zn1828  1.928   .     S
O1740  Zn1827  1.928   .     S
O1741  Zn1830  1.944   .     S
O1742  Zn1829  1.944   .     S
O1743  Zn1832  1.928   .     S
O1744  Zn1831  1.928   .     S
O1745  Zn1826  1.944   .     S
O1746  Zn1840  1.944   .     S
O1747  Zn1827  1.945   .     S
O1748  Zn1838  1.948   .     S
O1748  Zn1834  1.946   .     S
O1748  Zn1826  1.948   .     S
O1749  Zn1828  1.945   .     S
O1750  Zn1840  1.927   .     S
O1751  Zn1826  1.927   .     S
O1752  Zn1831  1.944   .     S
O1753  Zn1832  1.944   .     S
O1754  Zn1829  1.927   .     S
O1755  Zn1830  1.927   .     S
O1756  Zn1375  1.928   1_655 S
O1757  Zn1834  1.928   .     S
O1758  Zn917   1.944   1_565 S
O1759  Zn1829  1.948   .     S
O1759  Zn1835  1.946   .     S
O1759  Zn1839  1.948   .     S
O1760  Zn1836  1.944   .     S
O1761  Zn1839  1.928   .     S
O1762  Zn1378  1.928   1_655 S
O1763  Zn1833  1.944   .     S
O1764  Zn905   1.944   1_565 S
O1765  Zn1374  1.945   1_655 S
O1766  Zn1835  1.945   .     S
O1767  Zn1825  1.927   .     S
O1768  Zn913   1.927   1_565 S
O1769  Zn1838  1.944   .     S
O1770  Zn1832  1.948   .     S
O1771  Zn1379  1.944   1_655 S
O1772  Zn916   1.927   1_565 S
O1773  Zn1837  1.927   .     S
O1781  Zn1831  1.948   .     S
O1792  Zn1826  1.949   .     S
O1803  Zn1840  1.949   .     S
O1803  C1044   1.279   1_655 S
O1814  Zn1828  1.949   .     S
Zn1827 O817    1.946   1_565 S
Zn1830 O1288   1.948   1_655 S
Zn1832 O805    1.948   1_565 S
Zn1840 O1299   1.948   1_655 S
