data_str_m1_o1_o17_pcu_sym.5
_audit_creation_date              2020-01-03
_audit_creation_method            'Materials Studio'
_symmetry_space_group_name_H-M    'P1'
_symmetry_Int_Tables_number       1
_symmetry_cell_setting            triclinic
loop_
_symmetry_equiv_pos_as_xyz
  x,y,z
_cell_length_a                    36.7068
_cell_length_b                    36.7067
_cell_length_c                    34.3732
_cell_angle_alpha                 90.0280
_cell_angle_beta                  89.9720
_cell_angle_gamma                 89.7371
loop_
_atom_site_label
_atom_site_type_symbol
_atom_site_fract_x
_atom_site_fract_y
_atom_site_fract_z
_atom_site_U_iso_or_equiv
_atom_site_adp_type
_atom_site_occupancy
C1     C     0.46705   0.24621   0.41873   0.00000  Uiso   1.00
C2     C     0.21698   0.49773   0.08125   0.00000  Uiso   1.00
C3     C     0.25290   0.03328   0.54080   0.00000  Uiso   1.00
C4     C     0.46685   0.24594   0.45925   0.00000  Uiso   1.00
C5     C     0.03325   0.25270   0.54072   0.00000  Uiso   1.00
C6     C     0.25272   0.03330   0.45930   0.00000  Uiso   1.00
C7     C     0.24766   0.46674   0.54076   0.00000  Uiso   1.00
C8     C     0.21674   0.49764   0.95924   0.00000  Uiso   1.00
C9     C     0.28329   0.00274   0.04070   0.00000  Uiso   1.00
C10    C     0.49594   0.21687   0.95924   0.00000  Uiso   1.00
C11    C     0.00267   0.28325   0.04078   0.00000  Uiso   1.00
C12    C     0.28328   0.00291   0.95920   0.00000  Uiso   1.00
C13    C     0.00296   0.28299   0.91877   0.00000  Uiso   1.00
C14    C     0.21675   0.49770   0.04073   0.00000  Uiso   1.00
C15    C     0.00270   0.28325   0.95928   0.00000  Uiso   1.00
C16    C     0.49595   0.21685   0.04075   0.00000  Uiso   1.00
C17    C     0.09823   0.34823   0.25000   0.00000  Uiso   1.00
C18    C     0.40190   0.15190   0.75000   0.00000  Uiso   1.00
C19    C     0.15210   0.09792   0.25000   0.00000  Uiso   1.00
C20    C     0.34799   0.40150   0.75000   0.00000  Uiso   1.00
C21    C     0.40177   0.15177   0.25000   0.00000  Uiso   1.00
C22    C     0.09801   0.34801   0.75000   0.00000  Uiso   1.00
C23    C     0.34792   0.40210   0.25000   0.00000  Uiso   1.00
C24    C     0.49622   0.21705   0.08127   0.00000  Uiso   1.00
C25    C     0.15150   0.09799   0.75001   0.00000  Uiso   1.00
C26    C     0.09831   0.15241   0.75023   0.00000  Uiso   1.00
C27    C     0.40170   0.34828   0.25000   0.00000  Uiso   1.00
C28    C     0.15176   0.40176   0.75000   0.00000  Uiso   1.00
C29    C     0.34802   0.09802   0.25000   0.00000  Uiso   1.00
C30    C     0.40241   0.34831   0.74978   0.00000  Uiso   1.00
C31    C     0.09828   0.15170   0.25000   0.00000  Uiso   1.00
C32    C     0.34817   0.09817   0.75000   0.00000  Uiso   1.00
C33    C     0.15198   0.40198   0.25000   0.00000  Uiso   1.00
C34    C     0.00006   0.24925   0.47960   0.00000  Uiso   1.00
C35    C     0.21697   0.49760   0.91873   0.00000  Uiso   1.00
C36    C     0.00006   0.24925   0.52037   0.00000  Uiso   1.00
C37    C     0.25025   0.00002   0.47965   0.00000  Uiso   1.00
C38    C     0.25028   0.00001   0.52042   0.00000  Uiso   1.00
C39    C     0.25001   0.00028   0.97958   0.00000  Uiso   1.00
C40    C     0.25002   0.00025   0.02035   0.00000  Uiso   1.00
C41    C     0.49925   0.25006   0.97963   0.00000  Uiso   1.00
C42    C     0.49925   0.25006   0.02040   0.00000  Uiso   1.00
C43    C     0.09048   0.46372   0.24851   0.00000  Uiso   1.00
C44    C     0.08146   0.00154   0.23257   0.00000  Uiso   1.00
C45    C     0.06128   0.02473   0.26254   0.00000  Uiso   1.00
C46    C     0.28307   0.00256   0.08123   0.00000  Uiso   1.00
C47    C     0.36349   0.07572   0.83685   0.00000  Uiso   1.00
C48    C     0.38976   0.09270   0.86627   0.00000  Uiso   1.00
C49    C     0.37259   0.09498   0.90665   0.00000  Uiso   1.00
C50    C     0.05410   0.11341   0.18101   0.00000  Uiso   1.00
C51    C     0.06216   0.07845   0.15816   0.00000  Uiso   1.00
C52    C     0.02748   0.05667   0.15102   0.00000  Uiso   1.00
C53    C     0.39499   0.33342   0.83931   0.00000  Uiso   1.00
C54    C     0.41615   0.32548   0.87665   0.00000  Uiso   1.00
C55    C     0.39981   0.29365   0.89909   0.00000  Uiso   1.00
C56    C     0.40950   0.03627   0.24845   0.00000  Uiso   1.00
C57    C     0.49620   0.21709   0.91872   0.00000  Uiso   1.00
C58    C     0.41853   0.49845   0.23249   0.00000  Uiso   1.00
C59    C     0.43867   0.47527   0.26246   0.00000  Uiso   1.00
C60    C     0.12354   0.43617   0.82936   0.00000  Uiso   1.00
C61    C     0.09230   0.42466   0.85617   0.00000  Uiso   1.00
C62    C     0.10290   0.42844   0.89892   0.00000  Uiso   1.00
C63    C     0.44594   0.38651   0.18097   0.00000  Uiso   1.00
C64    C     0.43789   0.42143   0.15810   0.00000  Uiso   1.00
C65    C     0.47256   0.44320   0.15093   0.00000  Uiso   1.00
C66    C     0.10352   0.17272   0.83661   0.00000  Uiso   1.00
C67    C     0.13736   0.16306   0.86066   0.00000  Uiso   1.00
C68    C     0.00283   0.28300   0.08130   0.00000  Uiso   1.00
C69    C     0.15140   0.19616   0.88283   0.00000  Uiso   1.00
C70    C     0.11215   0.05323   0.81808   0.00000  Uiso   1.00
C71    C     0.07759   0.06118   0.84170   0.00000  Uiso   1.00
C72    C     0.05774   0.02611   0.85227   0.00000  Uiso   1.00
C73    C     0.32550   0.39381   0.16434   0.00000  Uiso   1.00
C74    C     0.33573   0.36103   0.13892   0.00000  Uiso   1.00
C75    C     0.30273   0.34664   0.11686   0.00000  Uiso   1.00
C76    C     0.03536   0.40764   0.75364   0.00000  Uiso   1.00
C77    C     0.49808   0.41691   0.77100   0.00000  Uiso   1.00
C78    C     0.47257   0.43319   0.74050   0.00000  Uiso   1.00
C79    C     0.00001   0.24969   0.39841   0.00000  Uiso   1.00
C80    C     0.43695   0.12227   0.17145   0.00000  Uiso   1.00
C81    C     0.42516   0.09061   0.14533   0.00000  Uiso   1.00
C82    C     0.42926   0.10025   0.10236   0.00000  Uiso   1.00
C83    C     0.39088   0.44157   0.82243   0.00000  Uiso   1.00
C84    C     0.38215   0.46480   0.85814   0.00000  Uiso   1.00
C85    C     0.41279   0.49153   0.86686   0.00000  Uiso   1.00
C86    C     0.17459   0.10610   0.16434   0.00000  Uiso   1.00
C87    C     0.16439   0.13887   0.13893   0.00000  Uiso   1.00
C88    C     0.19743   0.15324   0.11689   0.00000  Uiso   1.00
C89    C     0.46428   0.09515   0.76919   0.00000  Uiso   1.00
C90    C     0.00003   0.24971   0.60158   0.00000  Uiso   1.00
C91    C     0.47052   0.05633   0.78405   0.00000  Uiso   1.00
C92    C     0.00081   0.03719   0.76137   0.00000  Uiso   1.00
C93    C     0.06310   0.37771   0.17148   0.00000  Uiso   1.00
C94    C     0.07488   0.40938   0.14539   0.00000  Uiso   1.00
C95    C     0.07082   0.39973   0.10241   0.00000  Uiso   1.00
C96    C     0.34515   0.21428   0.73081   0.00000  Uiso   1.00
C97    C     0.30633   0.22052   0.71596   0.00000  Uiso   1.00
C98    C     0.28719   0.25081   0.73863   0.00000  Uiso   1.00
C99    C     0.12771   0.31310   0.32852   0.00000  Uiso   1.00
C100   C     0.15938   0.32488   0.35462   0.00000  Uiso   1.00
C101   C     0.25009   0.00002   0.39843   0.00000  Uiso   1.00
C102   C     0.14972   0.32082   0.39760   0.00000  Uiso   1.00
C103   C     0.30323   0.36215   0.68192   0.00000  Uiso   1.00
C104   C     0.31119   0.32759   0.65830   0.00000  Uiso   1.00
C105   C     0.27611   0.30774   0.64773   0.00000  Uiso   1.00
C106   C     0.14381   0.07549   0.33566   0.00000  Uiso   1.00
C107   C     0.11103   0.08573   0.36108   0.00000  Uiso   1.00
C108   C     0.09663   0.05272   0.38314   0.00000  Uiso   1.00
C109   C     0.15764   0.28536   0.74636   0.00000  Uiso   1.00
C110   C     0.16690   0.24808   0.72901   0.00000  Uiso   1.00
C111   C     0.18319   0.22257   0.75951   0.00000  Uiso   1.00
C112   C     0.03299   0.25296   0.58123   0.00000  Uiso   1.00
C113   C     0.25017   0.00000   0.60161   0.00000  Uiso   1.00
C114   C     0.37227   0.18694   0.32856   0.00000  Uiso   1.00
C115   C     0.34061   0.17515   0.35467   0.00000  Uiso   1.00
C116   C     0.35025   0.17926   0.39765   0.00000  Uiso   1.00
C117   C     0.19158   0.14089   0.67758   0.00000  Uiso   1.00
C118   C     0.21480   0.13216   0.64187   0.00000  Uiso   1.00
C119   C     0.24153   0.16281   0.63315   0.00000  Uiso   1.00
C120   C     0.35610   0.42459   0.33566   0.00000  Uiso   1.00
C121   C     0.38887   0.41439   0.36107   0.00000  Uiso   1.00
C122   C     0.40324   0.44743   0.38311   0.00000  Uiso   1.00
C123   C     0.36341   0.30410   0.31899   0.00000  Uiso   1.00
C124   C     0.25000   0.00017   0.89840   0.00000  Uiso   1.00
C125   C     0.32845   0.31215   0.34185   0.00000  Uiso   1.00
C126   C     0.30667   0.27748   0.34898   0.00000  Uiso   1.00
C127   C     0.08345   0.14498   0.66068   0.00000  Uiso   1.00
C128   C     0.07548   0.16615   0.62336   0.00000  Uiso   1.00
C129   C     0.04371   0.14975   0.60086   0.00000  Uiso   1.00
C130   C     0.28627   0.15950   0.25156   0.00000  Uiso   1.00
C131   C     0.24845   0.16853   0.26751   0.00000  Uiso   1.00
C132   C     0.22527   0.18867   0.23755   0.00000  Uiso   1.00
C133   C     0.18617   0.37354   0.67064   0.00000  Uiso   1.00
C134   C     0.17466   0.34230   0.64383   0.00000  Uiso   1.00
C135   C     0.25002   0.00009   0.10157   0.00000  Uiso   1.00
C136   C     0.17845   0.35290   0.60109   0.00000  Uiso   1.00
C137   C     0.13650   0.19594   0.31903   0.00000  Uiso   1.00
C138   C     0.17143   0.18789   0.34190   0.00000  Uiso   1.00
C139   C     0.19320   0.22256   0.34907   0.00000  Uiso   1.00
C140   C     0.42273   0.35352   0.66340   0.00000  Uiso   1.00
C141   C     0.41306   0.38737   0.63935   0.00000  Uiso   1.00
C142   C     0.44616   0.40141   0.61719   0.00000  Uiso   1.00
C143   C     0.21372   0.34048   0.25149   0.00000  Uiso   1.00
C144   C     0.25154   0.33146   0.26743   0.00000  Uiso   1.00
C145   C     0.27473   0.31128   0.23746   0.00000  Uiso   1.00
C146   C     0.49971   0.25003   0.89842   0.00000  Uiso   1.00
C147   C     0.32571   0.11349   0.66315   0.00000  Uiso   1.00
C148   C     0.34270   0.13976   0.63373   0.00000  Uiso   1.00
C149   C     0.34498   0.12260   0.59335   0.00000  Uiso   1.00
C150   C     0.49969   0.25001   0.10159   0.00000  Uiso   1.00
C151   C     0.06609   0.25597   0.47967   0.00000  Uiso   1.00
C152   C     0.43404   0.24249   0.52030   0.00000  Uiso   1.00
C153   C     0.24517   0.43383   0.47972   0.00000  Uiso   1.00
C154   C     0.25547   0.06620   0.52036   0.00000  Uiso   1.00
C155   C     0.43403   0.24249   0.47974   0.00000  Uiso   1.00
C156   C     0.25254   0.03307   0.41877   0.00000  Uiso   1.00
C157   C     0.06609   0.25597   0.52023   0.00000  Uiso   1.00
C158   C     0.25534   0.06620   0.47980   0.00000  Uiso   1.00
C159   C     0.24510   0.43383   0.52028   0.00000  Uiso   1.00
C160   C     0.18383   0.49506   0.97973   0.00000  Uiso   1.00
C161   C     0.31620   0.00538   0.02020   0.00000  Uiso   1.00
C162   C     0.49250   0.18404   0.97970   0.00000  Uiso   1.00
C163   C     0.00597   0.31609   0.02033   0.00000  Uiso   1.00
C164   C     0.31619   0.00550   0.97964   0.00000  Uiso   1.00
C165   C     0.18383   0.49513   0.02028   0.00000  Uiso   1.00
C166   C     0.00597   0.31609   0.97977   0.00000  Uiso   1.00
C167   C     0.24762   0.46697   0.58127   0.00000  Uiso   1.00
C168   C     0.49250   0.18403   0.02026   0.00000  Uiso   1.00
C169   C     0.25001   0.00001   0.35596   0.00000  Uiso   1.00
C170   C     0.25004  -0.00000   0.64405   0.00000  Uiso   1.00
C171   C    -0.00000   0.24995   0.35595   0.00000  Uiso   1.00
C172   C     0.00001   0.24995   0.64404   0.00000  Uiso   1.00
C173   C     0.49995   0.25001   0.85596   0.00000  Uiso   1.00
C174   C     0.49995   0.25000   0.14405   0.00000  Uiso   1.00
C175   C     0.25000   0.00004   0.85595   0.00000  Uiso   1.00
C176   C     0.25001   0.00001   0.14404   0.00000  Uiso   1.00
C177   C     0.18006   0.06995   0.25000   0.00000  Uiso   1.00
C178   C     0.03300   0.25283   0.41870   0.00000  Uiso   1.00
C179   C     0.32001   0.42986   0.75000   0.00000  Uiso   1.00
C180   C     0.42991   0.17991   0.25000   0.00000  Uiso   1.00
C181   C     0.07001   0.32001   0.75000   0.00000  Uiso   1.00
C182   C     0.31995   0.43006   0.25000   0.00000  Uiso   1.00
C183   C     0.17986   0.07001   0.75001   0.00000  Uiso   1.00
C184   C     0.07009   0.32009   0.25000   0.00000  Uiso   1.00
C185   C     0.42996   0.17996   0.75000   0.00000  Uiso   1.00
C186   C     0.17990   0.42990   0.75000   0.00000  Uiso   1.00
C187   C     0.32002   0.07002   0.25000   0.00000  Uiso   1.00
C188   C     0.43009   0.32001   0.74999   0.00000  Uiso   1.00
C189   C     0.46709   0.24620   0.58128   0.00000  Uiso   1.00
C190   C     0.07009   0.17990   0.25000   0.00000  Uiso   1.00
C191   C     0.32007   0.07007   0.75000   0.00000  Uiso   1.00
C192   C     0.17999   0.42999   0.25000   0.00000  Uiso   1.00
C193   C     0.07001   0.18009   0.75001   0.00000  Uiso   1.00
C194   C     0.42990   0.32009   0.25000   0.00000  Uiso   1.00
C195   C     0.11745   0.40954   0.23406   0.00000  Uiso   1.00
C196   C     0.37826   0.09532   0.77550   0.00000  Uiso   1.00
C197   C     0.10447   0.13059   0.21614   0.00000  Uiso   1.00
C198   C     0.39485   0.36770   0.78417   0.00000  Uiso   1.00
C199   C     0.38256   0.09046   0.23403   0.00000  Uiso   1.00
C200   C     0.24775   0.46698   0.41875   0.00000  Uiso   1.00
C201   C     0.11856   0.40766   0.77012   0.00000  Uiso   1.00
C202   C     0.39555   0.36937   0.21613   0.00000  Uiso   1.00
C203   C     0.10591   0.13318   0.78472   0.00000  Uiso   1.00
C204   C     0.12998   0.10379   0.78362   0.00000  Uiso   1.00
C205   C     0.36614   0.39341   0.21518   0.00000  Uiso   1.00
C206   C     0.09068   0.38232   0.76672   0.00000  Uiso   1.00
C207   C     0.40792   0.11833   0.23046   0.00000  Uiso   1.00
C208   C     0.36951   0.39610   0.78352   0.00000  Uiso   1.00
C209   C     0.13390   0.10656   0.21519   0.00000  Uiso   1.00
C210   C     0.40674   0.11990   0.77222   0.00000  Uiso   1.00
C211   C     0.25286   0.03304   0.58132   0.00000  Uiso   1.00
C212   C     0.09209   0.38167   0.23049   0.00000  Uiso   1.00
C213   C     0.36990   0.15674   0.72778   0.00000  Uiso   1.00
C214   C     0.13167   0.34209   0.26951   0.00000  Uiso   1.00
C215   C     0.35379   0.37998   0.71638   0.00000  Uiso   1.00
C216   C     0.14341   0.11614   0.28482   0.00000  Uiso   1.00
C217   C     0.13232   0.34068   0.73328   0.00000  Uiso   1.00
C218   C     0.36833   0.15792   0.26954   0.00000  Uiso   1.00
C219   C     0.14610   0.11951   0.71648   0.00000  Uiso   1.00
C220   C     0.35656   0.38390   0.28481   0.00000  Uiso   1.00
C221   C     0.38059   0.35447   0.28386   0.00000  Uiso   1.00
C222   C     0.28304   0.00288   0.91868   0.00000  Uiso   1.00
C223   C     0.11770   0.14486   0.71583   0.00000  Uiso   1.00
C224   C     0.34046   0.13256   0.26597   0.00000  Uiso   1.00
C225   C     0.15766   0.36856   0.72988   0.00000  Uiso   1.00
C226   C     0.11936   0.14555   0.28387   0.00000  Uiso   1.00
C227   C     0.38318   0.35591   0.71529   0.00000  Uiso   1.00
C228   C     0.15954   0.36745   0.26594   0.00000  Uiso   1.00
C229   C     0.34532   0.12826   0.72450   0.00000  Uiso   1.00
C230   C     0.03325   0.25268   0.45922   0.00000  Uiso   1.00
C231   C     0.46687   0.24594   0.54076   0.00000  Uiso   1.00
C232   C     0.24772   0.46675   0.45927   0.00000  Uiso   1.00
H233   H     0.09174   0.25862   0.46430   0.00000  Uiso   1.00
H234   H     0.34191   0.00734   0.03553   0.00000  Uiso   1.00
H235   H     0.45816   0.10632   0.09538   0.00000  Uiso   1.00
H236   H     0.39297   0.45987   0.79664   0.00000  Uiso   1.00
H237   H     0.41763   0.42789   0.82716   0.00000  Uiso   1.00
H238   H     0.35648   0.48021   0.85297   0.00000  Uiso   1.00
H239   H     0.37815   0.44683   0.88379   0.00000  Uiso   1.00
H240   H     0.41748   0.00963   0.84151   0.00000  Uiso   1.00
H241   H     0.43839   0.47657   0.87360   0.00000  Uiso   1.00
H242   H     0.40527   0.00851   0.89239   0.00000  Uiso   1.00
H243   H     0.18816   0.08527   0.14579   0.00000  Uiso   1.00
H244   H     0.19499   0.11422   0.18672   0.00000  Uiso   1.00
H245   H     0.48988   0.15840   0.96433   0.00000  Uiso   1.00
H246   H     0.14311   0.13074   0.11767   0.00000  Uiso   1.00
H247   H     0.15327   0.16106   0.15752   0.00000  Uiso   1.00
H248   H     0.21901   0.16176   0.13758   0.00000  Uiso   1.00
H249   H     0.18926   0.17718   0.09914   0.00000  Uiso   1.00
H250   H     0.20851   0.13190   0.09718   0.00000  Uiso   1.00
H251   H     0.49037   0.11026   0.77137   0.00000  Uiso   1.00
H252   H     0.45703   0.09432   0.73760   0.00000  Uiso   1.00
H253   H     0.47797   0.05715   0.81538   0.00000  Uiso   1.00
H254   H     0.44507   0.04039   0.78086   0.00000  Uiso   1.00
H255   H     0.49340   0.03510   0.73013   0.00000  Uiso   1.00
H256   H     0.00861   0.34174   0.03570   0.00000  Uiso   1.00
H257   H     0.00483   0.00929   0.77308   0.00000  Uiso   1.00
H258   H     0.02679   0.05236   0.76418   0.00000  Uiso   1.00
H259   H     0.03574   0.36849   0.16195   0.00000  Uiso   1.00
H260   H     0.08182   0.35395   0.16726   0.00000  Uiso   1.00
H261   H     0.05807   0.43388   0.15196   0.00000  Uiso   1.00
H262   H     0.10390   0.41591   0.15104   0.00000  Uiso   1.00
H263   H     0.08797   0.37565   0.09513   0.00000  Uiso   1.00
H264   H     0.07971   0.42309   0.08428   0.00000  Uiso   1.00
H265   H     0.04194   0.39360   0.09543   0.00000  Uiso   1.00
H266   H     0.36026   0.24037   0.72863   0.00000  Uiso   1.00
H267   H     0.34189   0.00756   0.96426   0.00000  Uiso   1.00
H268   H     0.34433   0.20703   0.76241   0.00000  Uiso   1.00
H269   H     0.30715   0.22797   0.68463   0.00000  Uiso   1.00
H270   H     0.29039   0.19507   0.71915   0.00000  Uiso   1.00
H271   H     0.28511   0.24341   0.76988   0.00000  Uiso   1.00
H272   H     0.25929   0.25484   0.72692   0.00000  Uiso   1.00
H273   H     0.30236   0.27679   0.73583   0.00000  Uiso   1.00
H274   H     0.11849   0.28574   0.33805   0.00000  Uiso   1.00
H275   H     0.10395   0.33182   0.33274   0.00000  Uiso   1.00
H276   H     0.18388   0.30807   0.34804   0.00000  Uiso   1.00
H277   H     0.16591   0.35390   0.34896   0.00000  Uiso   1.00
H278   H     0.15813   0.49314   0.03564   0.00000  Uiso   1.00
H279   H     0.12565   0.33797   0.40488   0.00000  Uiso   1.00
H280   H     0.17308   0.32971   0.41572   0.00000  Uiso   1.00
H281   H     0.14360   0.29194   0.40457   0.00000  Uiso   1.00
H282   H     0.28079   0.37737   0.66747   0.00000  Uiso   1.00
H283   H     0.29296   0.35465   0.71145   0.00000  Uiso   1.00
H284   H     0.32588   0.33482   0.63111   0.00000  Uiso   1.00
H285   H     0.32860   0.30889   0.67565   0.00000  Uiso   1.00
H286   H     0.25954   0.32463   0.62757   0.00000  Uiso   1.00
H287   H     0.25990   0.30191   0.67427   0.00000  Uiso   1.00
H288   H     0.28283   0.28158   0.63310   0.00000  Uiso   1.00
H289   H     0.00860   0.34173   0.96443   0.00000  Uiso   1.00
H290   H     0.16462   0.06193   0.35420   0.00000  Uiso   1.00
H291   H     0.13569   0.05508   0.31328   0.00000  Uiso   1.00
H292   H     0.11915   0.10704   0.38232   0.00000  Uiso   1.00
H293   H     0.08885   0.09683   0.34250   0.00000  Uiso   1.00
H294   H     0.08813   0.03111   0.36247   0.00000  Uiso   1.00
H295   H     0.07268   0.06092   0.40090   0.00000  Uiso   1.00
H296   H     0.11796   0.04167   0.40285   0.00000  Uiso   1.00
H297   H     0.13908   0.28142   0.77169   0.00000  Uiso   1.00
H298   H     0.18337   0.29833   0.75647   0.00000  Uiso   1.00
H299   H     0.14181   0.23554   0.71700   0.00000  Uiso   1.00
H300   H     0.48987   0.15838   0.03560   0.00000  Uiso   1.00
H301   H     0.18672   0.25153   0.70484   0.00000  Uiso   1.00
H302   H     0.20849   0.23434   0.77184   0.00000  Uiso   1.00
H303   H     0.18985   0.19593   0.74595   0.00000  Uiso   1.00
H304   H     0.16339   0.21795   0.78337   0.00000  Uiso   1.00
H305   H     0.38147   0.21432   0.33809   0.00000  Uiso   1.00
H306   H     0.39605   0.16824   0.33274   0.00000  Uiso   1.00
H307   H     0.31609   0.19193   0.34812   0.00000  Uiso   1.00
H308   H     0.33411   0.14612   0.34902   0.00000  Uiso   1.00
H309   H     0.37435   0.16216   0.40490   0.00000  Uiso   1.00
H310   H     0.32690   0.17034   0.41579   0.00000  Uiso   1.00
H311   H     0.10794   0.46684   0.27484   0.00000  Uiso   1.00
H312   H     0.35632   0.20815   0.40462   0.00000  Uiso   1.00
H313   H     0.20987   0.14298   0.70336   0.00000  Uiso   1.00
H314   H     0.17789   0.16764   0.67285   0.00000  Uiso   1.00
H315   H     0.23021   0.10649   0.64703   0.00000  Uiso   1.00
H316   H     0.19683   0.12817   0.61621   0.00000  Uiso   1.00
H317   H     0.25964   0.16749   0.65850   0.00000  Uiso   1.00
H318   H     0.22657   0.18841   0.62641   0.00000  Uiso   1.00
H319   H     0.25851   0.15529   0.60762   0.00000  Uiso   1.00
H320   H     0.33527   0.43816   0.35421   0.00000  Uiso   1.00
H321   H     0.36422   0.44499   0.31328   0.00000  Uiso   1.00
H322   H     0.06455   0.45004   0.25675   0.00000  Uiso   1.00
H323   H     0.38073   0.39311   0.38233   0.00000  Uiso   1.00
H324   H     0.41106   0.40327   0.34249   0.00000  Uiso   1.00
H325   H     0.41176   0.46901   0.36242   0.00000  Uiso   1.00
H326   H     0.42718   0.43926   0.40087   0.00000  Uiso   1.00
H327   H     0.38190   0.45851   0.40282   0.00000  Uiso   1.00
H328   H     0.37856   0.28211   0.33430   0.00000  Uiso   1.00
H329   H     0.35654   0.29311   0.28961   0.00000  Uiso   1.00
H330   H     0.33542   0.32479   0.37026   0.00000  Uiso   1.00
H331   H     0.31111   0.33138   0.32520   0.00000  Uiso   1.00
H332   H     0.30003   0.26396   0.32095   0.00000  Uiso   1.00
H333   H     0.10710   0.01550   0.22426   0.00000  Uiso   1.00
H334   H     0.28082   0.28438   0.36414   0.00000  Uiso   1.00
H335   H     0.32250   0.25840   0.36752   0.00000  Uiso   1.00
H336   H     0.05785   0.14297   0.67799   0.00000  Uiso   1.00
H337   H     0.09300   0.11707   0.65274   0.00000  Uiso   1.00
H338   H     0.06876   0.19482   0.63083   0.00000  Uiso   1.00
H339   H     0.10017   0.16613   0.60460   0.00000  Uiso   1.00
H340   H     0.04986   0.12106   0.59284   0.00000  Uiso   1.00
H341   H     0.03902   0.16566   0.57383   0.00000  Uiso   1.00
H342   H     0.01848   0.15071   0.61870   0.00000  Uiso   1.00
H343   H     0.28317   0.14202   0.22523   0.00000  Uiso   1.00
H344   H     0.40840   0.23987   0.53567   0.00000  Uiso   1.00
H345   H     0.06422   0.49874   0.20617   0.00000  Uiso   1.00
H346   H     0.29996   0.18543   0.24331   0.00000  Uiso   1.00
H347   H     0.23449   0.14290   0.27585   0.00000  Uiso   1.00
H348   H     0.25124   0.18581   0.29390   0.00000  Uiso   1.00
H349   H     0.23799   0.21512   0.22993   0.00000  Uiso   1.00
H350   H     0.19777   0.19400   0.24975   0.00000  Uiso   1.00
H351   H     0.22226   0.17197   0.21084   0.00000  Uiso   1.00
H352   H     0.21339   0.38325   0.66122   0.00000  Uiso   1.00
H353   H     0.16717   0.39717   0.66708   0.00000  Uiso   1.00
H354   H     0.19179   0.31787   0.64969   0.00000  Uiso   1.00
H355   H     0.14575   0.33529   0.64949   0.00000  Uiso   1.00
H356   H     0.03482   0.01201   0.27013   0.00000  Uiso   1.00
H357   H     0.16102   0.37694   0.59450   0.00000  Uiso   1.00
H358   H     0.16973   0.32984   0.58242   0.00000  Uiso   1.00
H359   H     0.20723   0.35948   0.59412   0.00000  Uiso   1.00
H360   H     0.12134   0.21793   0.33435   0.00000  Uiso   1.00
H361   H     0.14342   0.20692   0.28966   0.00000  Uiso   1.00
H362   H     0.16443   0.17525   0.37030   0.00000  Uiso   1.00
H363   H     0.18879   0.16866   0.32524   0.00000  Uiso   1.00
H364   H     0.17735   0.24164   0.36763   0.00000  Uiso   1.00
H365   H     0.19987   0.23608   0.32106   0.00000  Uiso   1.00
H366   H     0.21903   0.21567   0.36423   0.00000  Uiso   1.00
H367   H     0.05598   0.05223   0.25036   0.00000  Uiso   1.00
H368   H     0.43451   0.33260   0.64362   0.00000  Uiso   1.00
H369   H     0.44441   0.36004   0.68492   0.00000  Uiso   1.00
H370   H     0.39116   0.38053   0.61829   0.00000  Uiso   1.00
H371   H     0.40299   0.40933   0.65889   0.00000  Uiso   1.00
H372   H     0.46822   0.40884   0.63779   0.00000  Uiso   1.00
H373   H     0.43839   0.42600   0.60026   0.00000  Uiso   1.00
H374   H     0.45640   0.38030   0.59670   0.00000  Uiso   1.00
H375   H     0.21684   0.35794   0.22516   0.00000  Uiso   1.00
H376   H     0.20004   0.31455   0.24325   0.00000  Uiso   1.00
H377   H     0.26550   0.35710   0.27575   0.00000  Uiso   1.00
H378   H     0.07794   0.02775   0.28927   0.00000  Uiso   1.00
H379   H     0.24874   0.31422   0.29383   0.00000  Uiso   1.00
H380   H     0.26201   0.28482   0.22987   0.00000  Uiso   1.00
H381   H     0.30223   0.30598   0.24964   0.00000  Uiso   1.00
H382   H     0.27774   0.32794   0.21073   0.00000  Uiso   1.00
H383   H     0.29987   0.10288   0.65085   0.00000  Uiso   1.00
H384   H     0.34385   0.08928   0.66735   0.00000  Uiso   1.00
H385   H     0.32609   0.16509   0.63207   0.00000  Uiso   1.00
H386   H     0.37062   0.14707   0.64332   0.00000  Uiso   1.00
H387   H     0.36181   0.09738   0.59426   0.00000  Uiso   1.00
H388   H     0.35774   0.14209   0.57281   0.00000  Uiso   1.00
H389   H     0.35288   0.04987   0.84915   0.00000  Uiso   1.00
H390   H     0.31730   0.11585   0.58252   0.00000  Uiso   1.00
H391   H     0.44155   0.24364   0.40307   0.00000  Uiso   1.00
H392   H     0.05846   0.25585   0.59686   0.00000  Uiso   1.00
H393   H     0.25441   0.05863   0.40312   0.00000  Uiso   1.00
H394   H     0.24549   0.44141   0.59692   0.00000  Uiso   1.00
H395   H     0.05849   0.25557   0.40303   0.00000  Uiso   1.00
H396   H     0.44159   0.24361   0.59697   0.00000  Uiso   1.00
H397   H     0.24582   0.44141   0.40308   0.00000  Uiso   1.00
H398   H     0.25500   0.05859   0.59699   0.00000  Uiso   1.00
H399   H     0.30859   0.00503   0.90301   0.00000  Uiso   1.00
H400   H     0.33928   0.09385   0.83265   0.00000  Uiso   1.00
H401   H     0.19142   0.49579   0.09692   0.00000  Uiso   1.00
H402   H     0.00585   0.30846   0.90314   0.00000  Uiso   1.00
H403   H     0.49364   0.19155   0.09693   0.00000  Uiso   1.00
H404   H     0.19141   0.49546   0.90308   0.00000  Uiso   1.00
H405   H     0.30863   0.00445   0.09688   0.00000  Uiso   1.00
H406   H     0.49362   0.19159   0.90304   0.00000  Uiso   1.00
H407   H     0.00557   0.30849   0.09697   0.00000  Uiso   1.00
H408   H     0.41509   0.07609   0.86794   0.00000  Uiso   1.00
H409   H     0.39707   0.12062   0.85668   0.00000  Uiso   1.00
H410   H     0.34738   0.11181   0.90574   0.00000  Uiso   1.00
H411   H     0.39208   0.10774   0.92719   0.00000  Uiso   1.00
H412   H     0.24319   0.40813   0.46436   0.00000  Uiso   1.00
H413   H     0.36585   0.06730   0.91748   0.00000  Uiso   1.00
H414   H     0.03211   0.12856   0.16570   0.00000  Uiso   1.00
H415   H     0.04310   0.10654   0.21039   0.00000  Uiso   1.00
H416   H     0.07480   0.08541   0.12974   0.00000  Uiso   1.00
H417   H     0.08138   0.06111   0.17481   0.00000  Uiso   1.00
H418   H     0.00841   0.07250   0.13247   0.00000  Uiso   1.00
H419   H     0.01396   0.05004   0.17906   0.00000  Uiso   1.00
H420   H     0.03438   0.03081   0.13587   0.00000  Uiso   1.00
H421   H     0.39304   0.30782   0.82199   0.00000  Uiso   1.00
H422   H     0.36707   0.34292   0.84722   0.00000  Uiso   1.00
H423   H     0.25751   0.09189   0.53574   0.00000  Uiso   1.00
H424   H     0.44484   0.31884   0.86920   0.00000  Uiso   1.00
H425   H     0.41604   0.35014   0.89542   0.00000  Uiso   1.00
H426   H     0.37109   0.29970   0.90704   0.00000  Uiso   1.00
H427   H     0.41568   0.28900   0.92616   0.00000  Uiso   1.00
H428   H     0.40089   0.26843   0.88125   0.00000  Uiso   1.00
H429   H     0.39202   0.03317   0.27477   0.00000  Uiso   1.00
H430   H     0.43542   0.04996   0.25670   0.00000  Uiso   1.00
H431   H     0.39291   0.48449   0.22415   0.00000  Uiso   1.00
H432   H     0.43582   0.00124   0.20610   0.00000  Uiso   1.00
H433   H     0.46512   0.48799   0.27008   0.00000  Uiso   1.00
H434   H     0.40838   0.23986   0.46440   0.00000  Uiso   1.00
H435   H     0.44400   0.44777   0.25025   0.00000  Uiso   1.00
H436   H     0.42197   0.47226   0.28916   0.00000  Uiso   1.00
H437   H     0.13326   0.46339   0.83879   0.00000  Uiso   1.00
H438   H     0.14718   0.41717   0.83292   0.00000  Uiso   1.00
H439   H     0.06788   0.44179   0.85031   0.00000  Uiso   1.00
H440   H     0.08530   0.39575   0.85051   0.00000  Uiso   1.00
H441   H     0.12694   0.41101   0.90550   0.00000  Uiso   1.00
H442   H     0.07984   0.41972   0.91758   0.00000  Uiso   1.00
H443   H     0.10948   0.45723   0.90588   0.00000  Uiso   1.00
H444   H     0.46793   0.37134   0.16566   0.00000  Uiso   1.00
H445   H     0.09173   0.25860   0.53557   0.00000  Uiso   1.00
H446   H     0.45692   0.39342   0.21034   0.00000  Uiso   1.00
H447   H     0.42525   0.41443   0.12970   0.00000  Uiso   1.00
H448   H     0.41866   0.43879   0.17476   0.00000  Uiso   1.00
H449   H     0.49164   0.42735   0.13237   0.00000  Uiso   1.00
H450   H     0.48608   0.44987   0.17895   0.00000  Uiso   1.00
H451   H     0.46567   0.46904   0.13577   0.00000  Uiso   1.00
H452   H     0.08259   0.18451   0.85637   0.00000  Uiso   1.00
H453   H     0.11004   0.19441   0.81509   0.00000  Uiso   1.00
H454   H     0.13051   0.14115   0.88172   0.00000  Uiso   1.00
H455   H     0.15932   0.15299   0.84113   0.00000  Uiso   1.00
H456   H     0.25730   0.09191   0.46447   0.00000  Uiso   1.00
H457   H     0.15883   0.21822   0.86222   0.00000  Uiso   1.00
H458   H     0.17598   0.18838   0.89976   0.00000  Uiso   1.00
H459   H     0.13028   0.20640   0.90330   0.00000  Uiso   1.00
H460   H     0.12737   0.03079   0.83252   0.00000  Uiso   1.00
H461   H     0.10465   0.04296   0.78854   0.00000  Uiso   1.00
H462   H     0.08482   0.07587   0.86889   0.00000  Uiso   1.00
H463   H     0.05888   0.07859   0.82435   0.00000  Uiso   1.00
H464   H     0.05191   0.00989   0.82573   0.00000  Uiso   1.00
H465   H     0.03158   0.03282   0.86690   0.00000  Uiso   1.00
H466   H     0.07463   0.00954   0.87243   0.00000  Uiso   1.00
H467   H     0.24305   0.40813   0.53562   0.00000  Uiso   1.00
H468   H     0.31193   0.41462   0.14580   0.00000  Uiso   1.00
H469   H     0.30508   0.38569   0.18672   0.00000  Uiso   1.00
H470   H     0.35704   0.36916   0.11767   0.00000  Uiso   1.00
H471   H     0.34683   0.33885   0.15750   0.00000  Uiso   1.00
H472   H     0.28112   0.33813   0.13753   0.00000  Uiso   1.00
H473   H     0.31092   0.32269   0.09910   0.00000  Uiso   1.00
H474   H     0.29167   0.36796   0.09715   0.00000  Uiso   1.00
H475   H     0.03142   0.38908   0.72832   0.00000  Uiso   1.00
H476   H     0.04833   0.43336   0.74353   0.00000  Uiso   1.00
H477   H     0.48555   0.39182   0.78301   0.00000  Uiso   1.00
H478   H     0.15813   0.49300   0.96438   0.00000  Uiso   1.00
H479   H     0.00153   0.43673   0.79517   0.00000  Uiso   1.00
H480   H     0.48434   0.45848   0.72817   0.00000  Uiso   1.00
H481   H     0.44593   0.43986   0.75406   0.00000  Uiso   1.00
H482   H     0.46794   0.41339   0.71664   0.00000  Uiso   1.00
H483   H     0.46432   0.13147   0.16192   0.00000  Uiso   1.00
H484   H     0.41824   0.14605   0.16726   0.00000  Uiso   1.00
H485   H     0.44193   0.06609   0.15188   0.00000  Uiso   1.00
H486   H     0.39613   0.08410   0.15098   0.00000  Uiso   1.00
H487   H     0.41216   0.12434   0.09510   0.00000  Uiso   1.00
H488   H     0.42034   0.07690   0.08421   0.00000  Uiso   1.00
O489   O     0.25000  -0.00000   0.25000   0.00000  Uiso   1.00
O490   O     0.25000   0.46964   0.66245   0.00000  Uiso   1.00
O491   O     0.46963   0.25000   0.33755   0.00000  Uiso   1.00
O492   O     0.03036   0.25000   0.66245   0.00000  Uiso   1.00
O493   O    -0.00000   0.21963   0.83755   0.00000  Uiso   1.00
O494   O     0.00000   0.28037   0.16245   0.00000  Uiso   1.00
O495   O     0.28036  -0.00000   0.83755   0.00000  Uiso   1.00
O496   O     0.21963  -0.00000   0.16245   0.00000  Uiso   1.00
O497   O     0.00000   0.28037   0.83755   0.00000  Uiso   1.00
O498   O     0.00000   0.21964   0.16245   0.00000  Uiso   1.00
O499   O     0.21963  -0.00000   0.83755   0.00000  Uiso   1.00
O500   O     0.25000  -0.00000   0.75000   0.00000  Uiso   1.00
O501   O     0.28036  -0.00000   0.16245   0.00000  Uiso   1.00
O502   O     0.20724   0.07307   0.27302   0.00000  Uiso   1.00
O503   O     0.29275   0.42693   0.72698   0.00000  Uiso   1.00
O504   O     0.42692   0.20724   0.27302   0.00000  Uiso   1.00
O505   O     0.07307   0.29276   0.72698   0.00000  Uiso   1.00
O506   O     0.29275   0.42693   0.27302   0.00000  Uiso   1.00
O507   O     0.20724   0.07307   0.72698   0.00000  Uiso   1.00
O508   O     0.07307   0.29276   0.27302   0.00000  Uiso   1.00
O509   O     0.42692   0.20724   0.72698   0.00000  Uiso   1.00
O510   O     0.20724   0.42693   0.72698   0.00000  Uiso   1.00
O511   O     0.00000   0.25000   0.25000   0.00000  Uiso   1.00
O512   O     0.29275   0.07307   0.27302   0.00000  Uiso   1.00
O513   O     0.42692   0.29275   0.72698   0.00000  Uiso   1.00
O514   O     0.07307   0.20725   0.27302   0.00000  Uiso   1.00
O515   O     0.29275   0.07307   0.72698   0.00000  Uiso   1.00
O516   O     0.20724   0.42693   0.27302   0.00000  Uiso   1.00
O517   O     0.07307   0.20725   0.72698   0.00000  Uiso   1.00
O518   O     0.42692   0.29275   0.27302   0.00000  Uiso   1.00
O519   O     0.45724   0.32307   0.77302   0.00000  Uiso   1.00
O520   O     0.04275   0.17693   0.22698   0.00000  Uiso   1.00
O521   O     0.17692   0.45725   0.77302   0.00000  Uiso   1.00
O522   O     0.00000   0.25000   0.75000   0.00000  Uiso   1.00
O523   O     0.32307   0.04275   0.22698   0.00000  Uiso   1.00
O524   O     0.04275   0.17693   0.77302   0.00000  Uiso   1.00
O525   O     0.45724   0.32307   0.22698   0.00000  Uiso   1.00
O526   O     0.32307   0.04275   0.77302   0.00000  Uiso   1.00
O527   O     0.17692   0.45725   0.22698   0.00000  Uiso   1.00
O528   O     0.45724   0.17692   0.22698   0.00000  Uiso   1.00
O529   O     0.04275   0.32308   0.77302   0.00000  Uiso   1.00
O530   O     0.17692   0.04275   0.22698   0.00000  Uiso   1.00
O531   O     0.32307   0.45725   0.77302   0.00000  Uiso   1.00
O532   O     0.04275   0.32308   0.22698   0.00000  Uiso   1.00
O533   O     0.25000   0.46964   0.33755   0.00000  Uiso   1.00
O534   O     0.45724   0.17692   0.77302   0.00000  Uiso   1.00
O535   O     0.32307   0.45725   0.22698   0.00000  Uiso   1.00
O536   O     0.17692   0.04275   0.77302   0.00000  Uiso   1.00
O537   O     0.10900   0.44367   0.21948   0.00000  Uiso   1.00
O538   O     0.38181   0.06690   0.80173   0.00000  Uiso   1.00
O539   O     0.08496   0.13654   0.18219   0.00000  Uiso   1.00
O540   O     0.41368   0.36050   0.81820   0.00000  Uiso   1.00
O541   O     0.39101   0.05631   0.21943   0.00000  Uiso   1.00
O542   O     0.11151   0.43964   0.79029   0.00000  Uiso   1.00
O543   O     0.41508   0.36337   0.18217   0.00000  Uiso   1.00
O544   O     0.25000   0.03036   0.66245   0.00000  Uiso   1.00
O545   O     0.08826   0.14123   0.81938   0.00000  Uiso   1.00
O546   O     0.13556   0.08387   0.81736   0.00000  Uiso   1.00
O547   O     0.35704   0.41009   0.18032   0.00000  Uiso   1.00
O548   O     0.05690   0.39057   0.78244   0.00000  Uiso   1.00
O549   O     0.44013   0.11106   0.21081   0.00000  Uiso   1.00
O550   O     0.36283   0.41574   0.81723   0.00000  Uiso   1.00
O551   O     0.14302   0.08985   0.18032   0.00000  Uiso   1.00
O552   O     0.43836   0.11325   0.79308   0.00000  Uiso   1.00
O553   O     0.05989   0.38893   0.21086   0.00000  Uiso   1.00
O554   O     0.36325   0.18837   0.70692   0.00000  Uiso   1.00
O555   O     0.03036   0.25000   0.33755   0.00000  Uiso   1.00
O556   O     0.13893   0.30989   0.28914   0.00000  Uiso   1.00
O557   O     0.33387   0.38556   0.68264   0.00000  Uiso   1.00
O558   O     0.16008   0.10704   0.31969   0.00000  Uiso   1.00
O559   O     0.14057   0.30689   0.71756   0.00000  Uiso   1.00
O560   O     0.36106   0.19013   0.28919   0.00000  Uiso   1.00
O561   O     0.16574   0.11284   0.68277   0.00000  Uiso   1.00
O562   O     0.33985   0.39302   0.31968   0.00000  Uiso   1.00
O563   O     0.38654   0.33496   0.31782   0.00000  Uiso   1.00
O564   O     0.11051   0.16369   0.68181   0.00000  Uiso   1.00
O565   O     0.30632   0.14101   0.28057   0.00000  Uiso   1.00
O566   O     0.46963   0.25000   0.66245   0.00000  Uiso   1.00
O567   O     0.18964   0.36151   0.70971   0.00000  Uiso   1.00
O568   O     0.11337   0.16508   0.31783   0.00000  Uiso   1.00
O569   O     0.39123   0.33826   0.68062   0.00000  Uiso   1.00
O570   O     0.19367   0.35900   0.28052   0.00000  Uiso   1.00
O571   O     0.31690   0.13181   0.69827   0.00000  Uiso   1.00
O572   O     0.25000   0.03036   0.33755   0.00000  Uiso   1.00
Zn573  Zn    0.20659  -0.00000   0.21735   0.00000  Uiso   1.00
Zn574  Zn    0.04340   0.25000   0.28265   0.00000  Uiso   1.00
Zn575  Zn    0.25000   0.45660   0.71735   0.00000  Uiso   1.00
Zn576  Zn    0.25000   0.04340   0.28265   0.00000  Uiso   1.00
Zn577  Zn    0.04340   0.25000   0.71735   0.00000  Uiso   1.00
Zn578  Zn    0.45659   0.25000   0.28265   0.00000  Uiso   1.00
Zn579  Zn    0.25000   0.04340   0.71735   0.00000  Uiso   1.00
Zn580  Zn    0.25000   0.45660   0.28265   0.00000  Uiso   1.00
Zn581  Zn    0.29340  -0.00000   0.78265   0.00000  Uiso   1.00
Zn582  Zn    0.00000   0.20660   0.21735   0.00000  Uiso   1.00
Zn583  Zn   -0.00000   0.29340   0.78265   0.00000  Uiso   1.00
Zn584  Zn    0.29340  -0.00000   0.21735   0.00000  Uiso   1.00
Zn585  Zn    0.20659  -0.00000   0.78265   0.00000  Uiso   1.00
Zn586  Zn    0.00000   0.29341   0.21735   0.00000  Uiso   1.00
Zn587  Zn    0.00000   0.20660   0.78265   0.00000  Uiso   1.00
Zn588  Zn    0.45659   0.25000   0.71735   0.00000  Uiso   1.00
C589   C     0.96705   0.24621   0.41873   0.00000  Uiso   1.00
C590   C     0.71698   0.49773   0.08125   0.00000  Uiso   1.00
C591   C     0.75290   0.03328   0.54080   0.00000  Uiso   1.00
C592   C     0.96685   0.24594   0.45925   0.00000  Uiso   1.00
C593   C     0.53325   0.25270   0.54072   0.00000  Uiso   1.00
C594   C     0.75272   0.03330   0.45930   0.00000  Uiso   1.00
C595   C     0.74766   0.46674   0.54076   0.00000  Uiso   1.00
C596   C     0.71674   0.49764   0.95924   0.00000  Uiso   1.00
C597   C     0.78329   0.00274   0.04070   0.00000  Uiso   1.00
C598   C     0.99594   0.21687   0.95924   0.00000  Uiso   1.00
C599   C     0.50267   0.28325   0.04078   0.00000  Uiso   1.00
C600   C     0.78328   0.00291   0.95920   0.00000  Uiso   1.00
C601   C     0.50296   0.28299   0.91877   0.00000  Uiso   1.00
C602   C     0.71675   0.49770   0.04073   0.00000  Uiso   1.00
C603   C     0.50270   0.28325   0.95928   0.00000  Uiso   1.00
C604   C     0.99595   0.21685   0.04075   0.00000  Uiso   1.00
C605   C     0.59823   0.34823   0.25000   0.00000  Uiso   1.00
C606   C     0.90190   0.15190   0.75000   0.00000  Uiso   1.00
C607   C     0.65210   0.09792   0.25000   0.00000  Uiso   1.00
C608   C     0.84799   0.40150   0.75000   0.00000  Uiso   1.00
C609   C     0.90177   0.15177   0.25000   0.00000  Uiso   1.00
C610   C     0.59801   0.34801   0.75000   0.00000  Uiso   1.00
C611   C     0.84792   0.40210   0.25000   0.00000  Uiso   1.00
C612   C     0.99622   0.21705   0.08127   0.00000  Uiso   1.00
C613   C     0.65150   0.09799   0.75001   0.00000  Uiso   1.00
C614   C     0.59831   0.15241   0.75023   0.00000  Uiso   1.00
C615   C     0.90170   0.34828   0.25000   0.00000  Uiso   1.00
C616   C     0.65176   0.40176   0.75000   0.00000  Uiso   1.00
C617   C     0.84802   0.09802   0.25000   0.00000  Uiso   1.00
C618   C     0.90241   0.34831   0.74978   0.00000  Uiso   1.00
C619   C     0.59828   0.15170   0.25000   0.00000  Uiso   1.00
C620   C     0.84817   0.09817   0.75000   0.00000  Uiso   1.00
C621   C     0.65198   0.40198   0.25000   0.00000  Uiso   1.00
C622   C     0.50006   0.24925   0.47960   0.00000  Uiso   1.00
C623   C     0.71697   0.49760   0.91873   0.00000  Uiso   1.00
C624   C     0.50006   0.24925   0.52037   0.00000  Uiso   1.00
C625   C     0.75025   0.00002   0.47965   0.00000  Uiso   1.00
C626   C     0.75028   0.00001   0.52042   0.00000  Uiso   1.00
C627   C     0.75001   0.00028   0.97958   0.00000  Uiso   1.00
C628   C     0.75002   0.00025   0.02035   0.00000  Uiso   1.00
C629   C     0.99925   0.25006   0.97963   0.00000  Uiso   1.00
C630   C     0.99925   0.25006   0.02040   0.00000  Uiso   1.00
C631   C     0.59048   0.46372   0.24851   0.00000  Uiso   1.00
C632   C     0.58146   0.00154   0.23257   0.00000  Uiso   1.00
C633   C     0.56128   0.02473   0.26254   0.00000  Uiso   1.00
C634   C     0.78307   0.00256   0.08123   0.00000  Uiso   1.00
C635   C     0.86349   0.07572   0.83685   0.00000  Uiso   1.00
C636   C     0.88976   0.09270   0.86627   0.00000  Uiso   1.00
C637   C     0.87259   0.09498   0.90665   0.00000  Uiso   1.00
C638   C     0.55410   0.11341   0.18101   0.00000  Uiso   1.00
C639   C     0.56216   0.07845   0.15816   0.00000  Uiso   1.00
C640   C     0.52748   0.05667   0.15102   0.00000  Uiso   1.00
C641   C     0.89499   0.33342   0.83931   0.00000  Uiso   1.00
C642   C     0.91615   0.32548   0.87665   0.00000  Uiso   1.00
C643   C     0.89981   0.29365   0.89909   0.00000  Uiso   1.00
C644   C     0.90950   0.03627   0.24845   0.00000  Uiso   1.00
C645   C     0.99620   0.21709   0.91872   0.00000  Uiso   1.00
C646   C     0.91853   0.49845   0.23249   0.00000  Uiso   1.00
C647   C     0.93867   0.47527   0.26246   0.00000  Uiso   1.00
C648   C     0.62354   0.43617   0.82936   0.00000  Uiso   1.00
C649   C     0.59230   0.42466   0.85617   0.00000  Uiso   1.00
C650   C     0.60290   0.42844   0.89892   0.00000  Uiso   1.00
C651   C     0.94594   0.38651   0.18097   0.00000  Uiso   1.00
C652   C     0.93789   0.42143   0.15810   0.00000  Uiso   1.00
C653   C     0.97256   0.44320   0.15093   0.00000  Uiso   1.00
C654   C     0.60352   0.17272   0.83661   0.00000  Uiso   1.00
C655   C     0.63736   0.16306   0.86066   0.00000  Uiso   1.00
C656   C     0.50283   0.28300   0.08130   0.00000  Uiso   1.00
C657   C     0.65140   0.19616   0.88283   0.00000  Uiso   1.00
C658   C     0.61215   0.05323   0.81808   0.00000  Uiso   1.00
C659   C     0.57759   0.06118   0.84170   0.00000  Uiso   1.00
C660   C     0.55774   0.02611   0.85227   0.00000  Uiso   1.00
C661   C     0.82550   0.39381   0.16434   0.00000  Uiso   1.00
C662   C     0.83573   0.36103   0.13892   0.00000  Uiso   1.00
C663   C     0.80273   0.34664   0.11686   0.00000  Uiso   1.00
C664   C     0.53536   0.40764   0.75364   0.00000  Uiso   1.00
C665   C     0.99808   0.41691   0.77100   0.00000  Uiso   1.00
C666   C     0.97257   0.43319   0.74050   0.00000  Uiso   1.00
C667   C     0.50001   0.24969   0.39841   0.00000  Uiso   1.00
C668   C     0.93695   0.12227   0.17145   0.00000  Uiso   1.00
C669   C     0.92516   0.09061   0.14533   0.00000  Uiso   1.00
C670   C     0.92926   0.10025   0.10236   0.00000  Uiso   1.00
C671   C     0.89088   0.44157   0.82243   0.00000  Uiso   1.00
C672   C     0.88215   0.46480   0.85814   0.00000  Uiso   1.00
C673   C     0.91279   0.49153   0.86686   0.00000  Uiso   1.00
C674   C     0.67459   0.10610   0.16434   0.00000  Uiso   1.00
C675   C     0.66439   0.13887   0.13893   0.00000  Uiso   1.00
C676   C     0.69743   0.15324   0.11689   0.00000  Uiso   1.00
C677   C     0.96428   0.09515   0.76919   0.00000  Uiso   1.00
C678   C     0.50003   0.24971   0.60158   0.00000  Uiso   1.00
C679   C     0.97052   0.05633   0.78405   0.00000  Uiso   1.00
C680   C     0.50081   0.03719   0.76137   0.00000  Uiso   1.00
C681   C     0.56310   0.37771   0.17148   0.00000  Uiso   1.00
C682   C     0.57488   0.40938   0.14539   0.00000  Uiso   1.00
C683   C     0.57082   0.39973   0.10241   0.00000  Uiso   1.00
C684   C     0.84515   0.21428   0.73081   0.00000  Uiso   1.00
C685   C     0.80633   0.22052   0.71596   0.00000  Uiso   1.00
C686   C     0.78719   0.25081   0.73863   0.00000  Uiso   1.00
C687   C     0.62771   0.31310   0.32852   0.00000  Uiso   1.00
C688   C     0.65938   0.32488   0.35462   0.00000  Uiso   1.00
C689   C     0.75009   0.00002   0.39843   0.00000  Uiso   1.00
C690   C     0.64972   0.32082   0.39760   0.00000  Uiso   1.00
C691   C     0.80323   0.36215   0.68192   0.00000  Uiso   1.00
C692   C     0.81119   0.32759   0.65830   0.00000  Uiso   1.00
C693   C     0.77611   0.30774   0.64773   0.00000  Uiso   1.00
C694   C     0.64381   0.07549   0.33566   0.00000  Uiso   1.00
C695   C     0.61103   0.08573   0.36108   0.00000  Uiso   1.00
C696   C     0.59663   0.05272   0.38314   0.00000  Uiso   1.00
C697   C     0.65764   0.28536   0.74636   0.00000  Uiso   1.00
C698   C     0.66690   0.24808   0.72901   0.00000  Uiso   1.00
C699   C     0.68319   0.22257   0.75951   0.00000  Uiso   1.00
C700   C     0.53299   0.25296   0.58123   0.00000  Uiso   1.00
C701   C     0.75017   0.00000   0.60161   0.00000  Uiso   1.00
C702   C     0.87227   0.18694   0.32856   0.00000  Uiso   1.00
C703   C     0.84061   0.17515   0.35467   0.00000  Uiso   1.00
C704   C     0.85025   0.17926   0.39765   0.00000  Uiso   1.00
C705   C     0.69158   0.14089   0.67758   0.00000  Uiso   1.00
C706   C     0.71480   0.13216   0.64187   0.00000  Uiso   1.00
C707   C     0.74153   0.16281   0.63315   0.00000  Uiso   1.00
C708   C     0.85610   0.42459   0.33566   0.00000  Uiso   1.00
C709   C     0.88887   0.41439   0.36107   0.00000  Uiso   1.00
C710   C     0.90324   0.44743   0.38311   0.00000  Uiso   1.00
C711   C     0.86341   0.30410   0.31899   0.00000  Uiso   1.00
C712   C     0.75000   0.00017   0.89840   0.00000  Uiso   1.00
C713   C     0.82845   0.31215   0.34185   0.00000  Uiso   1.00
C714   C     0.80667   0.27748   0.34898   0.00000  Uiso   1.00
C715   C     0.58345   0.14498   0.66068   0.00000  Uiso   1.00
C716   C     0.57548   0.16615   0.62336   0.00000  Uiso   1.00
C717   C     0.54371   0.14975   0.60086   0.00000  Uiso   1.00
C718   C     0.78627   0.15950   0.25156   0.00000  Uiso   1.00
C719   C     0.74845   0.16853   0.26751   0.00000  Uiso   1.00
C720   C     0.72527   0.18867   0.23755   0.00000  Uiso   1.00
C721   C     0.68617   0.37354   0.67064   0.00000  Uiso   1.00
C722   C     0.67466   0.34230   0.64383   0.00000  Uiso   1.00
C723   C     0.75002   0.00009   0.10157   0.00000  Uiso   1.00
C724   C     0.67845   0.35290   0.60109   0.00000  Uiso   1.00
C725   C     0.63650   0.19594   0.31903   0.00000  Uiso   1.00
C726   C     0.67143   0.18789   0.34190   0.00000  Uiso   1.00
C727   C     0.69320   0.22256   0.34907   0.00000  Uiso   1.00
C728   C     0.92273   0.35352   0.66340   0.00000  Uiso   1.00
C729   C     0.91306   0.38737   0.63935   0.00000  Uiso   1.00
C730   C     0.94616   0.40141   0.61719   0.00000  Uiso   1.00
C731   C     0.71372   0.34048   0.25149   0.00000  Uiso   1.00
C732   C     0.75154   0.33146   0.26743   0.00000  Uiso   1.00
C733   C     0.77473   0.31128   0.23746   0.00000  Uiso   1.00
C734   C     0.99971   0.25003   0.89842   0.00000  Uiso   1.00
C735   C     0.82571   0.11349   0.66315   0.00000  Uiso   1.00
C736   C     0.84270   0.13976   0.63373   0.00000  Uiso   1.00
C737   C     0.84498   0.12260   0.59335   0.00000  Uiso   1.00
C738   C     0.99969   0.25001   0.10159   0.00000  Uiso   1.00
C739   C     0.56609   0.25597   0.47967   0.00000  Uiso   1.00
C740   C     0.93404   0.24249   0.52030   0.00000  Uiso   1.00
C741   C     0.74517   0.43383   0.47972   0.00000  Uiso   1.00
C742   C     0.75547   0.06620   0.52036   0.00000  Uiso   1.00
C743   C     0.93403   0.24249   0.47974   0.00000  Uiso   1.00
C744   C     0.75254   0.03307   0.41877   0.00000  Uiso   1.00
C745   C     0.56609   0.25597   0.52023   0.00000  Uiso   1.00
C746   C     0.75534   0.06620   0.47980   0.00000  Uiso   1.00
C747   C     0.74510   0.43383   0.52028   0.00000  Uiso   1.00
C748   C     0.68383   0.49506   0.97973   0.00000  Uiso   1.00
C749   C     0.81620   0.00538   0.02020   0.00000  Uiso   1.00
C750   C     0.99250   0.18404   0.97970   0.00000  Uiso   1.00
C751   C     0.50597   0.31609   0.02033   0.00000  Uiso   1.00
C752   C     0.81619   0.00550   0.97964   0.00000  Uiso   1.00
C753   C     0.68383   0.49513   0.02028   0.00000  Uiso   1.00
C754   C     0.50597   0.31609   0.97977   0.00000  Uiso   1.00
C755   C     0.74762   0.46697   0.58127   0.00000  Uiso   1.00
C756   C     0.99250   0.18403   0.02026   0.00000  Uiso   1.00
C757   C     0.75001   0.00001   0.35596   0.00000  Uiso   1.00
C758   C     0.75004  -0.00000   0.64405   0.00000  Uiso   1.00
C759   C     0.50000   0.24995   0.35595   0.00000  Uiso   1.00
C760   C     0.50001   0.24995   0.64404   0.00000  Uiso   1.00
C761   C     0.99995   0.25001   0.85596   0.00000  Uiso   1.00
C762   C     0.99995   0.25000   0.14405   0.00000  Uiso   1.00
C763   C     0.75000   0.00004   0.85595   0.00000  Uiso   1.00
C764   C     0.75001   0.00001   0.14404   0.00000  Uiso   1.00
C765   C     0.68006   0.06995   0.25000   0.00000  Uiso   1.00
C766   C     0.53300   0.25283   0.41870   0.00000  Uiso   1.00
C767   C     0.82001   0.42986   0.75000   0.00000  Uiso   1.00
C768   C     0.92991   0.17991   0.25000   0.00000  Uiso   1.00
C769   C     0.57001   0.32001   0.75000   0.00000  Uiso   1.00
C770   C     0.81995   0.43006   0.25000   0.00000  Uiso   1.00
C771   C     0.67986   0.07001   0.75001   0.00000  Uiso   1.00
C772   C     0.57009   0.32009   0.25000   0.00000  Uiso   1.00
C773   C     0.92996   0.17996   0.75000   0.00000  Uiso   1.00
C774   C     0.67990   0.42990   0.75000   0.00000  Uiso   1.00
C775   C     0.82002   0.07002   0.25000   0.00000  Uiso   1.00
C776   C     0.93009   0.32001   0.74999   0.00000  Uiso   1.00
C777   C     0.96709   0.24620   0.58128   0.00000  Uiso   1.00
C778   C     0.57009   0.17990   0.25000   0.00000  Uiso   1.00
C779   C     0.82007   0.07007   0.75000   0.00000  Uiso   1.00
C780   C     0.67999   0.42999   0.25000   0.00000  Uiso   1.00
C781   C     0.57001   0.18009   0.75001   0.00000  Uiso   1.00
C782   C     0.92990   0.32009   0.25000   0.00000  Uiso   1.00
C783   C     0.61745   0.40954   0.23406   0.00000  Uiso   1.00
C784   C     0.87826   0.09532   0.77550   0.00000  Uiso   1.00
C785   C     0.60447   0.13059   0.21614   0.00000  Uiso   1.00
C786   C     0.89485   0.36770   0.78417   0.00000  Uiso   1.00
C787   C     0.88256   0.09046   0.23403   0.00000  Uiso   1.00
C788   C     0.74775   0.46698   0.41875   0.00000  Uiso   1.00
C789   C     0.61856   0.40766   0.77012   0.00000  Uiso   1.00
C790   C     0.89555   0.36937   0.21613   0.00000  Uiso   1.00
C791   C     0.60591   0.13318   0.78472   0.00000  Uiso   1.00
C792   C     0.62998   0.10379   0.78362   0.00000  Uiso   1.00
C793   C     0.86614   0.39341   0.21518   0.00000  Uiso   1.00
C794   C     0.59068   0.38232   0.76672   0.00000  Uiso   1.00
C795   C     0.90792   0.11833   0.23046   0.00000  Uiso   1.00
C796   C     0.86951   0.39610   0.78352   0.00000  Uiso   1.00
C797   C     0.63390   0.10656   0.21519   0.00000  Uiso   1.00
C798   C     0.90674   0.11990   0.77222   0.00000  Uiso   1.00
C799   C     0.75286   0.03304   0.58132   0.00000  Uiso   1.00
C800   C     0.59209   0.38167   0.23049   0.00000  Uiso   1.00
C801   C     0.86990   0.15674   0.72778   0.00000  Uiso   1.00
C802   C     0.63167   0.34209   0.26951   0.00000  Uiso   1.00
C803   C     0.85379   0.37998   0.71638   0.00000  Uiso   1.00
C804   C     0.64341   0.11614   0.28482   0.00000  Uiso   1.00
C805   C     0.63232   0.34068   0.73328   0.00000  Uiso   1.00
C806   C     0.86833   0.15792   0.26954   0.00000  Uiso   1.00
C807   C     0.64610   0.11951   0.71648   0.00000  Uiso   1.00
C808   C     0.85656   0.38390   0.28481   0.00000  Uiso   1.00
C809   C     0.88059   0.35447   0.28386   0.00000  Uiso   1.00
C810   C     0.78304   0.00288   0.91868   0.00000  Uiso   1.00
C811   C     0.61770   0.14486   0.71583   0.00000  Uiso   1.00
C812   C     0.84046   0.13256   0.26597   0.00000  Uiso   1.00
C813   C     0.65766   0.36856   0.72988   0.00000  Uiso   1.00
C814   C     0.61936   0.14555   0.28387   0.00000  Uiso   1.00
C815   C     0.88318   0.35591   0.71529   0.00000  Uiso   1.00
C816   C     0.65954   0.36745   0.26594   0.00000  Uiso   1.00
C817   C     0.84532   0.12826   0.72450   0.00000  Uiso   1.00
C818   C     0.53325   0.25268   0.45922   0.00000  Uiso   1.00
C819   C     0.96687   0.24594   0.54076   0.00000  Uiso   1.00
C820   C     0.74772   0.46675   0.45927   0.00000  Uiso   1.00
H821   H     0.59174   0.25862   0.46430   0.00000  Uiso   1.00
H822   H     0.84191   0.00734   0.03553   0.00000  Uiso   1.00
H823   H     0.95816   0.10632   0.09538   0.00000  Uiso   1.00
H824   H     0.89297   0.45987   0.79664   0.00000  Uiso   1.00
H825   H     0.91763   0.42789   0.82716   0.00000  Uiso   1.00
H826   H     0.85648   0.48021   0.85297   0.00000  Uiso   1.00
H827   H     0.87815   0.44683   0.88379   0.00000  Uiso   1.00
H828   H     0.91748   0.00963   0.84151   0.00000  Uiso   1.00
H829   H     0.93839   0.47657   0.87360   0.00000  Uiso   1.00
H830   H     0.90527   0.00851   0.89239   0.00000  Uiso   1.00
H831   H     0.68816   0.08527   0.14579   0.00000  Uiso   1.00
H832   H     0.69499   0.11422   0.18672   0.00000  Uiso   1.00
H833   H     0.98988   0.15840   0.96433   0.00000  Uiso   1.00
H834   H     0.64311   0.13074   0.11767   0.00000  Uiso   1.00
H835   H     0.65327   0.16106   0.15752   0.00000  Uiso   1.00
H836   H     0.71901   0.16176   0.13758   0.00000  Uiso   1.00
H837   H     0.68926   0.17718   0.09914   0.00000  Uiso   1.00
H838   H     0.70851   0.13190   0.09718   0.00000  Uiso   1.00
H839   H     0.99037   0.11026   0.77137   0.00000  Uiso   1.00
H840   H     0.95703   0.09432   0.73760   0.00000  Uiso   1.00
H841   H     0.97797   0.05715   0.81538   0.00000  Uiso   1.00
H842   H     0.94507   0.04039   0.78086   0.00000  Uiso   1.00
H843   H     0.99340   0.03510   0.73013   0.00000  Uiso   1.00
H844   H     0.50861   0.34174   0.03570   0.00000  Uiso   1.00
H845   H     0.50483   0.00929   0.77308   0.00000  Uiso   1.00
H846   H     0.52679   0.05236   0.76418   0.00000  Uiso   1.00
H847   H     0.53574   0.36849   0.16195   0.00000  Uiso   1.00
H848   H     0.58182   0.35395   0.16726   0.00000  Uiso   1.00
H849   H     0.55807   0.43388   0.15196   0.00000  Uiso   1.00
H850   H     0.60390   0.41591   0.15104   0.00000  Uiso   1.00
H851   H     0.58797   0.37565   0.09513   0.00000  Uiso   1.00
H852   H     0.57971   0.42309   0.08428   0.00000  Uiso   1.00
H853   H     0.54194   0.39360   0.09543   0.00000  Uiso   1.00
H854   H     0.86026   0.24037   0.72863   0.00000  Uiso   1.00
H855   H     0.84189   0.00756   0.96426   0.00000  Uiso   1.00
H856   H     0.84433   0.20703   0.76241   0.00000  Uiso   1.00
H857   H     0.80715   0.22797   0.68463   0.00000  Uiso   1.00
H858   H     0.79039   0.19507   0.71915   0.00000  Uiso   1.00
H859   H     0.78511   0.24341   0.76988   0.00000  Uiso   1.00
H860   H     0.75929   0.25484   0.72692   0.00000  Uiso   1.00
H861   H     0.80236   0.27679   0.73583   0.00000  Uiso   1.00
H862   H     0.61849   0.28574   0.33805   0.00000  Uiso   1.00
H863   H     0.60395   0.33182   0.33274   0.00000  Uiso   1.00
H864   H     0.68388   0.30807   0.34804   0.00000  Uiso   1.00
H865   H     0.66591   0.35390   0.34896   0.00000  Uiso   1.00
H866   H     0.65813   0.49314   0.03564   0.00000  Uiso   1.00
H867   H     0.62565   0.33797   0.40488   0.00000  Uiso   1.00
H868   H     0.67308   0.32971   0.41572   0.00000  Uiso   1.00
H869   H     0.64360   0.29194   0.40457   0.00000  Uiso   1.00
H870   H     0.78079   0.37737   0.66747   0.00000  Uiso   1.00
H871   H     0.79296   0.35465   0.71145   0.00000  Uiso   1.00
H872   H     0.82588   0.33482   0.63111   0.00000  Uiso   1.00
H873   H     0.82860   0.30889   0.67565   0.00000  Uiso   1.00
H874   H     0.75954   0.32463   0.62757   0.00000  Uiso   1.00
H875   H     0.75990   0.30191   0.67427   0.00000  Uiso   1.00
H876   H     0.78283   0.28158   0.63310   0.00000  Uiso   1.00
H877   H     0.50860   0.34173   0.96443   0.00000  Uiso   1.00
H878   H     0.66462   0.06193   0.35420   0.00000  Uiso   1.00
H879   H     0.63569   0.05508   0.31328   0.00000  Uiso   1.00
H880   H     0.61915   0.10704   0.38232   0.00000  Uiso   1.00
H881   H     0.58885   0.09683   0.34250   0.00000  Uiso   1.00
H882   H     0.58813   0.03111   0.36247   0.00000  Uiso   1.00
H883   H     0.57268   0.06092   0.40090   0.00000  Uiso   1.00
H884   H     0.61796   0.04167   0.40285   0.00000  Uiso   1.00
H885   H     0.63908   0.28142   0.77169   0.00000  Uiso   1.00
H886   H     0.68337   0.29833   0.75647   0.00000  Uiso   1.00
H887   H     0.64181   0.23554   0.71700   0.00000  Uiso   1.00
H888   H     0.98987   0.15838   0.03560   0.00000  Uiso   1.00
H889   H     0.68672   0.25153   0.70484   0.00000  Uiso   1.00
H890   H     0.70849   0.23434   0.77184   0.00000  Uiso   1.00
H891   H     0.68985   0.19593   0.74595   0.00000  Uiso   1.00
H892   H     0.66339   0.21795   0.78337   0.00000  Uiso   1.00
H893   H     0.88147   0.21432   0.33809   0.00000  Uiso   1.00
H894   H     0.89605   0.16824   0.33274   0.00000  Uiso   1.00
H895   H     0.81609   0.19193   0.34812   0.00000  Uiso   1.00
H896   H     0.83411   0.14612   0.34902   0.00000  Uiso   1.00
H897   H     0.87435   0.16216   0.40490   0.00000  Uiso   1.00
H898   H     0.82690   0.17034   0.41579   0.00000  Uiso   1.00
H899   H     0.60794   0.46684   0.27484   0.00000  Uiso   1.00
H900   H     0.85632   0.20815   0.40462   0.00000  Uiso   1.00
H901   H     0.70987   0.14298   0.70336   0.00000  Uiso   1.00
H902   H     0.67789   0.16764   0.67285   0.00000  Uiso   1.00
H903   H     0.73021   0.10649   0.64703   0.00000  Uiso   1.00
H904   H     0.69683   0.12817   0.61621   0.00000  Uiso   1.00
H905   H     0.75964   0.16749   0.65850   0.00000  Uiso   1.00
H906   H     0.72657   0.18841   0.62641   0.00000  Uiso   1.00
H907   H     0.75851   0.15529   0.60762   0.00000  Uiso   1.00
H908   H     0.83527   0.43816   0.35421   0.00000  Uiso   1.00
H909   H     0.86422   0.44499   0.31328   0.00000  Uiso   1.00
H910   H     0.56455   0.45004   0.25675   0.00000  Uiso   1.00
H911   H     0.88073   0.39311   0.38233   0.00000  Uiso   1.00
H912   H     0.91106   0.40327   0.34249   0.00000  Uiso   1.00
H913   H     0.91176   0.46901   0.36242   0.00000  Uiso   1.00
H914   H     0.92718   0.43926   0.40087   0.00000  Uiso   1.00
H915   H     0.88190   0.45851   0.40282   0.00000  Uiso   1.00
H916   H     0.87856   0.28211   0.33430   0.00000  Uiso   1.00
H917   H     0.85654   0.29311   0.28961   0.00000  Uiso   1.00
H918   H     0.83542   0.32479   0.37026   0.00000  Uiso   1.00
H919   H     0.81111   0.33138   0.32520   0.00000  Uiso   1.00
H920   H     0.80003   0.26396   0.32095   0.00000  Uiso   1.00
H921   H     0.60710   0.01550   0.22426   0.00000  Uiso   1.00
H922   H     0.78082   0.28438   0.36414   0.00000  Uiso   1.00
H923   H     0.82250   0.25840   0.36752   0.00000  Uiso   1.00
H924   H     0.55785   0.14297   0.67799   0.00000  Uiso   1.00
H925   H     0.59300   0.11707   0.65274   0.00000  Uiso   1.00
H926   H     0.56876   0.19482   0.63083   0.00000  Uiso   1.00
H927   H     0.60017   0.16613   0.60460   0.00000  Uiso   1.00
H928   H     0.54986   0.12106   0.59284   0.00000  Uiso   1.00
H929   H     0.53902   0.16566   0.57383   0.00000  Uiso   1.00
H930   H     0.51848   0.15071   0.61870   0.00000  Uiso   1.00
H931   H     0.78317   0.14202   0.22523   0.00000  Uiso   1.00
H932   H     0.90840   0.23987   0.53567   0.00000  Uiso   1.00
H933   H     0.56422   0.49874   0.20617   0.00000  Uiso   1.00
H934   H     0.79996   0.18543   0.24331   0.00000  Uiso   1.00
H935   H     0.73449   0.14290   0.27585   0.00000  Uiso   1.00
H936   H     0.75124   0.18581   0.29390   0.00000  Uiso   1.00
H937   H     0.73799   0.21512   0.22993   0.00000  Uiso   1.00
H938   H     0.69777   0.19400   0.24975   0.00000  Uiso   1.00
H939   H     0.72226   0.17197   0.21084   0.00000  Uiso   1.00
H940   H     0.71339   0.38325   0.66122   0.00000  Uiso   1.00
H941   H     0.66717   0.39717   0.66708   0.00000  Uiso   1.00
H942   H     0.69179   0.31787   0.64969   0.00000  Uiso   1.00
H943   H     0.64575   0.33529   0.64949   0.00000  Uiso   1.00
H944   H     0.53482   0.01201   0.27013   0.00000  Uiso   1.00
H945   H     0.66102   0.37694   0.59450   0.00000  Uiso   1.00
H946   H     0.66973   0.32984   0.58242   0.00000  Uiso   1.00
H947   H     0.70723   0.35948   0.59412   0.00000  Uiso   1.00
H948   H     0.62134   0.21793   0.33435   0.00000  Uiso   1.00
H949   H     0.64342   0.20692   0.28966   0.00000  Uiso   1.00
H950   H     0.66443   0.17525   0.37030   0.00000  Uiso   1.00
H951   H     0.68879   0.16866   0.32524   0.00000  Uiso   1.00
H952   H     0.67735   0.24164   0.36763   0.00000  Uiso   1.00
H953   H     0.69987   0.23608   0.32106   0.00000  Uiso   1.00
H954   H     0.71903   0.21567   0.36423   0.00000  Uiso   1.00
H955   H     0.55598   0.05223   0.25036   0.00000  Uiso   1.00
H956   H     0.93451   0.33260   0.64362   0.00000  Uiso   1.00
H957   H     0.94441   0.36004   0.68492   0.00000  Uiso   1.00
H958   H     0.89116   0.38053   0.61829   0.00000  Uiso   1.00
H959   H     0.90299   0.40933   0.65889   0.00000  Uiso   1.00
H960   H     0.96822   0.40884   0.63779   0.00000  Uiso   1.00
H961   H     0.93839   0.42600   0.60026   0.00000  Uiso   1.00
H962   H     0.95640   0.38030   0.59670   0.00000  Uiso   1.00
H963   H     0.71684   0.35794   0.22516   0.00000  Uiso   1.00
H964   H     0.70004   0.31455   0.24325   0.00000  Uiso   1.00
H965   H     0.76550   0.35710   0.27575   0.00000  Uiso   1.00
H966   H     0.57794   0.02775   0.28927   0.00000  Uiso   1.00
H967   H     0.74874   0.31422   0.29383   0.00000  Uiso   1.00
H968   H     0.76201   0.28482   0.22987   0.00000  Uiso   1.00
H969   H     0.80223   0.30598   0.24964   0.00000  Uiso   1.00
H970   H     0.77774   0.32794   0.21073   0.00000  Uiso   1.00
H971   H     0.79987   0.10288   0.65085   0.00000  Uiso   1.00
H972   H     0.84385   0.08928   0.66735   0.00000  Uiso   1.00
H973   H     0.82609   0.16509   0.63207   0.00000  Uiso   1.00
H974   H     0.87062   0.14707   0.64332   0.00000  Uiso   1.00
H975   H     0.86181   0.09738   0.59426   0.00000  Uiso   1.00
H976   H     0.85774   0.14209   0.57281   0.00000  Uiso   1.00
H977   H     0.85288   0.04987   0.84915   0.00000  Uiso   1.00
H978   H     0.81730   0.11585   0.58252   0.00000  Uiso   1.00
H979   H     0.94155   0.24364   0.40307   0.00000  Uiso   1.00
H980   H     0.55846   0.25585   0.59686   0.00000  Uiso   1.00
H981   H     0.75441   0.05863   0.40312   0.00000  Uiso   1.00
H982   H     0.74549   0.44141   0.59692   0.00000  Uiso   1.00
H983   H     0.55849   0.25557   0.40303   0.00000  Uiso   1.00
H984   H     0.94159   0.24361   0.59697   0.00000  Uiso   1.00
H985   H     0.74582   0.44141   0.40308   0.00000  Uiso   1.00
H986   H     0.75500   0.05859   0.59699   0.00000  Uiso   1.00
H987   H     0.80859   0.00503   0.90301   0.00000  Uiso   1.00
H988   H     0.83928   0.09385   0.83265   0.00000  Uiso   1.00
H989   H     0.69142   0.49579   0.09692   0.00000  Uiso   1.00
H990   H     0.50585   0.30846   0.90314   0.00000  Uiso   1.00
H991   H     0.99364   0.19155   0.09693   0.00000  Uiso   1.00
H992   H     0.69141   0.49546   0.90308   0.00000  Uiso   1.00
H993   H     0.80863   0.00445   0.09688   0.00000  Uiso   1.00
H994   H     0.99362   0.19159   0.90304   0.00000  Uiso   1.00
H995   H     0.50557   0.30849   0.09697   0.00000  Uiso   1.00
H996   H     0.91509   0.07609   0.86794   0.00000  Uiso   1.00
H997   H     0.89707   0.12062   0.85668   0.00000  Uiso   1.00
H998   H     0.84738   0.11181   0.90574   0.00000  Uiso   1.00
H999   H     0.89208   0.10774   0.92719   0.00000  Uiso   1.00
H1000  H     0.74319   0.40813   0.46436   0.00000  Uiso   1.00
H1001  H     0.86585   0.06730   0.91748   0.00000  Uiso   1.00
H1002  H     0.53211   0.12856   0.16570   0.00000  Uiso   1.00
H1003  H     0.54310   0.10654   0.21039   0.00000  Uiso   1.00
H1004  H     0.57480   0.08541   0.12974   0.00000  Uiso   1.00
H1005  H     0.58138   0.06111   0.17481   0.00000  Uiso   1.00
H1006  H     0.50841   0.07250   0.13247   0.00000  Uiso   1.00
H1007  H     0.51396   0.05004   0.17906   0.00000  Uiso   1.00
H1008  H     0.53438   0.03081   0.13587   0.00000  Uiso   1.00
H1009  H     0.89304   0.30782   0.82199   0.00000  Uiso   1.00
H1010  H     0.86707   0.34292   0.84722   0.00000  Uiso   1.00
H1011  H     0.75751   0.09189   0.53574   0.00000  Uiso   1.00
H1012  H     0.94484   0.31884   0.86920   0.00000  Uiso   1.00
H1013  H     0.91604   0.35014   0.89542   0.00000  Uiso   1.00
H1014  H     0.87109   0.29970   0.90704   0.00000  Uiso   1.00
H1015  H     0.91568   0.28900   0.92616   0.00000  Uiso   1.00
H1016  H     0.90089   0.26843   0.88125   0.00000  Uiso   1.00
H1017  H     0.89202   0.03317   0.27477   0.00000  Uiso   1.00
H1018  H     0.93542   0.04996   0.25670   0.00000  Uiso   1.00
H1019  H     0.89291   0.48449   0.22415   0.00000  Uiso   1.00
H1020  H     0.93582   0.00124   0.20610   0.00000  Uiso   1.00
H1021  H     0.96512   0.48799   0.27008   0.00000  Uiso   1.00
H1022  H     0.90838   0.23986   0.46440   0.00000  Uiso   1.00
H1023  H     0.94400   0.44777   0.25025   0.00000  Uiso   1.00
H1024  H     0.92197   0.47226   0.28916   0.00000  Uiso   1.00
H1025  H     0.63326   0.46339   0.83879   0.00000  Uiso   1.00
H1026  H     0.64718   0.41717   0.83292   0.00000  Uiso   1.00
H1027  H     0.56788   0.44179   0.85031   0.00000  Uiso   1.00
H1028  H     0.58530   0.39575   0.85051   0.00000  Uiso   1.00
H1029  H     0.62694   0.41101   0.90550   0.00000  Uiso   1.00
H1030  H     0.57984   0.41972   0.91758   0.00000  Uiso   1.00
H1031  H     0.60948   0.45723   0.90588   0.00000  Uiso   1.00
H1032  H     0.96793   0.37134   0.16566   0.00000  Uiso   1.00
H1033  H     0.59173   0.25860   0.53557   0.00000  Uiso   1.00
H1034  H     0.95692   0.39342   0.21034   0.00000  Uiso   1.00
H1035  H     0.92525   0.41443   0.12970   0.00000  Uiso   1.00
H1036  H     0.91866   0.43879   0.17476   0.00000  Uiso   1.00
H1037  H     0.99164   0.42735   0.13237   0.00000  Uiso   1.00
H1038  H     0.98608   0.44987   0.17895   0.00000  Uiso   1.00
H1039  H     0.96567   0.46904   0.13577   0.00000  Uiso   1.00
H1040  H     0.58259   0.18451   0.85637   0.00000  Uiso   1.00
H1041  H     0.61004   0.19441   0.81509   0.00000  Uiso   1.00
H1042  H     0.63051   0.14115   0.88172   0.00000  Uiso   1.00
H1043  H     0.65932   0.15299   0.84113   0.00000  Uiso   1.00
H1044  H     0.75730   0.09191   0.46447   0.00000  Uiso   1.00
H1045  H     0.65883   0.21822   0.86222   0.00000  Uiso   1.00
H1046  H     0.67598   0.18838   0.89976   0.00000  Uiso   1.00
H1047  H     0.63028   0.20640   0.90330   0.00000  Uiso   1.00
H1048  H     0.62737   0.03079   0.83252   0.00000  Uiso   1.00
H1049  H     0.60465   0.04296   0.78854   0.00000  Uiso   1.00
H1050  H     0.58482   0.07587   0.86889   0.00000  Uiso   1.00
H1051  H     0.55888   0.07859   0.82435   0.00000  Uiso   1.00
H1052  H     0.55191   0.00989   0.82573   0.00000  Uiso   1.00
H1053  H     0.53158   0.03282   0.86690   0.00000  Uiso   1.00
H1054  H     0.57463   0.00954   0.87243   0.00000  Uiso   1.00
H1055  H     0.74305   0.40813   0.53562   0.00000  Uiso   1.00
H1056  H     0.81193   0.41462   0.14580   0.00000  Uiso   1.00
H1057  H     0.80508   0.38569   0.18672   0.00000  Uiso   1.00
H1058  H     0.85704   0.36916   0.11767   0.00000  Uiso   1.00
H1059  H     0.84683   0.33885   0.15750   0.00000  Uiso   1.00
H1060  H     0.78112   0.33813   0.13753   0.00000  Uiso   1.00
H1061  H     0.81092   0.32269   0.09910   0.00000  Uiso   1.00
H1062  H     0.79167   0.36796   0.09715   0.00000  Uiso   1.00
H1063  H     0.53142   0.38908   0.72832   0.00000  Uiso   1.00
H1064  H     0.54833   0.43336   0.74353   0.00000  Uiso   1.00
H1065  H     0.98555   0.39182   0.78301   0.00000  Uiso   1.00
H1066  H     0.65813   0.49300   0.96438   0.00000  Uiso   1.00
H1067  H     0.50153   0.43673   0.79517   0.00000  Uiso   1.00
H1068  H     0.98434   0.45848   0.72817   0.00000  Uiso   1.00
H1069  H     0.94593   0.43986   0.75406   0.00000  Uiso   1.00
H1070  H     0.96794   0.41339   0.71664   0.00000  Uiso   1.00
H1071  H     0.96432   0.13147   0.16192   0.00000  Uiso   1.00
H1072  H     0.91824   0.14605   0.16726   0.00000  Uiso   1.00
H1073  H     0.94193   0.06609   0.15188   0.00000  Uiso   1.00
H1074  H     0.89613   0.08410   0.15098   0.00000  Uiso   1.00
H1075  H     0.91216   0.12434   0.09510   0.00000  Uiso   1.00
H1076  H     0.92034   0.07690   0.08421   0.00000  Uiso   1.00
O1077  O     0.75000  -0.00000   0.25000   0.00000  Uiso   1.00
O1078  O     0.75000   0.46964   0.66245   0.00000  Uiso   1.00
O1079  O     0.96963   0.25000   0.33755   0.00000  Uiso   1.00
O1080  O     0.53036   0.25000   0.66245   0.00000  Uiso   1.00
O1081  O     0.50000   0.21963   0.83755   0.00000  Uiso   1.00
O1082  O     0.50000   0.28037   0.16245   0.00000  Uiso   1.00
O1083  O     0.78036  -0.00000   0.83755   0.00000  Uiso   1.00
O1084  O     0.71963  -0.00000   0.16245   0.00000  Uiso   1.00
O1085  O     0.50000   0.28037   0.83755   0.00000  Uiso   1.00
O1086  O     0.50000   0.21964   0.16245   0.00000  Uiso   1.00
O1087  O     0.71963  -0.00000   0.83755   0.00000  Uiso   1.00
O1088  O     0.75000  -0.00000   0.75000   0.00000  Uiso   1.00
O1089  O     0.78036  -0.00000   0.16245   0.00000  Uiso   1.00
O1090  O     0.70724   0.07307   0.27302   0.00000  Uiso   1.00
O1091  O     0.79275   0.42693   0.72698   0.00000  Uiso   1.00
O1092  O     0.92692   0.20724   0.27302   0.00000  Uiso   1.00
O1093  O     0.57307   0.29276   0.72698   0.00000  Uiso   1.00
O1094  O     0.79275   0.42693   0.27302   0.00000  Uiso   1.00
O1095  O     0.70724   0.07307   0.72698   0.00000  Uiso   1.00
O1096  O     0.57307   0.29276   0.27302   0.00000  Uiso   1.00
O1097  O     0.92692   0.20724   0.72698   0.00000  Uiso   1.00
O1098  O     0.70724   0.42693   0.72698   0.00000  Uiso   1.00
O1099  O     0.50000   0.25000   0.25000   0.00000  Uiso   1.00
O1100  O     0.79275   0.07307   0.27302   0.00000  Uiso   1.00
O1101  O     0.92692   0.29275   0.72698   0.00000  Uiso   1.00
O1102  O     0.57307   0.20725   0.27302   0.00000  Uiso   1.00
O1103  O     0.79275   0.07307   0.72698   0.00000  Uiso   1.00
O1104  O     0.70724   0.42693   0.27302   0.00000  Uiso   1.00
O1105  O     0.57307   0.20725   0.72698   0.00000  Uiso   1.00
O1106  O     0.92692   0.29275   0.27302   0.00000  Uiso   1.00
O1107  O     0.95724   0.32307   0.77302   0.00000  Uiso   1.00
O1108  O     0.54275   0.17693   0.22698   0.00000  Uiso   1.00
O1109  O     0.67692   0.45725   0.77302   0.00000  Uiso   1.00
O1110  O     0.50000   0.25000   0.75000   0.00000  Uiso   1.00
O1111  O     0.82307   0.04275   0.22698   0.00000  Uiso   1.00
O1112  O     0.54275   0.17693   0.77302   0.00000  Uiso   1.00
O1113  O     0.95724   0.32307   0.22698   0.00000  Uiso   1.00
O1114  O     0.82307   0.04275   0.77302   0.00000  Uiso   1.00
O1115  O     0.67692   0.45725   0.22698   0.00000  Uiso   1.00
O1116  O     0.95724   0.17692   0.22698   0.00000  Uiso   1.00
O1117  O     0.54275   0.32308   0.77302   0.00000  Uiso   1.00
O1118  O     0.67692   0.04275   0.22698   0.00000  Uiso   1.00
O1119  O     0.82307   0.45725   0.77302   0.00000  Uiso   1.00
O1120  O     0.54275   0.32308   0.22698   0.00000  Uiso   1.00
O1121  O     0.75000   0.46964   0.33755   0.00000  Uiso   1.00
O1122  O     0.95724   0.17692   0.77302   0.00000  Uiso   1.00
O1123  O     0.82307   0.45725   0.22698   0.00000  Uiso   1.00
O1124  O     0.67692   0.04275   0.77302   0.00000  Uiso   1.00
O1125  O     0.60900   0.44367   0.21948   0.00000  Uiso   1.00
O1126  O     0.88181   0.06690   0.80173   0.00000  Uiso   1.00
O1127  O     0.58496   0.13654   0.18219   0.00000  Uiso   1.00
O1128  O     0.91368   0.36050   0.81820   0.00000  Uiso   1.00
O1129  O     0.89101   0.05631   0.21943   0.00000  Uiso   1.00
O1130  O     0.61151   0.43964   0.79029   0.00000  Uiso   1.00
O1131  O     0.91508   0.36337   0.18217   0.00000  Uiso   1.00
O1132  O     0.75000   0.03036   0.66245   0.00000  Uiso   1.00
O1133  O     0.58826   0.14123   0.81938   0.00000  Uiso   1.00
O1134  O     0.63556   0.08387   0.81736   0.00000  Uiso   1.00
O1135  O     0.85704   0.41009   0.18032   0.00000  Uiso   1.00
O1136  O     0.55690   0.39057   0.78244   0.00000  Uiso   1.00
O1137  O     0.94013   0.11106   0.21081   0.00000  Uiso   1.00
O1138  O     0.86283   0.41574   0.81723   0.00000  Uiso   1.00
O1139  O     0.64302   0.08985   0.18032   0.00000  Uiso   1.00
O1140  O     0.93836   0.11325   0.79308   0.00000  Uiso   1.00
O1141  O     0.55989   0.38893   0.21086   0.00000  Uiso   1.00
O1142  O     0.86325   0.18837   0.70692   0.00000  Uiso   1.00
O1143  O     0.53036   0.25000   0.33755   0.00000  Uiso   1.00
O1144  O     0.63893   0.30989   0.28914   0.00000  Uiso   1.00
O1145  O     0.83387   0.38556   0.68264   0.00000  Uiso   1.00
O1146  O     0.66008   0.10704   0.31969   0.00000  Uiso   1.00
O1147  O     0.64057   0.30689   0.71756   0.00000  Uiso   1.00
O1148  O     0.86106   0.19013   0.28919   0.00000  Uiso   1.00
O1149  O     0.66574   0.11284   0.68277   0.00000  Uiso   1.00
O1150  O     0.83985   0.39302   0.31968   0.00000  Uiso   1.00
O1151  O     0.88654   0.33496   0.31782   0.00000  Uiso   1.00
O1152  O     0.61051   0.16369   0.68181   0.00000  Uiso   1.00
O1153  O     0.80632   0.14101   0.28057   0.00000  Uiso   1.00
O1154  O     0.96963   0.25000   0.66245   0.00000  Uiso   1.00
O1155  O     0.68964   0.36151   0.70971   0.00000  Uiso   1.00
O1156  O     0.61337   0.16508   0.31783   0.00000  Uiso   1.00
O1157  O     0.89123   0.33826   0.68062   0.00000  Uiso   1.00
O1158  O     0.69367   0.35900   0.28052   0.00000  Uiso   1.00
O1159  O     0.81690   0.13181   0.69827   0.00000  Uiso   1.00
O1160  O     0.75000   0.03036   0.33755   0.00000  Uiso   1.00
Zn1161 Zn    0.70659  -0.00000   0.21735   0.00000  Uiso   1.00
Zn1162 Zn    0.54340   0.25000   0.28265   0.00000  Uiso   1.00
Zn1163 Zn    0.75000   0.45660   0.71735   0.00000  Uiso   1.00
Zn1164 Zn    0.75000   0.04340   0.28265   0.00000  Uiso   1.00
Zn1165 Zn    0.54340   0.25000   0.71735   0.00000  Uiso   1.00
Zn1166 Zn    0.95659   0.25000   0.28265   0.00000  Uiso   1.00
Zn1167 Zn    0.75000   0.04340   0.71735   0.00000  Uiso   1.00
Zn1168 Zn    0.75000   0.45660   0.28265   0.00000  Uiso   1.00
Zn1169 Zn    0.79340  -0.00000   0.78265   0.00000  Uiso   1.00
Zn1170 Zn    0.50000   0.20660   0.21735   0.00000  Uiso   1.00
Zn1171 Zn    0.50000   0.29340   0.78265   0.00000  Uiso   1.00
Zn1172 Zn    0.79340  -0.00000   0.21735   0.00000  Uiso   1.00
Zn1173 Zn    0.70659  -0.00000   0.78265   0.00000  Uiso   1.00
Zn1174 Zn    0.50000   0.29341   0.21735   0.00000  Uiso   1.00
Zn1175 Zn    0.50000   0.20660   0.78265   0.00000  Uiso   1.00
Zn1176 Zn    0.95659   0.25000   0.71735   0.00000  Uiso   1.00
C1177  C     0.46705   0.74621   0.41873   0.00000  Uiso   1.00
C1178  C     0.21698   0.99773   0.08125   0.00000  Uiso   1.00
C1179  C     0.25290   0.53328   0.54080   0.00000  Uiso   1.00
C1180  C     0.46685   0.74594   0.45925   0.00000  Uiso   1.00
C1181  C     0.03325   0.75270   0.54072   0.00000  Uiso   1.00
C1182  C     0.25272   0.53330   0.45930   0.00000  Uiso   1.00
C1183  C     0.24766   0.96674   0.54076   0.00000  Uiso   1.00
C1184  C     0.21674   0.99764   0.95924   0.00000  Uiso   1.00
C1185  C     0.28329   0.50274   0.04070   0.00000  Uiso   1.00
C1186  C     0.49594   0.71687   0.95924   0.00000  Uiso   1.00
C1187  C     0.00267   0.78325   0.04078   0.00000  Uiso   1.00
C1188  C     0.28328   0.50291   0.95920   0.00000  Uiso   1.00
C1189  C     0.00296   0.78299   0.91877   0.00000  Uiso   1.00
C1190  C     0.21675   0.99770   0.04073   0.00000  Uiso   1.00
C1191  C     0.00270   0.78325   0.95928   0.00000  Uiso   1.00
C1192  C     0.49595   0.71685   0.04075   0.00000  Uiso   1.00
C1193  C     0.09823   0.84823   0.25000   0.00000  Uiso   1.00
C1194  C     0.40190   0.65190   0.75000   0.00000  Uiso   1.00
C1195  C     0.15210   0.59792   0.25000   0.00000  Uiso   1.00
C1196  C     0.34799   0.90150   0.75000   0.00000  Uiso   1.00
C1197  C     0.40177   0.65177   0.25000   0.00000  Uiso   1.00
C1198  C     0.09801   0.84801   0.75000   0.00000  Uiso   1.00
C1199  C     0.34792   0.90210   0.25000   0.00000  Uiso   1.00
C1200  C     0.49622   0.71705   0.08127   0.00000  Uiso   1.00
C1201  C     0.15150   0.59799   0.75001   0.00000  Uiso   1.00
C1202  C     0.09831   0.65241   0.75023   0.00000  Uiso   1.00
C1203  C     0.40170   0.84828   0.25000   0.00000  Uiso   1.00
C1204  C     0.15176   0.90176   0.75000   0.00000  Uiso   1.00
C1205  C     0.34802   0.59802   0.25000   0.00000  Uiso   1.00
C1206  C     0.40241   0.84831   0.74978   0.00000  Uiso   1.00
C1207  C     0.09828   0.65170   0.25000   0.00000  Uiso   1.00
C1208  C     0.34817   0.59817   0.75000   0.00000  Uiso   1.00
C1209  C     0.15198   0.90198   0.25000   0.00000  Uiso   1.00
C1210  C     0.00006   0.74925   0.47960   0.00000  Uiso   1.00
C1211  C     0.21697   0.99760   0.91873   0.00000  Uiso   1.00
C1212  C     0.00006   0.74925   0.52037   0.00000  Uiso   1.00
C1213  C     0.25025   0.50002   0.47965   0.00000  Uiso   1.00
C1214  C     0.25028   0.50001   0.52042   0.00000  Uiso   1.00
C1215  C     0.25001   0.50028   0.97958   0.00000  Uiso   1.00
C1216  C     0.25002   0.50025   0.02035   0.00000  Uiso   1.00
C1217  C     0.49925   0.75006   0.97963   0.00000  Uiso   1.00
C1218  C     0.49925   0.75006   0.02040   0.00000  Uiso   1.00
C1219  C     0.09048   0.96372   0.24851   0.00000  Uiso   1.00
C1220  C     0.08146   0.50154   0.23257   0.00000  Uiso   1.00
C1221  C     0.06128   0.52473   0.26254   0.00000  Uiso   1.00
C1222  C     0.28307   0.50256   0.08123   0.00000  Uiso   1.00
C1223  C     0.36349   0.57572   0.83685   0.00000  Uiso   1.00
C1224  C     0.38976   0.59270   0.86627   0.00000  Uiso   1.00
C1225  C     0.37259   0.59498   0.90665   0.00000  Uiso   1.00
C1226  C     0.05410   0.61341   0.18101   0.00000  Uiso   1.00
C1227  C     0.06216   0.57845   0.15816   0.00000  Uiso   1.00
C1228  C     0.02748   0.55667   0.15102   0.00000  Uiso   1.00
C1229  C     0.39499   0.83342   0.83931   0.00000  Uiso   1.00
C1230  C     0.41615   0.82548   0.87665   0.00000  Uiso   1.00
C1231  C     0.39981   0.79365   0.89909   0.00000  Uiso   1.00
C1232  C     0.40950   0.53627   0.24845   0.00000  Uiso   1.00
C1233  C     0.49620   0.71709   0.91872   0.00000  Uiso   1.00
C1234  C     0.41853   0.99845   0.23249   0.00000  Uiso   1.00
C1235  C     0.43867   0.97527   0.26246   0.00000  Uiso   1.00
C1236  C     0.12354   0.93617   0.82936   0.00000  Uiso   1.00
C1237  C     0.09230   0.92466   0.85617   0.00000  Uiso   1.00
C1238  C     0.10290   0.92844   0.89892   0.00000  Uiso   1.00
C1239  C     0.44594   0.88651   0.18097   0.00000  Uiso   1.00
C1240  C     0.43789   0.92143   0.15810   0.00000  Uiso   1.00
C1241  C     0.47256   0.94320   0.15093   0.00000  Uiso   1.00
C1242  C     0.10352   0.67272   0.83661   0.00000  Uiso   1.00
C1243  C     0.13736   0.66306   0.86066   0.00000  Uiso   1.00
C1244  C     0.00283   0.78300   0.08130   0.00000  Uiso   1.00
C1245  C     0.15140   0.69616   0.88283   0.00000  Uiso   1.00
C1246  C     0.11215   0.55323   0.81808   0.00000  Uiso   1.00
C1247  C     0.07759   0.56118   0.84170   0.00000  Uiso   1.00
C1248  C     0.05774   0.52611   0.85227   0.00000  Uiso   1.00
C1249  C     0.32550   0.89381   0.16434   0.00000  Uiso   1.00
C1250  C     0.33573   0.86103   0.13892   0.00000  Uiso   1.00
C1251  C     0.30273   0.84664   0.11686   0.00000  Uiso   1.00
C1252  C     0.03536   0.90764   0.75364   0.00000  Uiso   1.00
C1253  C     0.49808   0.91691   0.77100   0.00000  Uiso   1.00
C1254  C     0.47257   0.93319   0.74050   0.00000  Uiso   1.00
C1255  C     0.00001   0.74969   0.39841   0.00000  Uiso   1.00
C1256  C     0.43695   0.62227   0.17145   0.00000  Uiso   1.00
C1257  C     0.42516   0.59061   0.14533   0.00000  Uiso   1.00
C1258  C     0.42926   0.60025   0.10236   0.00000  Uiso   1.00
C1259  C     0.39088   0.94157   0.82243   0.00000  Uiso   1.00
C1260  C     0.38215   0.96480   0.85814   0.00000  Uiso   1.00
C1261  C     0.41279   0.99153   0.86686   0.00000  Uiso   1.00
C1262  C     0.17459   0.60610   0.16434   0.00000  Uiso   1.00
C1263  C     0.16439   0.63887   0.13893   0.00000  Uiso   1.00
C1264  C     0.19743   0.65324   0.11689   0.00000  Uiso   1.00
C1265  C     0.46428   0.59515   0.76919   0.00000  Uiso   1.00
C1266  C     0.00003   0.74971   0.60158   0.00000  Uiso   1.00
C1267  C     0.47052   0.55633   0.78405   0.00000  Uiso   1.00
C1268  C     0.00081   0.53719   0.76137   0.00000  Uiso   1.00
C1269  C     0.06310   0.87771   0.17148   0.00000  Uiso   1.00
C1270  C     0.07488   0.90938   0.14539   0.00000  Uiso   1.00
C1271  C     0.07082   0.89973   0.10241   0.00000  Uiso   1.00
C1272  C     0.34515   0.71428   0.73081   0.00000  Uiso   1.00
C1273  C     0.30633   0.72052   0.71596   0.00000  Uiso   1.00
C1274  C     0.28719   0.75081   0.73863   0.00000  Uiso   1.00
C1275  C     0.12771   0.81310   0.32852   0.00000  Uiso   1.00
C1276  C     0.15938   0.82488   0.35462   0.00000  Uiso   1.00
C1277  C     0.25009   0.50002   0.39843   0.00000  Uiso   1.00
C1278  C     0.14972   0.82082   0.39760   0.00000  Uiso   1.00
C1279  C     0.30323   0.86215   0.68192   0.00000  Uiso   1.00
C1280  C     0.31119   0.82759   0.65830   0.00000  Uiso   1.00
C1281  C     0.27611   0.80774   0.64773   0.00000  Uiso   1.00
C1282  C     0.14381   0.57549   0.33566   0.00000  Uiso   1.00
C1283  C     0.11103   0.58573   0.36108   0.00000  Uiso   1.00
C1284  C     0.09663   0.55272   0.38314   0.00000  Uiso   1.00
C1285  C     0.15764   0.78536   0.74636   0.00000  Uiso   1.00
C1286  C     0.16690   0.74808   0.72901   0.00000  Uiso   1.00
C1287  C     0.18319   0.72257   0.75951   0.00000  Uiso   1.00
C1288  C     0.03299   0.75296   0.58123   0.00000  Uiso   1.00
C1289  C     0.25017   0.50000   0.60161   0.00000  Uiso   1.00
C1290  C     0.37227   0.68694   0.32856   0.00000  Uiso   1.00
C1291  C     0.34061   0.67515   0.35467   0.00000  Uiso   1.00
C1292  C     0.35025   0.67926   0.39765   0.00000  Uiso   1.00
C1293  C     0.19158   0.64089   0.67758   0.00000  Uiso   1.00
C1294  C     0.21480   0.63216   0.64187   0.00000  Uiso   1.00
C1295  C     0.24153   0.66281   0.63315   0.00000  Uiso   1.00
C1296  C     0.35610   0.92459   0.33566   0.00000  Uiso   1.00
C1297  C     0.38887   0.91439   0.36107   0.00000  Uiso   1.00
C1298  C     0.40324   0.94743   0.38311   0.00000  Uiso   1.00
C1299  C     0.36341   0.80410   0.31899   0.00000  Uiso   1.00
C1300  C     0.25000   0.50017   0.89840   0.00000  Uiso   1.00
C1301  C     0.32845   0.81215   0.34185   0.00000  Uiso   1.00
C1302  C     0.30667   0.77748   0.34898   0.00000  Uiso   1.00
C1303  C     0.08345   0.64498   0.66068   0.00000  Uiso   1.00
C1304  C     0.07548   0.66615   0.62336   0.00000  Uiso   1.00
C1305  C     0.04371   0.64975   0.60086   0.00000  Uiso   1.00
C1306  C     0.28627   0.65950   0.25156   0.00000  Uiso   1.00
C1307  C     0.24845   0.66853   0.26751   0.00000  Uiso   1.00
C1308  C     0.22527   0.68867   0.23755   0.00000  Uiso   1.00
C1309  C     0.18617   0.87354   0.67064   0.00000  Uiso   1.00
C1310  C     0.17466   0.84230   0.64383   0.00000  Uiso   1.00
C1311  C     0.25002   0.50009   0.10157   0.00000  Uiso   1.00
C1312  C     0.17845   0.85290   0.60109   0.00000  Uiso   1.00
C1313  C     0.13650   0.69594   0.31903   0.00000  Uiso   1.00
C1314  C     0.17143   0.68789   0.34190   0.00000  Uiso   1.00
C1315  C     0.19320   0.72256   0.34907   0.00000  Uiso   1.00
C1316  C     0.42273   0.85352   0.66340   0.00000  Uiso   1.00
C1317  C     0.41306   0.88737   0.63935   0.00000  Uiso   1.00
C1318  C     0.44616   0.90141   0.61719   0.00000  Uiso   1.00
C1319  C     0.21372   0.84048   0.25149   0.00000  Uiso   1.00
C1320  C     0.25154   0.83146   0.26743   0.00000  Uiso   1.00
C1321  C     0.27473   0.81128   0.23746   0.00000  Uiso   1.00
C1322  C     0.49971   0.75003   0.89842   0.00000  Uiso   1.00
C1323  C     0.32571   0.61349   0.66315   0.00000  Uiso   1.00
C1324  C     0.34270   0.63976   0.63373   0.00000  Uiso   1.00
C1325  C     0.34498   0.62260   0.59335   0.00000  Uiso   1.00
C1326  C     0.49969   0.75001   0.10159   0.00000  Uiso   1.00
C1327  C     0.06609   0.75597   0.47967   0.00000  Uiso   1.00
C1328  C     0.43404   0.74249   0.52030   0.00000  Uiso   1.00
C1329  C     0.24517   0.93383   0.47972   0.00000  Uiso   1.00
C1330  C     0.25547   0.56620   0.52036   0.00000  Uiso   1.00
C1331  C     0.43403   0.74249   0.47974   0.00000  Uiso   1.00
C1332  C     0.25254   0.53307   0.41877   0.00000  Uiso   1.00
C1333  C     0.06609   0.75597   0.52023   0.00000  Uiso   1.00
C1334  C     0.25534   0.56620   0.47980   0.00000  Uiso   1.00
C1335  C     0.24510   0.93383   0.52028   0.00000  Uiso   1.00
C1336  C     0.18383   0.99506   0.97973   0.00000  Uiso   1.00
C1337  C     0.31620   0.50538   0.02020   0.00000  Uiso   1.00
C1338  C     0.49250   0.68404   0.97970   0.00000  Uiso   1.00
C1339  C     0.00597   0.81609   0.02033   0.00000  Uiso   1.00
C1340  C     0.31619   0.50550   0.97964   0.00000  Uiso   1.00
C1341  C     0.18383   0.99513   0.02028   0.00000  Uiso   1.00
C1342  C     0.00597   0.81609   0.97977   0.00000  Uiso   1.00
C1343  C     0.24762   0.96697   0.58127   0.00000  Uiso   1.00
C1344  C     0.49250   0.68403   0.02026   0.00000  Uiso   1.00
C1345  C     0.25001   0.50001   0.35596   0.00000  Uiso   1.00
C1346  C     0.25004   0.50000   0.64405   0.00000  Uiso   1.00
C1347  C    -0.00000   0.74995   0.35595   0.00000  Uiso   1.00
C1348  C     0.00001   0.74995   0.64404   0.00000  Uiso   1.00
C1349  C     0.49995   0.75001   0.85596   0.00000  Uiso   1.00
C1350  C     0.49995   0.75000   0.14405   0.00000  Uiso   1.00
C1351  C     0.25000   0.50004   0.85595   0.00000  Uiso   1.00
C1352  C     0.25001   0.50001   0.14404   0.00000  Uiso   1.00
C1353  C     0.18006   0.56995   0.25000   0.00000  Uiso   1.00
C1354  C     0.03300   0.75283   0.41870   0.00000  Uiso   1.00
C1355  C     0.32001   0.92986   0.75000   0.00000  Uiso   1.00
C1356  C     0.42991   0.67991   0.25000   0.00000  Uiso   1.00
C1357  C     0.07001   0.82001   0.75000   0.00000  Uiso   1.00
C1358  C     0.31995   0.93006   0.25000   0.00000  Uiso   1.00
C1359  C     0.17986   0.57001   0.75001   0.00000  Uiso   1.00
C1360  C     0.07009   0.82009   0.25000   0.00000  Uiso   1.00
C1361  C     0.42996   0.67996   0.75000   0.00000  Uiso   1.00
C1362  C     0.17990   0.92990   0.75000   0.00000  Uiso   1.00
C1363  C     0.32002   0.57002   0.25000   0.00000  Uiso   1.00
C1364  C     0.43009   0.82001   0.74999   0.00000  Uiso   1.00
C1365  C     0.46709   0.74620   0.58128   0.00000  Uiso   1.00
C1366  C     0.07009   0.67990   0.25000   0.00000  Uiso   1.00
C1367  C     0.32007   0.57007   0.75000   0.00000  Uiso   1.00
C1368  C     0.17999   0.92999   0.25000   0.00000  Uiso   1.00
C1369  C     0.07001   0.68009   0.75001   0.00000  Uiso   1.00
C1370  C     0.42990   0.82009   0.25000   0.00000  Uiso   1.00
C1371  C     0.11745   0.90954   0.23406   0.00000  Uiso   1.00
C1372  C     0.37826   0.59532   0.77550   0.00000  Uiso   1.00
C1373  C     0.10447   0.63059   0.21614   0.00000  Uiso   1.00
C1374  C     0.39485   0.86770   0.78417   0.00000  Uiso   1.00
C1375  C     0.38256   0.59046   0.23403   0.00000  Uiso   1.00
C1376  C     0.24775   0.96698   0.41875   0.00000  Uiso   1.00
C1377  C     0.11856   0.90766   0.77012   0.00000  Uiso   1.00
C1378  C     0.39555   0.86937   0.21613   0.00000  Uiso   1.00
C1379  C     0.10591   0.63318   0.78472   0.00000  Uiso   1.00
C1380  C     0.12998   0.60379   0.78362   0.00000  Uiso   1.00
C1381  C     0.36614   0.89341   0.21518   0.00000  Uiso   1.00
C1382  C     0.09068   0.88232   0.76672   0.00000  Uiso   1.00
C1383  C     0.40792   0.61833   0.23046   0.00000  Uiso   1.00
C1384  C     0.36951   0.89610   0.78352   0.00000  Uiso   1.00
C1385  C     0.13390   0.60656   0.21519   0.00000  Uiso   1.00
C1386  C     0.40674   0.61990   0.77222   0.00000  Uiso   1.00
C1387  C     0.25286   0.53304   0.58132   0.00000  Uiso   1.00
C1388  C     0.09209   0.88167   0.23049   0.00000  Uiso   1.00
C1389  C     0.36990   0.65674   0.72778   0.00000  Uiso   1.00
C1390  C     0.13167   0.84209   0.26951   0.00000  Uiso   1.00
C1391  C     0.35379   0.87998   0.71638   0.00000  Uiso   1.00
C1392  C     0.14341   0.61614   0.28482   0.00000  Uiso   1.00
C1393  C     0.13232   0.84068   0.73328   0.00000  Uiso   1.00
C1394  C     0.36833   0.65792   0.26954   0.00000  Uiso   1.00
C1395  C     0.14610   0.61951   0.71648   0.00000  Uiso   1.00
C1396  C     0.35656   0.88390   0.28481   0.00000  Uiso   1.00
C1397  C     0.38059   0.85447   0.28386   0.00000  Uiso   1.00
C1398  C     0.28304   0.50288   0.91868   0.00000  Uiso   1.00
C1399  C     0.11770   0.64486   0.71583   0.00000  Uiso   1.00
C1400  C     0.34046   0.63256   0.26597   0.00000  Uiso   1.00
C1401  C     0.15766   0.86856   0.72988   0.00000  Uiso   1.00
C1402  C     0.11936   0.64555   0.28387   0.00000  Uiso   1.00
C1403  C     0.38318   0.85591   0.71529   0.00000  Uiso   1.00
C1404  C     0.15954   0.86745   0.26594   0.00000  Uiso   1.00
C1405  C     0.34532   0.62826   0.72450   0.00000  Uiso   1.00
C1406  C     0.03325   0.75268   0.45922   0.00000  Uiso   1.00
C1407  C     0.46687   0.74594   0.54076   0.00000  Uiso   1.00
C1408  C     0.24772   0.96675   0.45927   0.00000  Uiso   1.00
H1409  H     0.09174   0.75862   0.46430   0.00000  Uiso   1.00
H1410  H     0.34191   0.50734   0.03553   0.00000  Uiso   1.00
H1411  H     0.45816   0.60632   0.09538   0.00000  Uiso   1.00
H1412  H     0.39297   0.95987   0.79664   0.00000  Uiso   1.00
H1413  H     0.41763   0.92789   0.82716   0.00000  Uiso   1.00
H1414  H     0.35648   0.98021   0.85297   0.00000  Uiso   1.00
H1415  H     0.37815   0.94683   0.88379   0.00000  Uiso   1.00
H1416  H     0.41748   0.50963   0.84151   0.00000  Uiso   1.00
H1417  H     0.43839   0.97657   0.87360   0.00000  Uiso   1.00
H1418  H     0.40527   0.50851   0.89239   0.00000  Uiso   1.00
H1419  H     0.18816   0.58527   0.14579   0.00000  Uiso   1.00
H1420  H     0.19499   0.61422   0.18672   0.00000  Uiso   1.00
H1421  H     0.48988   0.65840   0.96433   0.00000  Uiso   1.00
H1422  H     0.14311   0.63074   0.11767   0.00000  Uiso   1.00
H1423  H     0.15327   0.66106   0.15752   0.00000  Uiso   1.00
H1424  H     0.21901   0.66176   0.13758   0.00000  Uiso   1.00
H1425  H     0.18926   0.67718   0.09914   0.00000  Uiso   1.00
H1426  H     0.20851   0.63190   0.09718   0.00000  Uiso   1.00
H1427  H     0.49037   0.61026   0.77137   0.00000  Uiso   1.00
H1428  H     0.45703   0.59432   0.73760   0.00000  Uiso   1.00
H1429  H     0.47797   0.55715   0.81538   0.00000  Uiso   1.00
H1430  H     0.44507   0.54039   0.78086   0.00000  Uiso   1.00
H1431  H     0.49340   0.53510   0.73013   0.00000  Uiso   1.00
H1432  H     0.00861   0.84174   0.03570   0.00000  Uiso   1.00
H1433  H     0.00483   0.50929   0.77308   0.00000  Uiso   1.00
H1434  H     0.02679   0.55236   0.76418   0.00000  Uiso   1.00
H1435  H     0.03574   0.86849   0.16195   0.00000  Uiso   1.00
H1436  H     0.08182   0.85395   0.16726   0.00000  Uiso   1.00
H1437  H     0.05807   0.93388   0.15196   0.00000  Uiso   1.00
H1438  H     0.10390   0.91591   0.15104   0.00000  Uiso   1.00
H1439  H     0.08797   0.87565   0.09513   0.00000  Uiso   1.00
H1440  H     0.07971   0.92309   0.08428   0.00000  Uiso   1.00
H1441  H     0.04194   0.89360   0.09543   0.00000  Uiso   1.00
H1442  H     0.36026   0.74037   0.72863   0.00000  Uiso   1.00
H1443  H     0.34189   0.50756   0.96426   0.00000  Uiso   1.00
H1444  H     0.34433   0.70703   0.76241   0.00000  Uiso   1.00
H1445  H     0.30715   0.72797   0.68463   0.00000  Uiso   1.00
H1446  H     0.29039   0.69507   0.71915   0.00000  Uiso   1.00
H1447  H     0.28511   0.74341   0.76988   0.00000  Uiso   1.00
H1448  H     0.25929   0.75484   0.72692   0.00000  Uiso   1.00
H1449  H     0.30236   0.77679   0.73583   0.00000  Uiso   1.00
H1450  H     0.11849   0.78574   0.33805   0.00000  Uiso   1.00
H1451  H     0.10395   0.83182   0.33274   0.00000  Uiso   1.00
H1452  H     0.18388   0.80807   0.34804   0.00000  Uiso   1.00
H1453  H     0.16591   0.85390   0.34896   0.00000  Uiso   1.00
H1454  H     0.15813   0.99314   0.03564   0.00000  Uiso   1.00
H1455  H     0.12565   0.83797   0.40488   0.00000  Uiso   1.00
H1456  H     0.17308   0.82971   0.41572   0.00000  Uiso   1.00
H1457  H     0.14360   0.79194   0.40457   0.00000  Uiso   1.00
H1458  H     0.28079   0.87737   0.66747   0.00000  Uiso   1.00
H1459  H     0.29296   0.85465   0.71145   0.00000  Uiso   1.00
H1460  H     0.32588   0.83482   0.63111   0.00000  Uiso   1.00
H1461  H     0.32860   0.80889   0.67565   0.00000  Uiso   1.00
H1462  H     0.25954   0.82463   0.62757   0.00000  Uiso   1.00
H1463  H     0.25990   0.80191   0.67427   0.00000  Uiso   1.00
H1464  H     0.28283   0.78158   0.63310   0.00000  Uiso   1.00
H1465  H     0.00860   0.84173   0.96443   0.00000  Uiso   1.00
H1466  H     0.16462   0.56193   0.35420   0.00000  Uiso   1.00
H1467  H     0.13569   0.55508   0.31328   0.00000  Uiso   1.00
H1468  H     0.11915   0.60704   0.38232   0.00000  Uiso   1.00
H1469  H     0.08885   0.59683   0.34250   0.00000  Uiso   1.00
H1470  H     0.08813   0.53111   0.36247   0.00000  Uiso   1.00
H1471  H     0.07268   0.56092   0.40090   0.00000  Uiso   1.00
H1472  H     0.11796   0.54167   0.40285   0.00000  Uiso   1.00
H1473  H     0.13908   0.78142   0.77169   0.00000  Uiso   1.00
H1474  H     0.18337   0.79833   0.75647   0.00000  Uiso   1.00
H1475  H     0.14181   0.73554   0.71700   0.00000  Uiso   1.00
H1476  H     0.48987   0.65838   0.03560   0.00000  Uiso   1.00
H1477  H     0.18672   0.75153   0.70484   0.00000  Uiso   1.00
H1478  H     0.20849   0.73434   0.77184   0.00000  Uiso   1.00
H1479  H     0.18985   0.69593   0.74595   0.00000  Uiso   1.00
H1480  H     0.16339   0.71795   0.78337   0.00000  Uiso   1.00
H1481  H     0.38147   0.71432   0.33809   0.00000  Uiso   1.00
H1482  H     0.39605   0.66824   0.33274   0.00000  Uiso   1.00
H1483  H     0.31609   0.69193   0.34812   0.00000  Uiso   1.00
H1484  H     0.33411   0.64612   0.34902   0.00000  Uiso   1.00
H1485  H     0.37435   0.66216   0.40490   0.00000  Uiso   1.00
H1486  H     0.32690   0.67034   0.41579   0.00000  Uiso   1.00
H1487  H     0.10794   0.96684   0.27484   0.00000  Uiso   1.00
H1488  H     0.35632   0.70815   0.40462   0.00000  Uiso   1.00
H1489  H     0.20987   0.64298   0.70336   0.00000  Uiso   1.00
H1490  H     0.17789   0.66764   0.67285   0.00000  Uiso   1.00
H1491  H     0.23021   0.60649   0.64703   0.00000  Uiso   1.00
H1492  H     0.19683   0.62817   0.61621   0.00000  Uiso   1.00
H1493  H     0.25964   0.66749   0.65850   0.00000  Uiso   1.00
H1494  H     0.22657   0.68841   0.62641   0.00000  Uiso   1.00
H1495  H     0.25851   0.65529   0.60762   0.00000  Uiso   1.00
H1496  H     0.33527   0.93816   0.35421   0.00000  Uiso   1.00
H1497  H     0.36422   0.94499   0.31328   0.00000  Uiso   1.00
H1498  H     0.06455   0.95004   0.25675   0.00000  Uiso   1.00
H1499  H     0.38073   0.89311   0.38233   0.00000  Uiso   1.00
H1500  H     0.41106   0.90327   0.34249   0.00000  Uiso   1.00
H1501  H     0.41176   0.96901   0.36242   0.00000  Uiso   1.00
H1502  H     0.42718   0.93926   0.40087   0.00000  Uiso   1.00
H1503  H     0.38190   0.95851   0.40282   0.00000  Uiso   1.00
H1504  H     0.37856   0.78211   0.33430   0.00000  Uiso   1.00
H1505  H     0.35654   0.79311   0.28961   0.00000  Uiso   1.00
H1506  H     0.33542   0.82479   0.37026   0.00000  Uiso   1.00
H1507  H     0.31111   0.83138   0.32520   0.00000  Uiso   1.00
H1508  H     0.30003   0.76396   0.32095   0.00000  Uiso   1.00
H1509  H     0.10710   0.51550   0.22426   0.00000  Uiso   1.00
H1510  H     0.28082   0.78438   0.36414   0.00000  Uiso   1.00
H1511  H     0.32250   0.75840   0.36752   0.00000  Uiso   1.00
H1512  H     0.05785   0.64297   0.67799   0.00000  Uiso   1.00
H1513  H     0.09300   0.61707   0.65274   0.00000  Uiso   1.00
H1514  H     0.06876   0.69482   0.63083   0.00000  Uiso   1.00
H1515  H     0.10017   0.66613   0.60460   0.00000  Uiso   1.00
H1516  H     0.04986   0.62106   0.59284   0.00000  Uiso   1.00
H1517  H     0.03902   0.66566   0.57383   0.00000  Uiso   1.00
H1518  H     0.01848   0.65071   0.61870   0.00000  Uiso   1.00
H1519  H     0.28317   0.64202   0.22523   0.00000  Uiso   1.00
H1520  H     0.40840   0.73987   0.53567   0.00000  Uiso   1.00
H1521  H     0.06422   0.99874   0.20617   0.00000  Uiso   1.00
H1522  H     0.29996   0.68543   0.24331   0.00000  Uiso   1.00
H1523  H     0.23449   0.64290   0.27585   0.00000  Uiso   1.00
H1524  H     0.25124   0.68581   0.29390   0.00000  Uiso   1.00
H1525  H     0.23799   0.71512   0.22993   0.00000  Uiso   1.00
H1526  H     0.19777   0.69400   0.24975   0.00000  Uiso   1.00
H1527  H     0.22226   0.67197   0.21084   0.00000  Uiso   1.00
H1528  H     0.21339   0.88325   0.66122   0.00000  Uiso   1.00
H1529  H     0.16717   0.89717   0.66708   0.00000  Uiso   1.00
H1530  H     0.19179   0.81787   0.64969   0.00000  Uiso   1.00
H1531  H     0.14575   0.83529   0.64949   0.00000  Uiso   1.00
H1532  H     0.03482   0.51201   0.27013   0.00000  Uiso   1.00
H1533  H     0.16102   0.87694   0.59450   0.00000  Uiso   1.00
H1534  H     0.16973   0.82984   0.58242   0.00000  Uiso   1.00
H1535  H     0.20723   0.85948   0.59412   0.00000  Uiso   1.00
H1536  H     0.12134   0.71793   0.33435   0.00000  Uiso   1.00
H1537  H     0.14342   0.70692   0.28966   0.00000  Uiso   1.00
H1538  H     0.16443   0.67525   0.37030   0.00000  Uiso   1.00
H1539  H     0.18879   0.66866   0.32524   0.00000  Uiso   1.00
H1540  H     0.17735   0.74164   0.36763   0.00000  Uiso   1.00
H1541  H     0.19987   0.73608   0.32106   0.00000  Uiso   1.00
H1542  H     0.21903   0.71567   0.36423   0.00000  Uiso   1.00
H1543  H     0.05598   0.55223   0.25036   0.00000  Uiso   1.00
H1544  H     0.43451   0.83260   0.64362   0.00000  Uiso   1.00
H1545  H     0.44441   0.86004   0.68492   0.00000  Uiso   1.00
H1546  H     0.39116   0.88053   0.61829   0.00000  Uiso   1.00
H1547  H     0.40299   0.90933   0.65889   0.00000  Uiso   1.00
H1548  H     0.46822   0.90884   0.63779   0.00000  Uiso   1.00
H1549  H     0.43839   0.92600   0.60026   0.00000  Uiso   1.00
H1550  H     0.45640   0.88030   0.59670   0.00000  Uiso   1.00
H1551  H     0.21684   0.85794   0.22516   0.00000  Uiso   1.00
H1552  H     0.20004   0.81455   0.24325   0.00000  Uiso   1.00
H1553  H     0.26550   0.85710   0.27575   0.00000  Uiso   1.00
H1554  H     0.07794   0.52775   0.28927   0.00000  Uiso   1.00
H1555  H     0.24874   0.81422   0.29383   0.00000  Uiso   1.00
H1556  H     0.26201   0.78482   0.22987   0.00000  Uiso   1.00
H1557  H     0.30223   0.80598   0.24964   0.00000  Uiso   1.00
H1558  H     0.27774   0.82794   0.21073   0.00000  Uiso   1.00
H1559  H     0.29987   0.60288   0.65085   0.00000  Uiso   1.00
H1560  H     0.34385   0.58928   0.66735   0.00000  Uiso   1.00
H1561  H     0.32609   0.66509   0.63207   0.00000  Uiso   1.00
H1562  H     0.37062   0.64707   0.64332   0.00000  Uiso   1.00
H1563  H     0.36181   0.59738   0.59426   0.00000  Uiso   1.00
H1564  H     0.35774   0.64209   0.57281   0.00000  Uiso   1.00
H1565  H     0.35288   0.54987   0.84915   0.00000  Uiso   1.00
H1566  H     0.31730   0.61585   0.58252   0.00000  Uiso   1.00
H1567  H     0.44155   0.74364   0.40307   0.00000  Uiso   1.00
H1568  H     0.05846   0.75585   0.59686   0.00000  Uiso   1.00
H1569  H     0.25441   0.55863   0.40312   0.00000  Uiso   1.00
H1570  H     0.24549   0.94141   0.59692   0.00000  Uiso   1.00
H1571  H     0.05849   0.75557   0.40303   0.00000  Uiso   1.00
H1572  H     0.44159   0.74361   0.59697   0.00000  Uiso   1.00
H1573  H     0.24582   0.94141   0.40308   0.00000  Uiso   1.00
H1574  H     0.25500   0.55859   0.59699   0.00000  Uiso   1.00
H1575  H     0.30859   0.50503   0.90301   0.00000  Uiso   1.00
H1576  H     0.33928   0.59385   0.83265   0.00000  Uiso   1.00
H1577  H     0.19142   0.99579   0.09692   0.00000  Uiso   1.00
H1578  H     0.00585   0.80846   0.90314   0.00000  Uiso   1.00
H1579  H     0.49364   0.69155   0.09693   0.00000  Uiso   1.00
H1580  H     0.19141   0.99546   0.90308   0.00000  Uiso   1.00
H1581  H     0.30863   0.50445   0.09688   0.00000  Uiso   1.00
H1582  H     0.49362   0.69159   0.90304   0.00000  Uiso   1.00
H1583  H     0.00557   0.80849   0.09697   0.00000  Uiso   1.00
H1584  H     0.41509   0.57609   0.86794   0.00000  Uiso   1.00
H1585  H     0.39707   0.62062   0.85668   0.00000  Uiso   1.00
H1586  H     0.34738   0.61181   0.90574   0.00000  Uiso   1.00
H1587  H     0.39208   0.60774   0.92719   0.00000  Uiso   1.00
H1588  H     0.24319   0.90813   0.46436   0.00000  Uiso   1.00
H1589  H     0.36585   0.56730   0.91748   0.00000  Uiso   1.00
H1590  H     0.03211   0.62856   0.16570   0.00000  Uiso   1.00
H1591  H     0.04310   0.60654   0.21039   0.00000  Uiso   1.00
H1592  H     0.07480   0.58541   0.12974   0.00000  Uiso   1.00
H1593  H     0.08138   0.56111   0.17481   0.00000  Uiso   1.00
H1594  H     0.00841   0.57250   0.13247   0.00000  Uiso   1.00
H1595  H     0.01396   0.55004   0.17906   0.00000  Uiso   1.00
H1596  H     0.03438   0.53081   0.13587   0.00000  Uiso   1.00
H1597  H     0.39304   0.80782   0.82199   0.00000  Uiso   1.00
H1598  H     0.36707   0.84292   0.84722   0.00000  Uiso   1.00
H1599  H     0.25751   0.59189   0.53574   0.00000  Uiso   1.00
H1600  H     0.44484   0.81884   0.86920   0.00000  Uiso   1.00
H1601  H     0.41604   0.85014   0.89542   0.00000  Uiso   1.00
H1602  H     0.37109   0.79970   0.90704   0.00000  Uiso   1.00
H1603  H     0.41568   0.78900   0.92616   0.00000  Uiso   1.00
H1604  H     0.40089   0.76843   0.88125   0.00000  Uiso   1.00
H1605  H     0.39202   0.53317   0.27477   0.00000  Uiso   1.00
H1606  H     0.43542   0.54996   0.25670   0.00000  Uiso   1.00
H1607  H     0.39291   0.98449   0.22415   0.00000  Uiso   1.00
H1608  H     0.43582   0.50124   0.20610   0.00000  Uiso   1.00
H1609  H     0.46512   0.98799   0.27008   0.00000  Uiso   1.00
H1610  H     0.40838   0.73986   0.46440   0.00000  Uiso   1.00
H1611  H     0.44400   0.94777   0.25025   0.00000  Uiso   1.00
H1612  H     0.42197   0.97226   0.28916   0.00000  Uiso   1.00
H1613  H     0.13326   0.96339   0.83879   0.00000  Uiso   1.00
H1614  H     0.14718   0.91717   0.83292   0.00000  Uiso   1.00
H1615  H     0.06788   0.94179   0.85031   0.00000  Uiso   1.00
H1616  H     0.08530   0.89575   0.85051   0.00000  Uiso   1.00
H1617  H     0.12694   0.91101   0.90550   0.00000  Uiso   1.00
H1618  H     0.07984   0.91972   0.91758   0.00000  Uiso   1.00
H1619  H     0.10948   0.95723   0.90588   0.00000  Uiso   1.00
H1620  H     0.46793   0.87134   0.16566   0.00000  Uiso   1.00
H1621  H     0.09173   0.75860   0.53557   0.00000  Uiso   1.00
H1622  H     0.45692   0.89342   0.21034   0.00000  Uiso   1.00
H1623  H     0.42525   0.91443   0.12970   0.00000  Uiso   1.00
H1624  H     0.41866   0.93879   0.17476   0.00000  Uiso   1.00
H1625  H     0.49164   0.92735   0.13237   0.00000  Uiso   1.00
H1626  H     0.48608   0.94987   0.17895   0.00000  Uiso   1.00
H1627  H     0.46567   0.96904   0.13577   0.00000  Uiso   1.00
H1628  H     0.08259   0.68451   0.85637   0.00000  Uiso   1.00
H1629  H     0.11004   0.69441   0.81509   0.00000  Uiso   1.00
H1630  H     0.13051   0.64115   0.88172   0.00000  Uiso   1.00
H1631  H     0.15932   0.65299   0.84113   0.00000  Uiso   1.00
H1632  H     0.25730   0.59191   0.46447   0.00000  Uiso   1.00
H1633  H     0.15883   0.71822   0.86222   0.00000  Uiso   1.00
H1634  H     0.17598   0.68838   0.89976   0.00000  Uiso   1.00
H1635  H     0.13028   0.70640   0.90330   0.00000  Uiso   1.00
H1636  H     0.12737   0.53079   0.83252   0.00000  Uiso   1.00
H1637  H     0.10465   0.54296   0.78854   0.00000  Uiso   1.00
H1638  H     0.08482   0.57587   0.86889   0.00000  Uiso   1.00
H1639  H     0.05888   0.57859   0.82435   0.00000  Uiso   1.00
H1640  H     0.05191   0.50989   0.82573   0.00000  Uiso   1.00
H1641  H     0.03158   0.53282   0.86690   0.00000  Uiso   1.00
H1642  H     0.07463   0.50954   0.87243   0.00000  Uiso   1.00
H1643  H     0.24305   0.90813   0.53562   0.00000  Uiso   1.00
H1644  H     0.31193   0.91462   0.14580   0.00000  Uiso   1.00
H1645  H     0.30508   0.88569   0.18672   0.00000  Uiso   1.00
H1646  H     0.35704   0.86916   0.11767   0.00000  Uiso   1.00
H1647  H     0.34683   0.83885   0.15750   0.00000  Uiso   1.00
H1648  H     0.28112   0.83813   0.13753   0.00000  Uiso   1.00
H1649  H     0.31092   0.82269   0.09910   0.00000  Uiso   1.00
H1650  H     0.29167   0.86796   0.09715   0.00000  Uiso   1.00
H1651  H     0.03142   0.88908   0.72832   0.00000  Uiso   1.00
H1652  H     0.04833   0.93336   0.74353   0.00000  Uiso   1.00
H1653  H     0.48555   0.89182   0.78301   0.00000  Uiso   1.00
H1654  H     0.15813   0.99300   0.96438   0.00000  Uiso   1.00
H1655  H     0.00153   0.93673   0.79517   0.00000  Uiso   1.00
H1656  H     0.48434   0.95848   0.72817   0.00000  Uiso   1.00
H1657  H     0.44593   0.93986   0.75406   0.00000  Uiso   1.00
H1658  H     0.46794   0.91339   0.71664   0.00000  Uiso   1.00
H1659  H     0.46432   0.63147   0.16192   0.00000  Uiso   1.00
H1660  H     0.41824   0.64605   0.16726   0.00000  Uiso   1.00
H1661  H     0.44193   0.56609   0.15188   0.00000  Uiso   1.00
H1662  H     0.39613   0.58410   0.15098   0.00000  Uiso   1.00
H1663  H     0.41216   0.62434   0.09510   0.00000  Uiso   1.00
H1664  H     0.42034   0.57690   0.08421   0.00000  Uiso   1.00
O1665  O     0.25000   0.50000   0.25000   0.00000  Uiso   1.00
O1666  O     0.25000   0.96964   0.66245   0.00000  Uiso   1.00
O1667  O     0.46963   0.75000   0.33755   0.00000  Uiso   1.00
O1668  O     0.03036   0.75000   0.66245   0.00000  Uiso   1.00
O1669  O    -0.00000   0.71963   0.83755   0.00000  Uiso   1.00
O1670  O     0.00000   0.78037   0.16245   0.00000  Uiso   1.00
O1671  O     0.28036   0.50000   0.83755   0.00000  Uiso   1.00
O1672  O     0.21963   0.50000   0.16245   0.00000  Uiso   1.00
O1673  O     0.00000   0.78037   0.83755   0.00000  Uiso   1.00
O1674  O     0.00000   0.71964   0.16245   0.00000  Uiso   1.00
O1675  O     0.21963   0.50000   0.83755   0.00000  Uiso   1.00
O1676  O     0.25000   0.50000   0.75000   0.00000  Uiso   1.00
O1677  O     0.28036   0.50000   0.16245   0.00000  Uiso   1.00
O1678  O     0.20724   0.57307   0.27302   0.00000  Uiso   1.00
O1679  O     0.29275   0.92693   0.72698   0.00000  Uiso   1.00
O1680  O     0.42692   0.70724   0.27302   0.00000  Uiso   1.00
O1681  O     0.07307   0.79276   0.72698   0.00000  Uiso   1.00
O1682  O     0.29275   0.92693   0.27302   0.00000  Uiso   1.00
O1683  O     0.20724   0.57307   0.72698   0.00000  Uiso   1.00
O1684  O     0.07307   0.79276   0.27302   0.00000  Uiso   1.00
O1685  O     0.42692   0.70724   0.72698   0.00000  Uiso   1.00
O1686  O     0.20724   0.92693   0.72698   0.00000  Uiso   1.00
O1687  O     0.00000   0.75000   0.25000   0.00000  Uiso   1.00
O1688  O     0.29275   0.57307   0.27302   0.00000  Uiso   1.00
O1689  O     0.42692   0.79275   0.72698   0.00000  Uiso   1.00
O1690  O     0.07307   0.70725   0.27302   0.00000  Uiso   1.00
O1691  O     0.29275   0.57307   0.72698   0.00000  Uiso   1.00
O1692  O     0.20724   0.92693   0.27302   0.00000  Uiso   1.00
O1693  O     0.07307   0.70725   0.72698   0.00000  Uiso   1.00
O1694  O     0.42692   0.79275   0.27302   0.00000  Uiso   1.00
O1695  O     0.45724   0.82307   0.77302   0.00000  Uiso   1.00
O1696  O     0.04275   0.67693   0.22698   0.00000  Uiso   1.00
O1697  O     0.17692   0.95725   0.77302   0.00000  Uiso   1.00
O1698  O     0.00000   0.75000   0.75000   0.00000  Uiso   1.00
O1699  O     0.32307   0.54275   0.22698   0.00000  Uiso   1.00
O1700  O     0.04275   0.67693   0.77302   0.00000  Uiso   1.00
O1701  O     0.45724   0.82307   0.22698   0.00000  Uiso   1.00
O1702  O     0.32307   0.54275   0.77302   0.00000  Uiso   1.00
O1703  O     0.17692   0.95725   0.22698   0.00000  Uiso   1.00
O1704  O     0.45724   0.67692   0.22698   0.00000  Uiso   1.00
O1705  O     0.04275   0.82308   0.77302   0.00000  Uiso   1.00
O1706  O     0.17692   0.54275   0.22698   0.00000  Uiso   1.00
O1707  O     0.32307   0.95725   0.77302   0.00000  Uiso   1.00
O1708  O     0.04275   0.82308   0.22698   0.00000  Uiso   1.00
O1709  O     0.25000   0.96964   0.33755   0.00000  Uiso   1.00
O1710  O     0.45724   0.67692   0.77302   0.00000  Uiso   1.00
O1711  O     0.32307   0.95725   0.22698   0.00000  Uiso   1.00
O1712  O     0.17692   0.54275   0.77302   0.00000  Uiso   1.00
O1713  O     0.10900   0.94367   0.21948   0.00000  Uiso   1.00
O1714  O     0.38181   0.56690   0.80173   0.00000  Uiso   1.00
O1715  O     0.08496   0.63654   0.18219   0.00000  Uiso   1.00
O1716  O     0.41368   0.86050   0.81820   0.00000  Uiso   1.00
O1717  O     0.39101   0.55631   0.21943   0.00000  Uiso   1.00
O1718  O     0.11151   0.93964   0.79029   0.00000  Uiso   1.00
O1719  O     0.41508   0.86337   0.18217   0.00000  Uiso   1.00
O1720  O     0.25000   0.53036   0.66245   0.00000  Uiso   1.00
O1721  O     0.08826   0.64123   0.81938   0.00000  Uiso   1.00
O1722  O     0.13556   0.58387   0.81736   0.00000  Uiso   1.00
O1723  O     0.35704   0.91009   0.18032   0.00000  Uiso   1.00
O1724  O     0.05690   0.89057   0.78244   0.00000  Uiso   1.00
O1725  O     0.44013   0.61106   0.21081   0.00000  Uiso   1.00
O1726  O     0.36283   0.91574   0.81723   0.00000  Uiso   1.00
O1727  O     0.14302   0.58985   0.18032   0.00000  Uiso   1.00
O1728  O     0.43836   0.61325   0.79308   0.00000  Uiso   1.00
O1729  O     0.05989   0.88893   0.21086   0.00000  Uiso   1.00
O1730  O     0.36325   0.68837   0.70692   0.00000  Uiso   1.00
O1731  O     0.03036   0.75000   0.33755   0.00000  Uiso   1.00
O1732  O     0.13893   0.80989   0.28914   0.00000  Uiso   1.00
O1733  O     0.33387   0.88556   0.68264   0.00000  Uiso   1.00
O1734  O     0.16008   0.60704   0.31969   0.00000  Uiso   1.00
O1735  O     0.14057   0.80689   0.71756   0.00000  Uiso   1.00
O1736  O     0.36106   0.69013   0.28919   0.00000  Uiso   1.00
O1737  O     0.16574   0.61284   0.68277   0.00000  Uiso   1.00
O1738  O     0.33985   0.89302   0.31968   0.00000  Uiso   1.00
O1739  O     0.38654   0.83496   0.31782   0.00000  Uiso   1.00
O1740  O     0.11051   0.66369   0.68181   0.00000  Uiso   1.00
O1741  O     0.30632   0.64101   0.28057   0.00000  Uiso   1.00
O1742  O     0.46963   0.75000   0.66245   0.00000  Uiso   1.00
O1743  O     0.18964   0.86151   0.70971   0.00000  Uiso   1.00
O1744  O     0.11337   0.66508   0.31783   0.00000  Uiso   1.00
O1745  O     0.39123   0.83826   0.68062   0.00000  Uiso   1.00
O1746  O     0.19367   0.85900   0.28052   0.00000  Uiso   1.00
O1747  O     0.31690   0.63181   0.69827   0.00000  Uiso   1.00
O1748  O     0.25000   0.53036   0.33755   0.00000  Uiso   1.00
Zn1749 Zn    0.20659   0.50000   0.21735   0.00000  Uiso   1.00
Zn1750 Zn    0.04340   0.75000   0.28265   0.00000  Uiso   1.00
Zn1751 Zn    0.25000   0.95660   0.71735   0.00000  Uiso   1.00
Zn1752 Zn    0.25000   0.54340   0.28265   0.00000  Uiso   1.00
Zn1753 Zn    0.04340   0.75000   0.71735   0.00000  Uiso   1.00
Zn1754 Zn    0.45659   0.75000   0.28265   0.00000  Uiso   1.00
Zn1755 Zn    0.25000   0.54340   0.71735   0.00000  Uiso   1.00
Zn1756 Zn    0.25000   0.95660   0.28265   0.00000  Uiso   1.00
Zn1757 Zn    0.29340   0.50000   0.78265   0.00000  Uiso   1.00
Zn1758 Zn    0.00000   0.70660   0.21735   0.00000  Uiso   1.00
Zn1759 Zn   -0.00000   0.79340   0.78265   0.00000  Uiso   1.00
Zn1760 Zn    0.29340   0.50000   0.21735   0.00000  Uiso   1.00
Zn1761 Zn    0.20659   0.50000   0.78265   0.00000  Uiso   1.00
Zn1762 Zn    0.00000   0.79341   0.21735   0.00000  Uiso   1.00
Zn1763 Zn    0.00000   0.70660   0.78265   0.00000  Uiso   1.00
Zn1764 Zn    0.45659   0.75000   0.71735   0.00000  Uiso   1.00
C1765  C     0.96705   0.74621   0.41873   0.00000  Uiso   1.00
C1766  C     0.71698   0.99773   0.08125   0.00000  Uiso   1.00
C1767  C     0.75290   0.53328   0.54080   0.00000  Uiso   1.00
C1768  C     0.96685   0.74594   0.45925   0.00000  Uiso   1.00
C1769  C     0.53325   0.75270   0.54072   0.00000  Uiso   1.00
C1770  C     0.75272   0.53330   0.45930   0.00000  Uiso   1.00
C1771  C     0.74766   0.96674   0.54076   0.00000  Uiso   1.00
C1772  C     0.71674   0.99764   0.95924   0.00000  Uiso   1.00
C1773  C     0.78329   0.50274   0.04070   0.00000  Uiso   1.00
C1774  C     0.99594   0.71687   0.95924   0.00000  Uiso   1.00
C1775  C     0.50267   0.78325   0.04078   0.00000  Uiso   1.00
C1776  C     0.78328   0.50291   0.95920   0.00000  Uiso   1.00
C1777  C     0.50296   0.78299   0.91877   0.00000  Uiso   1.00
C1778  C     0.71675   0.99770   0.04073   0.00000  Uiso   1.00
C1779  C     0.50270   0.78325   0.95928   0.00000  Uiso   1.00
C1780  C     0.99595   0.71685   0.04075   0.00000  Uiso   1.00
C1781  C     0.59823   0.84823   0.25000   0.00000  Uiso   1.00
C1782  C     0.90190   0.65190   0.75000   0.00000  Uiso   1.00
C1783  C     0.65210   0.59792   0.25000   0.00000  Uiso   1.00
C1784  C     0.84799   0.90150   0.75000   0.00000  Uiso   1.00
C1785  C     0.90177   0.65177   0.25000   0.00000  Uiso   1.00
C1786  C     0.59801   0.84801   0.75000   0.00000  Uiso   1.00
C1787  C     0.84792   0.90210   0.25000   0.00000  Uiso   1.00
C1788  C     0.99622   0.71705   0.08127   0.00000  Uiso   1.00
C1789  C     0.65150   0.59799   0.75001   0.00000  Uiso   1.00
C1790  C     0.59831   0.65241   0.75023   0.00000  Uiso   1.00
C1791  C     0.90170   0.84828   0.25000   0.00000  Uiso   1.00
C1792  C     0.65176   0.90176   0.75000   0.00000  Uiso   1.00
C1793  C     0.84802   0.59802   0.25000   0.00000  Uiso   1.00
C1794  C     0.90241   0.84831   0.74978   0.00000  Uiso   1.00
C1795  C     0.59828   0.65170   0.25000   0.00000  Uiso   1.00
C1796  C     0.84817   0.59817   0.75000   0.00000  Uiso   1.00
C1797  C     0.65198   0.90198   0.25000   0.00000  Uiso   1.00
C1798  C     0.50006   0.74925   0.47960   0.00000  Uiso   1.00
C1799  C     0.71697   0.99760   0.91873   0.00000  Uiso   1.00
C1800  C     0.50006   0.74925   0.52037   0.00000  Uiso   1.00
C1801  C     0.75025   0.50002   0.47965   0.00000  Uiso   1.00
C1802  C     0.75028   0.50001   0.52042   0.00000  Uiso   1.00
C1803  C     0.75001   0.50028   0.97958   0.00000  Uiso   1.00
C1804  C     0.75002   0.50025   0.02035   0.00000  Uiso   1.00
C1805  C     0.99925   0.75006   0.97963   0.00000  Uiso   1.00
C1806  C     0.99925   0.75006   0.02040   0.00000  Uiso   1.00
C1807  C     0.59048   0.96372   0.24851   0.00000  Uiso   1.00
C1808  C     0.58146   0.50154   0.23257   0.00000  Uiso   1.00
C1809  C     0.56128   0.52473   0.26254   0.00000  Uiso   1.00
C1810  C     0.78307   0.50256   0.08123   0.00000  Uiso   1.00
C1811  C     0.86349   0.57572   0.83685   0.00000  Uiso   1.00
C1812  C     0.88976   0.59270   0.86627   0.00000  Uiso   1.00
C1813  C     0.87259   0.59498   0.90665   0.00000  Uiso   1.00
C1814  C     0.55410   0.61341   0.18101   0.00000  Uiso   1.00
C1815  C     0.56216   0.57845   0.15816   0.00000  Uiso   1.00
C1816  C     0.52748   0.55667   0.15102   0.00000  Uiso   1.00
C1817  C     0.89499   0.83342   0.83931   0.00000  Uiso   1.00
C1818  C     0.91615   0.82548   0.87665   0.00000  Uiso   1.00
C1819  C     0.89981   0.79365   0.89909   0.00000  Uiso   1.00
C1820  C     0.90950   0.53627   0.24845   0.00000  Uiso   1.00
C1821  C     0.99620   0.71709   0.91872   0.00000  Uiso   1.00
C1822  C     0.91853   0.99845   0.23249   0.00000  Uiso   1.00
C1823  C     0.93867   0.97527   0.26246   0.00000  Uiso   1.00
C1824  C     0.62354   0.93617   0.82936   0.00000  Uiso   1.00
C1825  C     0.59230   0.92466   0.85617   0.00000  Uiso   1.00
C1826  C     0.60290   0.92844   0.89892   0.00000  Uiso   1.00
C1827  C     0.94594   0.88651   0.18097   0.00000  Uiso   1.00
C1828  C     0.93789   0.92143   0.15810   0.00000  Uiso   1.00
C1829  C     0.97256   0.94320   0.15093   0.00000  Uiso   1.00
C1830  C     0.60352   0.67272   0.83661   0.00000  Uiso   1.00
C1831  C     0.63736   0.66306   0.86066   0.00000  Uiso   1.00
C1832  C     0.50283   0.78300   0.08130   0.00000  Uiso   1.00
C1833  C     0.65140   0.69616   0.88283   0.00000  Uiso   1.00
C1834  C     0.61215   0.55323   0.81808   0.00000  Uiso   1.00
C1835  C     0.57759   0.56118   0.84170   0.00000  Uiso   1.00
C1836  C     0.55774   0.52611   0.85227   0.00000  Uiso   1.00
C1837  C     0.82550   0.89381   0.16434   0.00000  Uiso   1.00
C1838  C     0.83573   0.86103   0.13892   0.00000  Uiso   1.00
C1839  C     0.80273   0.84664   0.11686   0.00000  Uiso   1.00
C1840  C     0.53536   0.90764   0.75364   0.00000  Uiso   1.00
C1841  C     0.99808   0.91691   0.77100   0.00000  Uiso   1.00
C1842  C     0.97257   0.93319   0.74050   0.00000  Uiso   1.00
C1843  C     0.50001   0.74969   0.39841   0.00000  Uiso   1.00
C1844  C     0.93695   0.62227   0.17145   0.00000  Uiso   1.00
C1845  C     0.92516   0.59061   0.14533   0.00000  Uiso   1.00
C1846  C     0.92926   0.60025   0.10236   0.00000  Uiso   1.00
C1847  C     0.89088   0.94157   0.82243   0.00000  Uiso   1.00
C1848  C     0.88215   0.96480   0.85814   0.00000  Uiso   1.00
C1849  C     0.91279   0.99153   0.86686   0.00000  Uiso   1.00
C1850  C     0.67459   0.60610   0.16434   0.00000  Uiso   1.00
C1851  C     0.66439   0.63887   0.13893   0.00000  Uiso   1.00
C1852  C     0.69743   0.65324   0.11689   0.00000  Uiso   1.00
C1853  C     0.96428   0.59515   0.76919   0.00000  Uiso   1.00
C1854  C     0.50003   0.74971   0.60158   0.00000  Uiso   1.00
C1855  C     0.97052   0.55633   0.78405   0.00000  Uiso   1.00
C1856  C     0.50081   0.53719   0.76137   0.00000  Uiso   1.00
C1857  C     0.56310   0.87771   0.17148   0.00000  Uiso   1.00
C1858  C     0.57488   0.90938   0.14539   0.00000  Uiso   1.00
C1859  C     0.57082   0.89973   0.10241   0.00000  Uiso   1.00
C1860  C     0.84515   0.71428   0.73081   0.00000  Uiso   1.00
C1861  C     0.80633   0.72052   0.71596   0.00000  Uiso   1.00
C1862  C     0.78719   0.75081   0.73863   0.00000  Uiso   1.00
C1863  C     0.62771   0.81310   0.32852   0.00000  Uiso   1.00
C1864  C     0.65938   0.82488   0.35462   0.00000  Uiso   1.00
C1865  C     0.75009   0.50002   0.39843   0.00000  Uiso   1.00
C1866  C     0.64972   0.82082   0.39760   0.00000  Uiso   1.00
C1867  C     0.80323   0.86215   0.68192   0.00000  Uiso   1.00
C1868  C     0.81119   0.82759   0.65830   0.00000  Uiso   1.00
C1869  C     0.77611   0.80774   0.64773   0.00000  Uiso   1.00
C1870  C     0.64381   0.57549   0.33566   0.00000  Uiso   1.00
C1871  C     0.61103   0.58573   0.36108   0.00000  Uiso   1.00
C1872  C     0.59663   0.55272   0.38314   0.00000  Uiso   1.00
C1873  C     0.65764   0.78536   0.74636   0.00000  Uiso   1.00
C1874  C     0.66690   0.74808   0.72901   0.00000  Uiso   1.00
C1875  C     0.68319   0.72257   0.75951   0.00000  Uiso   1.00
C1876  C     0.53299   0.75296   0.58123   0.00000  Uiso   1.00
C1877  C     0.75017   0.50000   0.60161   0.00000  Uiso   1.00
C1878  C     0.87227   0.68694   0.32856   0.00000  Uiso   1.00
C1879  C     0.84061   0.67515   0.35467   0.00000  Uiso   1.00
C1880  C     0.85025   0.67926   0.39765   0.00000  Uiso   1.00
C1881  C     0.69158   0.64089   0.67758   0.00000  Uiso   1.00
C1882  C     0.71480   0.63216   0.64187   0.00000  Uiso   1.00
C1883  C     0.74153   0.66281   0.63315   0.00000  Uiso   1.00
C1884  C     0.85610   0.92459   0.33566   0.00000  Uiso   1.00
C1885  C     0.88887   0.91439   0.36107   0.00000  Uiso   1.00
C1886  C     0.90324   0.94743   0.38311   0.00000  Uiso   1.00
C1887  C     0.86341   0.80410   0.31899   0.00000  Uiso   1.00
C1888  C     0.75000   0.50017   0.89840   0.00000  Uiso   1.00
C1889  C     0.82845   0.81215   0.34185   0.00000  Uiso   1.00
C1890  C     0.80667   0.77748   0.34898   0.00000  Uiso   1.00
C1891  C     0.58345   0.64498   0.66068   0.00000  Uiso   1.00
C1892  C     0.57548   0.66615   0.62336   0.00000  Uiso   1.00
C1893  C     0.54371   0.64975   0.60086   0.00000  Uiso   1.00
C1894  C     0.78627   0.65950   0.25156   0.00000  Uiso   1.00
C1895  C     0.74845   0.66853   0.26751   0.00000  Uiso   1.00
C1896  C     0.72527   0.68867   0.23755   0.00000  Uiso   1.00
C1897  C     0.68617   0.87354   0.67064   0.00000  Uiso   1.00
C1898  C     0.67466   0.84230   0.64383   0.00000  Uiso   1.00
C1899  C     0.75002   0.50009   0.10157   0.00000  Uiso   1.00
C1900  C     0.67845   0.85290   0.60109   0.00000  Uiso   1.00
C1901  C     0.63650   0.69594   0.31903   0.00000  Uiso   1.00
C1902  C     0.67143   0.68789   0.34190   0.00000  Uiso   1.00
C1903  C     0.69320   0.72256   0.34907   0.00000  Uiso   1.00
C1904  C     0.92273   0.85352   0.66340   0.00000  Uiso   1.00
C1905  C     0.91306   0.88737   0.63935   0.00000  Uiso   1.00
C1906  C     0.94616   0.90141   0.61719   0.00000  Uiso   1.00
C1907  C     0.71372   0.84048   0.25149   0.00000  Uiso   1.00
C1908  C     0.75154   0.83146   0.26743   0.00000  Uiso   1.00
C1909  C     0.77473   0.81128   0.23746   0.00000  Uiso   1.00
C1910  C     0.99971   0.75003   0.89842   0.00000  Uiso   1.00
C1911  C     0.82571   0.61349   0.66315   0.00000  Uiso   1.00
C1912  C     0.84270   0.63976   0.63373   0.00000  Uiso   1.00
C1913  C     0.84498   0.62260   0.59335   0.00000  Uiso   1.00
C1914  C     0.99969   0.75001   0.10159   0.00000  Uiso   1.00
C1915  C     0.56609   0.75597   0.47967   0.00000  Uiso   1.00
C1916  C     0.93404   0.74249   0.52030   0.00000  Uiso   1.00
C1917  C     0.74517   0.93383   0.47972   0.00000  Uiso   1.00
C1918  C     0.75547   0.56620   0.52036   0.00000  Uiso   1.00
C1919  C     0.93403   0.74249   0.47974   0.00000  Uiso   1.00
C1920  C     0.75254   0.53307   0.41877   0.00000  Uiso   1.00
C1921  C     0.56609   0.75597   0.52023   0.00000  Uiso   1.00
C1922  C     0.75534   0.56620   0.47980   0.00000  Uiso   1.00
C1923  C     0.74510   0.93383   0.52028   0.00000  Uiso   1.00
C1924  C     0.68383   0.99506   0.97973   0.00000  Uiso   1.00
C1925  C     0.81620   0.50538   0.02020   0.00000  Uiso   1.00
C1926  C     0.99250   0.68404   0.97970   0.00000  Uiso   1.00
C1927  C     0.50597   0.81609   0.02033   0.00000  Uiso   1.00
C1928  C     0.81619   0.50550   0.97964   0.00000  Uiso   1.00
C1929  C     0.68383   0.99513   0.02028   0.00000  Uiso   1.00
C1930  C     0.50597   0.81609   0.97977   0.00000  Uiso   1.00
C1931  C     0.74762   0.96697   0.58127   0.00000  Uiso   1.00
C1932  C     0.99250   0.68403   0.02026   0.00000  Uiso   1.00
C1933  C     0.75001   0.50001   0.35596   0.00000  Uiso   1.00
C1934  C     0.75004   0.50000   0.64405   0.00000  Uiso   1.00
C1935  C     0.50000   0.74995   0.35595   0.00000  Uiso   1.00
C1936  C     0.50001   0.74995   0.64404   0.00000  Uiso   1.00
C1937  C     0.99995   0.75001   0.85596   0.00000  Uiso   1.00
C1938  C     0.99995   0.75000   0.14405   0.00000  Uiso   1.00
C1939  C     0.75000   0.50004   0.85595   0.00000  Uiso   1.00
C1940  C     0.75001   0.50001   0.14404   0.00000  Uiso   1.00
C1941  C     0.68006   0.56995   0.25000   0.00000  Uiso   1.00
C1942  C     0.53300   0.75283   0.41870   0.00000  Uiso   1.00
C1943  C     0.82001   0.92986   0.75000   0.00000  Uiso   1.00
C1944  C     0.92991   0.67991   0.25000   0.00000  Uiso   1.00
C1945  C     0.57001   0.82001   0.75000   0.00000  Uiso   1.00
C1946  C     0.81995   0.93006   0.25000   0.00000  Uiso   1.00
C1947  C     0.67986   0.57001   0.75001   0.00000  Uiso   1.00
C1948  C     0.57009   0.82009   0.25000   0.00000  Uiso   1.00
C1949  C     0.92996   0.67996   0.75000   0.00000  Uiso   1.00
C1950  C     0.67990   0.92990   0.75000   0.00000  Uiso   1.00
C1951  C     0.82002   0.57002   0.25000   0.00000  Uiso   1.00
C1952  C     0.93009   0.82001   0.74999   0.00000  Uiso   1.00
C1953  C     0.96709   0.74620   0.58128   0.00000  Uiso   1.00
C1954  C     0.57009   0.67990   0.25000   0.00000  Uiso   1.00
C1955  C     0.82007   0.57007   0.75000   0.00000  Uiso   1.00
C1956  C     0.67999   0.92999   0.25000   0.00000  Uiso   1.00
C1957  C     0.57001   0.68009   0.75001   0.00000  Uiso   1.00
C1958  C     0.92990   0.82009   0.25000   0.00000  Uiso   1.00
C1959  C     0.61745   0.90954   0.23406   0.00000  Uiso   1.00
C1960  C     0.87826   0.59532   0.77550   0.00000  Uiso   1.00
C1961  C     0.60447   0.63059   0.21614   0.00000  Uiso   1.00
C1962  C     0.89485   0.86770   0.78417   0.00000  Uiso   1.00
C1963  C     0.88256   0.59046   0.23403   0.00000  Uiso   1.00
C1964  C     0.74775   0.96698   0.41875   0.00000  Uiso   1.00
C1965  C     0.61856   0.90766   0.77012   0.00000  Uiso   1.00
C1966  C     0.89555   0.86937   0.21613   0.00000  Uiso   1.00
C1967  C     0.60591   0.63318   0.78472   0.00000  Uiso   1.00
C1968  C     0.62998   0.60379   0.78362   0.00000  Uiso   1.00
C1969  C     0.86614   0.89341   0.21518   0.00000  Uiso   1.00
C1970  C     0.59068   0.88232   0.76672   0.00000  Uiso   1.00
C1971  C     0.90792   0.61833   0.23046   0.00000  Uiso   1.00
C1972  C     0.86951   0.89610   0.78352   0.00000  Uiso   1.00
C1973  C     0.63390   0.60656   0.21519   0.00000  Uiso   1.00
C1974  C     0.90674   0.61990   0.77222   0.00000  Uiso   1.00
C1975  C     0.75286   0.53304   0.58132   0.00000  Uiso   1.00
C1976  C     0.59209   0.88167   0.23049   0.00000  Uiso   1.00
C1977  C     0.86990   0.65674   0.72778   0.00000  Uiso   1.00
C1978  C     0.63167   0.84209   0.26951   0.00000  Uiso   1.00
C1979  C     0.85379   0.87998   0.71638   0.00000  Uiso   1.00
C1980  C     0.64341   0.61614   0.28482   0.00000  Uiso   1.00
C1981  C     0.63232   0.84068   0.73328   0.00000  Uiso   1.00
C1982  C     0.86833   0.65792   0.26954   0.00000  Uiso   1.00
C1983  C     0.64610   0.61951   0.71648   0.00000  Uiso   1.00
C1984  C     0.85656   0.88390   0.28481   0.00000  Uiso   1.00
C1985  C     0.88059   0.85447   0.28386   0.00000  Uiso   1.00
C1986  C     0.78304   0.50288   0.91868   0.00000  Uiso   1.00
C1987  C     0.61770   0.64486   0.71583   0.00000  Uiso   1.00
C1988  C     0.84046   0.63256   0.26597   0.00000  Uiso   1.00
C1989  C     0.65766   0.86856   0.72988   0.00000  Uiso   1.00
C1990  C     0.61936   0.64555   0.28387   0.00000  Uiso   1.00
C1991  C     0.88318   0.85591   0.71529   0.00000  Uiso   1.00
C1992  C     0.65954   0.86745   0.26594   0.00000  Uiso   1.00
C1993  C     0.84532   0.62826   0.72450   0.00000  Uiso   1.00
C1994  C     0.53325   0.75268   0.45922   0.00000  Uiso   1.00
C1995  C     0.96687   0.74594   0.54076   0.00000  Uiso   1.00
C1996  C     0.74772   0.96675   0.45927   0.00000  Uiso   1.00
H1997  H     0.59174   0.75862   0.46430   0.00000  Uiso   1.00
H1998  H     0.84191   0.50734   0.03553   0.00000  Uiso   1.00
H1999  H     0.95816   0.60632   0.09538   0.00000  Uiso   1.00
H2000  H     0.89297   0.95987   0.79664   0.00000  Uiso   1.00
H2001  H     0.91763   0.92789   0.82716   0.00000  Uiso   1.00
H2002  H     0.85648   0.98021   0.85297   0.00000  Uiso   1.00
H2003  H     0.87815   0.94683   0.88379   0.00000  Uiso   1.00
H2004  H     0.91748   0.50963   0.84151   0.00000  Uiso   1.00
H2005  H     0.93839   0.97657   0.87360   0.00000  Uiso   1.00
H2006  H     0.90527   0.50851   0.89239   0.00000  Uiso   1.00
H2007  H     0.68816   0.58527   0.14579   0.00000  Uiso   1.00
H2008  H     0.69499   0.61422   0.18672   0.00000  Uiso   1.00
H2009  H     0.98988   0.65840   0.96433   0.00000  Uiso   1.00
H2010  H     0.64311   0.63074   0.11767   0.00000  Uiso   1.00
H2011  H     0.65327   0.66106   0.15752   0.00000  Uiso   1.00
H2012  H     0.71901   0.66176   0.13758   0.00000  Uiso   1.00
H2013  H     0.68926   0.67718   0.09914   0.00000  Uiso   1.00
H2014  H     0.70851   0.63190   0.09718   0.00000  Uiso   1.00
H2015  H     0.99037   0.61026   0.77137   0.00000  Uiso   1.00
H2016  H     0.95703   0.59432   0.73760   0.00000  Uiso   1.00
H2017  H     0.97797   0.55715   0.81538   0.00000  Uiso   1.00
H2018  H     0.94507   0.54039   0.78086   0.00000  Uiso   1.00
H2019  H     0.99340   0.53510   0.73013   0.00000  Uiso   1.00
H2020  H     0.50861   0.84174   0.03570   0.00000  Uiso   1.00
H2021  H     0.50483   0.50929   0.77308   0.00000  Uiso   1.00
H2022  H     0.52679   0.55236   0.76418   0.00000  Uiso   1.00
H2023  H     0.53574   0.86849   0.16195   0.00000  Uiso   1.00
H2024  H     0.58182   0.85395   0.16726   0.00000  Uiso   1.00
H2025  H     0.55807   0.93388   0.15196   0.00000  Uiso   1.00
H2026  H     0.60390   0.91591   0.15104   0.00000  Uiso   1.00
H2027  H     0.58797   0.87565   0.09513   0.00000  Uiso   1.00
H2028  H     0.57971   0.92309   0.08428   0.00000  Uiso   1.00
H2029  H     0.54194   0.89360   0.09543   0.00000  Uiso   1.00
H2030  H     0.86026   0.74037   0.72863   0.00000  Uiso   1.00
H2031  H     0.84189   0.50756   0.96426   0.00000  Uiso   1.00
H2032  H     0.84433   0.70703   0.76241   0.00000  Uiso   1.00
H2033  H     0.80715   0.72797   0.68463   0.00000  Uiso   1.00
H2034  H     0.79039   0.69507   0.71915   0.00000  Uiso   1.00
H2035  H     0.78511   0.74341   0.76988   0.00000  Uiso   1.00
H2036  H     0.75929   0.75484   0.72692   0.00000  Uiso   1.00
H2037  H     0.80236   0.77679   0.73583   0.00000  Uiso   1.00
H2038  H     0.61849   0.78574   0.33805   0.00000  Uiso   1.00
H2039  H     0.60395   0.83182   0.33274   0.00000  Uiso   1.00
H2040  H     0.68388   0.80807   0.34804   0.00000  Uiso   1.00
H2041  H     0.66591   0.85390   0.34896   0.00000  Uiso   1.00
H2042  H     0.65813   0.99314   0.03564   0.00000  Uiso   1.00
H2043  H     0.62565   0.83797   0.40488   0.00000  Uiso   1.00
H2044  H     0.67308   0.82971   0.41572   0.00000  Uiso   1.00
H2045  H     0.64360   0.79194   0.40457   0.00000  Uiso   1.00
H2046  H     0.78079   0.87737   0.66747   0.00000  Uiso   1.00
H2047  H     0.79296   0.85465   0.71145   0.00000  Uiso   1.00
H2048  H     0.82588   0.83482   0.63111   0.00000  Uiso   1.00
H2049  H     0.82860   0.80889   0.67565   0.00000  Uiso   1.00
H2050  H     0.75954   0.82463   0.62757   0.00000  Uiso   1.00
H2051  H     0.75990   0.80191   0.67427   0.00000  Uiso   1.00
H2052  H     0.78283   0.78158   0.63310   0.00000  Uiso   1.00
H2053  H     0.50860   0.84173   0.96443   0.00000  Uiso   1.00
H2054  H     0.66462   0.56193   0.35420   0.00000  Uiso   1.00
H2055  H     0.63569   0.55508   0.31328   0.00000  Uiso   1.00
H2056  H     0.61915   0.60704   0.38232   0.00000  Uiso   1.00
H2057  H     0.58885   0.59683   0.34250   0.00000  Uiso   1.00
H2058  H     0.58813   0.53111   0.36247   0.00000  Uiso   1.00
H2059  H     0.57268   0.56092   0.40090   0.00000  Uiso   1.00
H2060  H     0.61796   0.54167   0.40285   0.00000  Uiso   1.00
H2061  H     0.63908   0.78142   0.77169   0.00000  Uiso   1.00
H2062  H     0.68337   0.79833   0.75647   0.00000  Uiso   1.00
H2063  H     0.64181   0.73554   0.71700   0.00000  Uiso   1.00
H2064  H     0.98987   0.65838   0.03560   0.00000  Uiso   1.00
H2065  H     0.68672   0.75153   0.70484   0.00000  Uiso   1.00
H2066  H     0.70849   0.73434   0.77184   0.00000  Uiso   1.00
H2067  H     0.68985   0.69593   0.74595   0.00000  Uiso   1.00
H2068  H     0.66339   0.71795   0.78337   0.00000  Uiso   1.00
H2069  H     0.88147   0.71432   0.33809   0.00000  Uiso   1.00
H2070  H     0.89605   0.66824   0.33274   0.00000  Uiso   1.00
H2071  H     0.81609   0.69193   0.34812   0.00000  Uiso   1.00
H2072  H     0.83411   0.64612   0.34902   0.00000  Uiso   1.00
H2073  H     0.87435   0.66216   0.40490   0.00000  Uiso   1.00
H2074  H     0.82690   0.67034   0.41579   0.00000  Uiso   1.00
H2075  H     0.60794   0.96684   0.27484   0.00000  Uiso   1.00
H2076  H     0.85632   0.70815   0.40462   0.00000  Uiso   1.00
H2077  H     0.70987   0.64298   0.70336   0.00000  Uiso   1.00
H2078  H     0.67789   0.66764   0.67285   0.00000  Uiso   1.00
H2079  H     0.73021   0.60649   0.64703   0.00000  Uiso   1.00
H2080  H     0.69683   0.62817   0.61621   0.00000  Uiso   1.00
H2081  H     0.75964   0.66749   0.65850   0.00000  Uiso   1.00
H2082  H     0.72657   0.68841   0.62641   0.00000  Uiso   1.00
H2083  H     0.75851   0.65529   0.60762   0.00000  Uiso   1.00
H2084  H     0.83527   0.93816   0.35421   0.00000  Uiso   1.00
H2085  H     0.86422   0.94499   0.31328   0.00000  Uiso   1.00
H2086  H     0.56455   0.95004   0.25675   0.00000  Uiso   1.00
H2087  H     0.88073   0.89311   0.38233   0.00000  Uiso   1.00
H2088  H     0.91106   0.90327   0.34249   0.00000  Uiso   1.00
H2089  H     0.91176   0.96901   0.36242   0.00000  Uiso   1.00
H2090  H     0.92718   0.93926   0.40087   0.00000  Uiso   1.00
H2091  H     0.88190   0.95851   0.40282   0.00000  Uiso   1.00
H2092  H     0.87856   0.78211   0.33430   0.00000  Uiso   1.00
H2093  H     0.85654   0.79311   0.28961   0.00000  Uiso   1.00
H2094  H     0.83542   0.82479   0.37026   0.00000  Uiso   1.00
H2095  H     0.81111   0.83138   0.32520   0.00000  Uiso   1.00
H2096  H     0.80003   0.76396   0.32095   0.00000  Uiso   1.00
H2097  H     0.60710   0.51550   0.22426   0.00000  Uiso   1.00
H2098  H     0.78082   0.78438   0.36414   0.00000  Uiso   1.00
H2099  H     0.82250   0.75840   0.36752   0.00000  Uiso   1.00
H2100  H     0.55785   0.64297   0.67799   0.00000  Uiso   1.00
H2101  H     0.59300   0.61707   0.65274   0.00000  Uiso   1.00
H2102  H     0.56876   0.69482   0.63083   0.00000  Uiso   1.00
H2103  H     0.60017   0.66613   0.60460   0.00000  Uiso   1.00
H2104  H     0.54986   0.62106   0.59284   0.00000  Uiso   1.00
H2105  H     0.53902   0.66566   0.57383   0.00000  Uiso   1.00
H2106  H     0.51848   0.65071   0.61870   0.00000  Uiso   1.00
H2107  H     0.78317   0.64202   0.22523   0.00000  Uiso   1.00
H2108  H     0.90840   0.73987   0.53567   0.00000  Uiso   1.00
H2109  H     0.56422   0.99874   0.20617   0.00000  Uiso   1.00
H2110  H     0.79996   0.68543   0.24331   0.00000  Uiso   1.00
H2111  H     0.73449   0.64290   0.27585   0.00000  Uiso   1.00
H2112  H     0.75124   0.68581   0.29390   0.00000  Uiso   1.00
H2113  H     0.73799   0.71512   0.22993   0.00000  Uiso   1.00
H2114  H     0.69777   0.69400   0.24975   0.00000  Uiso   1.00
H2115  H     0.72226   0.67197   0.21084   0.00000  Uiso   1.00
H2116  H     0.71339   0.88325   0.66122   0.00000  Uiso   1.00
H2117  H     0.66717   0.89717   0.66708   0.00000  Uiso   1.00
H2118  H     0.69179   0.81787   0.64969   0.00000  Uiso   1.00
H2119  H     0.64575   0.83529   0.64949   0.00000  Uiso   1.00
H2120  H     0.53482   0.51201   0.27013   0.00000  Uiso   1.00
H2121  H     0.66102   0.87694   0.59450   0.00000  Uiso   1.00
H2122  H     0.66973   0.82984   0.58242   0.00000  Uiso   1.00
H2123  H     0.70723   0.85948   0.59412   0.00000  Uiso   1.00
H2124  H     0.62134   0.71793   0.33435   0.00000  Uiso   1.00
H2125  H     0.64342   0.70692   0.28966   0.00000  Uiso   1.00
H2126  H     0.66443   0.67525   0.37030   0.00000  Uiso   1.00
H2127  H     0.68879   0.66866   0.32524   0.00000  Uiso   1.00
H2128  H     0.67735   0.74164   0.36763   0.00000  Uiso   1.00
H2129  H     0.69987   0.73608   0.32106   0.00000  Uiso   1.00
H2130  H     0.71903   0.71567   0.36423   0.00000  Uiso   1.00
H2131  H     0.55598   0.55223   0.25036   0.00000  Uiso   1.00
H2132  H     0.93451   0.83260   0.64362   0.00000  Uiso   1.00
H2133  H     0.94441   0.86004   0.68492   0.00000  Uiso   1.00
H2134  H     0.89116   0.88053   0.61829   0.00000  Uiso   1.00
H2135  H     0.90299   0.90933   0.65889   0.00000  Uiso   1.00
H2136  H     0.96822   0.90884   0.63779   0.00000  Uiso   1.00
H2137  H     0.93839   0.92600   0.60026   0.00000  Uiso   1.00
H2138  H     0.95640   0.88030   0.59670   0.00000  Uiso   1.00
H2139  H     0.71684   0.85794   0.22516   0.00000  Uiso   1.00
H2140  H     0.70004   0.81455   0.24325   0.00000  Uiso   1.00
H2141  H     0.76550   0.85710   0.27575   0.00000  Uiso   1.00
H2142  H     0.57794   0.52775   0.28927   0.00000  Uiso   1.00
H2143  H     0.74874   0.81422   0.29383   0.00000  Uiso   1.00
H2144  H     0.76201   0.78482   0.22987   0.00000  Uiso   1.00
H2145  H     0.80223   0.80598   0.24964   0.00000  Uiso   1.00
H2146  H     0.77774   0.82794   0.21073   0.00000  Uiso   1.00
H2147  H     0.79987   0.60288   0.65085   0.00000  Uiso   1.00
H2148  H     0.84385   0.58928   0.66735   0.00000  Uiso   1.00
H2149  H     0.82609   0.66509   0.63207   0.00000  Uiso   1.00
H2150  H     0.87062   0.64707   0.64332   0.00000  Uiso   1.00
H2151  H     0.86181   0.59738   0.59426   0.00000  Uiso   1.00
H2152  H     0.85774   0.64209   0.57281   0.00000  Uiso   1.00
H2153  H     0.85288   0.54987   0.84915   0.00000  Uiso   1.00
H2154  H     0.81730   0.61585   0.58252   0.00000  Uiso   1.00
H2155  H     0.94155   0.74364   0.40307   0.00000  Uiso   1.00
H2156  H     0.55846   0.75585   0.59686   0.00000  Uiso   1.00
H2157  H     0.75441   0.55863   0.40312   0.00000  Uiso   1.00
H2158  H     0.74549   0.94141   0.59692   0.00000  Uiso   1.00
H2159  H     0.55849   0.75557   0.40303   0.00000  Uiso   1.00
H2160  H     0.94159   0.74361   0.59697   0.00000  Uiso   1.00
H2161  H     0.74582   0.94141   0.40308   0.00000  Uiso   1.00
H2162  H     0.75500   0.55859   0.59699   0.00000  Uiso   1.00
H2163  H     0.80859   0.50503   0.90301   0.00000  Uiso   1.00
H2164  H     0.83928   0.59385   0.83265   0.00000  Uiso   1.00
H2165  H     0.69142   0.99579   0.09692   0.00000  Uiso   1.00
H2166  H     0.50585   0.80846   0.90314   0.00000  Uiso   1.00
H2167  H     0.99364   0.69155   0.09693   0.00000  Uiso   1.00
H2168  H     0.69141   0.99546   0.90308   0.00000  Uiso   1.00
H2169  H     0.80863   0.50445   0.09688   0.00000  Uiso   1.00
H2170  H     0.99362   0.69159   0.90304   0.00000  Uiso   1.00
H2171  H     0.50557   0.80849   0.09697   0.00000  Uiso   1.00
H2172  H     0.91509   0.57609   0.86794   0.00000  Uiso   1.00
H2173  H     0.89707   0.62062   0.85668   0.00000  Uiso   1.00
H2174  H     0.84738   0.61181   0.90574   0.00000  Uiso   1.00
H2175  H     0.89208   0.60774   0.92719   0.00000  Uiso   1.00
H2176  H     0.74319   0.90813   0.46436   0.00000  Uiso   1.00
H2177  H     0.86585   0.56730   0.91748   0.00000  Uiso   1.00
H2178  H     0.53211   0.62856   0.16570   0.00000  Uiso   1.00
H2179  H     0.54310   0.60654   0.21039   0.00000  Uiso   1.00
H2180  H     0.57480   0.58541   0.12974   0.00000  Uiso   1.00
H2181  H     0.58138   0.56111   0.17481   0.00000  Uiso   1.00
H2182  H     0.50841   0.57250   0.13247   0.00000  Uiso   1.00
H2183  H     0.51396   0.55004   0.17906   0.00000  Uiso   1.00
H2184  H     0.53438   0.53081   0.13587   0.00000  Uiso   1.00
H2185  H     0.89304   0.80782   0.82199   0.00000  Uiso   1.00
H2186  H     0.86707   0.84292   0.84722   0.00000  Uiso   1.00
H2187  H     0.75751   0.59189   0.53574   0.00000  Uiso   1.00
H2188  H     0.94484   0.81884   0.86920   0.00000  Uiso   1.00
H2189  H     0.91604   0.85014   0.89542   0.00000  Uiso   1.00
H2190  H     0.87109   0.79970   0.90704   0.00000  Uiso   1.00
H2191  H     0.91568   0.78900   0.92616   0.00000  Uiso   1.00
H2192  H     0.90089   0.76843   0.88125   0.00000  Uiso   1.00
H2193  H     0.89202   0.53317   0.27477   0.00000  Uiso   1.00
H2194  H     0.93542   0.54996   0.25670   0.00000  Uiso   1.00
H2195  H     0.89291   0.98449   0.22415   0.00000  Uiso   1.00
H2196  H     0.93582   0.50124   0.20610   0.00000  Uiso   1.00
H2197  H     0.96512   0.98799   0.27008   0.00000  Uiso   1.00
H2198  H     0.90838   0.73986   0.46440   0.00000  Uiso   1.00
H2199  H     0.94400   0.94777   0.25025   0.00000  Uiso   1.00
H2200  H     0.92197   0.97226   0.28916   0.00000  Uiso   1.00
H2201  H     0.63326   0.96339   0.83879   0.00000  Uiso   1.00
H2202  H     0.64718   0.91717   0.83292   0.00000  Uiso   1.00
H2203  H     0.56788   0.94179   0.85031   0.00000  Uiso   1.00
H2204  H     0.58530   0.89575   0.85051   0.00000  Uiso   1.00
H2205  H     0.62694   0.91101   0.90550   0.00000  Uiso   1.00
H2206  H     0.57984   0.91972   0.91758   0.00000  Uiso   1.00
H2207  H     0.60948   0.95723   0.90588   0.00000  Uiso   1.00
H2208  H     0.96793   0.87134   0.16566   0.00000  Uiso   1.00
H2209  H     0.59173   0.75860   0.53557   0.00000  Uiso   1.00
H2210  H     0.95692   0.89342   0.21034   0.00000  Uiso   1.00
H2211  H     0.92525   0.91443   0.12970   0.00000  Uiso   1.00
H2212  H     0.91866   0.93879   0.17476   0.00000  Uiso   1.00
H2213  H     0.99164   0.92735   0.13237   0.00000  Uiso   1.00
H2214  H     0.98608   0.94987   0.17895   0.00000  Uiso   1.00
H2215  H     0.96567   0.96904   0.13577   0.00000  Uiso   1.00
H2216  H     0.58259   0.68451   0.85637   0.00000  Uiso   1.00
H2217  H     0.61004   0.69441   0.81509   0.00000  Uiso   1.00
H2218  H     0.63051   0.64115   0.88172   0.00000  Uiso   1.00
H2219  H     0.65932   0.65299   0.84113   0.00000  Uiso   1.00
H2220  H     0.75730   0.59191   0.46447   0.00000  Uiso   1.00
H2221  H     0.65883   0.71822   0.86222   0.00000  Uiso   1.00
H2222  H     0.67598   0.68838   0.89976   0.00000  Uiso   1.00
H2223  H     0.63028   0.70640   0.90330   0.00000  Uiso   1.00
H2224  H     0.62737   0.53079   0.83252   0.00000  Uiso   1.00
H2225  H     0.60465   0.54296   0.78854   0.00000  Uiso   1.00
H2226  H     0.58482   0.57587   0.86889   0.00000  Uiso   1.00
H2227  H     0.55888   0.57859   0.82435   0.00000  Uiso   1.00
H2228  H     0.55191   0.50989   0.82573   0.00000  Uiso   1.00
H2229  H     0.53158   0.53282   0.86690   0.00000  Uiso   1.00
H2230  H     0.57463   0.50954   0.87243   0.00000  Uiso   1.00
H2231  H     0.74305   0.90813   0.53562   0.00000  Uiso   1.00
H2232  H     0.81193   0.91462   0.14580   0.00000  Uiso   1.00
H2233  H     0.80508   0.88569   0.18672   0.00000  Uiso   1.00
H2234  H     0.85704   0.86916   0.11767   0.00000  Uiso   1.00
H2235  H     0.84683   0.83885   0.15750   0.00000  Uiso   1.00
H2236  H     0.78112   0.83813   0.13753   0.00000  Uiso   1.00
H2237  H     0.81092   0.82269   0.09910   0.00000  Uiso   1.00
H2238  H     0.79167   0.86796   0.09715   0.00000  Uiso   1.00
H2239  H     0.53142   0.88908   0.72832   0.00000  Uiso   1.00
H2240  H     0.54833   0.93336   0.74353   0.00000  Uiso   1.00
H2241  H     0.98555   0.89182   0.78301   0.00000  Uiso   1.00
H2242  H     0.65813   0.99300   0.96438   0.00000  Uiso   1.00
H2243  H     0.50153   0.93673   0.79517   0.00000  Uiso   1.00
H2244  H     0.98434   0.95848   0.72817   0.00000  Uiso   1.00
H2245  H     0.94593   0.93986   0.75406   0.00000  Uiso   1.00
H2246  H     0.96794   0.91339   0.71664   0.00000  Uiso   1.00
H2247  H     0.96432   0.63147   0.16192   0.00000  Uiso   1.00
H2248  H     0.91824   0.64605   0.16726   0.00000  Uiso   1.00
H2249  H     0.94193   0.56609   0.15188   0.00000  Uiso   1.00
H2250  H     0.89613   0.58410   0.15098   0.00000  Uiso   1.00
H2251  H     0.91216   0.62434   0.09510   0.00000  Uiso   1.00
H2252  H     0.92034   0.57690   0.08421   0.00000  Uiso   1.00
O2253  O     0.75000   0.50000   0.25000   0.00000  Uiso   1.00
O2254  O     0.75000   0.96964   0.66245   0.00000  Uiso   1.00
O2255  O     0.96963   0.75000   0.33755   0.00000  Uiso   1.00
O2256  O     0.53036   0.75000   0.66245   0.00000  Uiso   1.00
O2257  O     0.50000   0.71963   0.83755   0.00000  Uiso   1.00
O2258  O     0.50000   0.78037   0.16245   0.00000  Uiso   1.00
O2259  O     0.78036   0.50000   0.83755   0.00000  Uiso   1.00
O2260  O     0.71963   0.50000   0.16245   0.00000  Uiso   1.00
O2261  O     0.50000   0.78037   0.83755   0.00000  Uiso   1.00
O2262  O     0.50000   0.71964   0.16245   0.00000  Uiso   1.00
O2263  O     0.71963   0.50000   0.83755   0.00000  Uiso   1.00
O2264  O     0.75000   0.50000   0.75000   0.00000  Uiso   1.00
O2265  O     0.78036   0.50000   0.16245   0.00000  Uiso   1.00
O2266  O     0.70724   0.57307   0.27302   0.00000  Uiso   1.00
O2267  O     0.79275   0.92693   0.72698   0.00000  Uiso   1.00
O2268  O     0.92692   0.70724   0.27302   0.00000  Uiso   1.00
O2269  O     0.57307   0.79276   0.72698   0.00000  Uiso   1.00
O2270  O     0.79275   0.92693   0.27302   0.00000  Uiso   1.00
O2271  O     0.70724   0.57307   0.72698   0.00000  Uiso   1.00
O2272  O     0.57307   0.79276   0.27302   0.00000  Uiso   1.00
O2273  O     0.92692   0.70724   0.72698   0.00000  Uiso   1.00
O2274  O     0.70724   0.92693   0.72698   0.00000  Uiso   1.00
O2275  O     0.50000   0.75000   0.25000   0.00000  Uiso   1.00
O2276  O     0.79275   0.57307   0.27302   0.00000  Uiso   1.00
O2277  O     0.92692   0.79275   0.72698   0.00000  Uiso   1.00
O2278  O     0.57307   0.70725   0.27302   0.00000  Uiso   1.00
O2279  O     0.79275   0.57307   0.72698   0.00000  Uiso   1.00
O2280  O     0.70724   0.92693   0.27302   0.00000  Uiso   1.00
O2281  O     0.57307   0.70725   0.72698   0.00000  Uiso   1.00
O2282  O     0.92692   0.79275   0.27302   0.00000  Uiso   1.00
O2283  O     0.95724   0.82307   0.77302   0.00000  Uiso   1.00
O2284  O     0.54275   0.67693   0.22698   0.00000  Uiso   1.00
O2285  O     0.67692   0.95725   0.77302   0.00000  Uiso   1.00
O2286  O     0.50000   0.75000   0.75000   0.00000  Uiso   1.00
O2287  O     0.82307   0.54275   0.22698   0.00000  Uiso   1.00
O2288  O     0.54275   0.67693   0.77302   0.00000  Uiso   1.00
O2289  O     0.95724   0.82307   0.22698   0.00000  Uiso   1.00
O2290  O     0.82307   0.54275   0.77302   0.00000  Uiso   1.00
O2291  O     0.67692   0.95725   0.22698   0.00000  Uiso   1.00
O2292  O     0.95724   0.67692   0.22698   0.00000  Uiso   1.00
O2293  O     0.54275   0.82308   0.77302   0.00000  Uiso   1.00
O2294  O     0.67692   0.54275   0.22698   0.00000  Uiso   1.00
O2295  O     0.82307   0.95725   0.77302   0.00000  Uiso   1.00
O2296  O     0.54275   0.82308   0.22698   0.00000  Uiso   1.00
O2297  O     0.75000   0.96964   0.33755   0.00000  Uiso   1.00
O2298  O     0.95724   0.67692   0.77302   0.00000  Uiso   1.00
O2299  O     0.82307   0.95725   0.22698   0.00000  Uiso   1.00
O2300  O     0.67692   0.54275   0.77302   0.00000  Uiso   1.00
O2301  O     0.60900   0.94367   0.21948   0.00000  Uiso   1.00
O2302  O     0.88181   0.56690   0.80173   0.00000  Uiso   1.00
O2303  O     0.58496   0.63654   0.18219   0.00000  Uiso   1.00
O2304  O     0.91368   0.86050   0.81820   0.00000  Uiso   1.00
O2305  O     0.89101   0.55631   0.21943   0.00000  Uiso   1.00
O2306  O     0.61151   0.93964   0.79029   0.00000  Uiso   1.00
O2307  O     0.91508   0.86337   0.18217   0.00000  Uiso   1.00
O2308  O     0.75000   0.53036   0.66245   0.00000  Uiso   1.00
O2309  O     0.58826   0.64123   0.81938   0.00000  Uiso   1.00
O2310  O     0.63556   0.58387   0.81736   0.00000  Uiso   1.00
O2311  O     0.85704   0.91009   0.18032   0.00000  Uiso   1.00
O2312  O     0.55690   0.89057   0.78244   0.00000  Uiso   1.00
O2313  O     0.94013   0.61106   0.21081   0.00000  Uiso   1.00
O2314  O     0.86283   0.91574   0.81723   0.00000  Uiso   1.00
O2315  O     0.64302   0.58985   0.18032   0.00000  Uiso   1.00
O2316  O     0.93836   0.61325   0.79308   0.00000  Uiso   1.00
O2317  O     0.55989   0.88893   0.21086   0.00000  Uiso   1.00
O2318  O     0.86325   0.68837   0.70692   0.00000  Uiso   1.00
O2319  O     0.53036   0.75000   0.33755   0.00000  Uiso   1.00
O2320  O     0.63893   0.80989   0.28914   0.00000  Uiso   1.00
O2321  O     0.83387   0.88556   0.68264   0.00000  Uiso   1.00
O2322  O     0.66008   0.60704   0.31969   0.00000  Uiso   1.00
O2323  O     0.64057   0.80689   0.71756   0.00000  Uiso   1.00
O2324  O     0.86106   0.69013   0.28919   0.00000  Uiso   1.00
O2325  O     0.66574   0.61284   0.68277   0.00000  Uiso   1.00
O2326  O     0.83985   0.89302   0.31968   0.00000  Uiso   1.00
O2327  O     0.88654   0.83496   0.31782   0.00000  Uiso   1.00
O2328  O     0.61051   0.66369   0.68181   0.00000  Uiso   1.00
O2329  O     0.80632   0.64101   0.28057   0.00000  Uiso   1.00
O2330  O     0.96963   0.75000   0.66245   0.00000  Uiso   1.00
O2331  O     0.68964   0.86151   0.70971   0.00000  Uiso   1.00
O2332  O     0.61337   0.66508   0.31783   0.00000  Uiso   1.00
O2333  O     0.89123   0.83826   0.68062   0.00000  Uiso   1.00
O2334  O     0.69367   0.85900   0.28052   0.00000  Uiso   1.00
O2335  O     0.81690   0.63181   0.69827   0.00000  Uiso   1.00
O2336  O     0.75000   0.53036   0.33755   0.00000  Uiso   1.00
Zn2337 Zn    0.70659   0.50000   0.21735   0.00000  Uiso   1.00
Zn2338 Zn    0.54340   0.75000   0.28265   0.00000  Uiso   1.00
Zn2339 Zn    0.75000   0.95660   0.71735   0.00000  Uiso   1.00
Zn2340 Zn    0.75000   0.54340   0.28265   0.00000  Uiso   1.00
Zn2341 Zn    0.54340   0.75000   0.71735   0.00000  Uiso   1.00
Zn2342 Zn    0.95659   0.75000   0.28265   0.00000  Uiso   1.00
Zn2343 Zn    0.75000   0.54340   0.71735   0.00000  Uiso   1.00
Zn2344 Zn    0.75000   0.95660   0.28265   0.00000  Uiso   1.00
Zn2345 Zn    0.79340   0.50000   0.78265   0.00000  Uiso   1.00
Zn2346 Zn    0.50000   0.70660   0.21735   0.00000  Uiso   1.00
Zn2347 Zn    0.50000   0.79340   0.78265   0.00000  Uiso   1.00
Zn2348 Zn    0.79340   0.50000   0.21735   0.00000  Uiso   1.00
Zn2349 Zn    0.70659   0.50000   0.78265   0.00000  Uiso   1.00
Zn2350 Zn    0.50000   0.79341   0.21735   0.00000  Uiso   1.00
Zn2351 Zn    0.50000   0.70660   0.78265   0.00000  Uiso   1.00
Zn2352 Zn    0.95659   0.75000   0.71735   0.00000  Uiso   1.00
loop_
_geom_bond_atom_site_label_1
_geom_bond_atom_site_label_2
_geom_bond_distance
_geom_bond_site_symmetry_2
_ccdc_geom_bond_type
C1     H391    1.085   .     S
C1     C4      1.393   .     A
C1     C667    1.403   .     S
C2     C14     1.393   .     A
C2     H401    1.084   .     S
C2     C1311   1.403   .     S
C3     C211    1.393   .     A
C3     C154    1.402   .     A
C3     C38     1.411   .     A
C4     C155    1.402   .     A
C4     C622    1.411   .     S
C5     C36     1.411   .     A
C5     C112    1.393   .     A
C5     C157    1.402   .     A
C6     C37     1.411   .     A
C6     C158    1.402   .     A
C6     C156    1.393   .     A
C7     C159    1.402   .     A
C7     C167    1.393   .     A
C7     C1214   1.411   .     S
C8     C35     1.393   .     A
C8     C160    1.402   .     A
C8     C1215   1.411   .     S
C9     C46     1.393   .     A
C9     C161    1.402   .     A
C9     C40     1.411   .     A
C10    C162    1.402   .     A
C10    C41     1.411   .     A
C10    C57     1.393   .     A
C11    C163    1.402   .     A
C11    C68     1.393   .     A
C11    C630    1.411   1_455 S
C12    C222    1.393   .     A
C12    C164    1.402   .     A
C12    C39     1.411   .     A
C13    H402    1.084   .     S
C13    C15     1.393   .     A
C13    C734    1.403   1_455 S
C14    C165    1.402   .     A
C14    C1216   1.411   .     S
C15    C166    1.402   .     A
C15    C629    1.411   1_455 S
C16    C168    1.402   .     A
C16    C24     1.393   .     A
C16    C42     1.411   .     A
C17    C184    1.464   .     S
C17    C212    1.416   .     A
C17    C214    1.416   .     A
C18    C210    1.412   .     A
C18    C185    1.460   .     S
C18    C213    1.412   .     A
C19    C177    1.449   .     S
C19    C209    1.406   .     A
C19    C216    1.406   .     A
C20    C215    1.415   .     A
C20    C179    1.459   .     S
C20    C208    1.411   .     A
C21    C180    1.464   .     S
C21    C218    1.416   .     A
C21    C207    1.416   .     A
C22    C181    1.457   .     S
C22    C206    1.409   .     A
C22    C217    1.409   .     A
C23    C182    1.449   .     S
C23    C220    1.406   .     A
C23    C205    1.406   .     A
C24    C150    1.403   .     A
C24    H403    1.085   .     S
C25    C204    1.415   .     A
C25    C219    1.411   .     A
C25    C183    1.459   .     S
C26    C203    1.407   .     A
C26    C223    1.406   .     A
C26    C193    1.450   .     S
C27    C202    1.416   .     A
C27    C221    1.416   .     A
C27    C194    1.461   .     S
C28    C201    1.417   .     A
C28    C186    1.464   .     S
C28    C225    1.416   .     A
C29    C199    1.408   .     A
C29    C224    1.408   .     A
C29    C187    1.457   .     S
C30    C227    1.407   .     A
C30    C198    1.406   .     A
C30    C188    1.450   .     S
C31    C190    1.461   .     S
C31    C197    1.416   .     A
C31    C226    1.416   .     A
C32    C196    1.414   .     A
C32    C229    1.414   .     A
C32    C191    1.462   .     S
C33    C228    1.408   .     A
C33    C192    1.457   .     S
C33    C195    1.408   .     A
C34    C36     1.401   .     A
C34    C230    1.411   .     A
C34    C592    1.411   1_455 S
C35    H404    1.085   .     S
C35    C1300   1.403   .     S
C36    C819    1.411   1_455 S
C37    C38     1.401   .     A
C37    C1408   1.411   1_545 S
C38    C1183   1.411   1_545 S
C39    C1184   1.411   1_545 S
C39    C40     1.401   1_556 S
C40    C1190   1.411   1_545 S
C40    C39     1.401   1_554 S
C41    C603    1.411   .     S
C41    C42     1.401   1_556 S
C42    C599    1.411   .     S
C42    C41     1.401   1_554 S
C43    O537    1.412   .     S
C43    H322    1.115   .     S
C43    H311    1.115   .     S
C43    C1220   1.527   .     S
C44    H333    1.111   .     S
C44    C45     1.526   .     S
C44    C1219   1.527   1_545 S
C44    H1521   1.112   1_545 S
C45    H356    1.111   .     S
C45    H378    1.110   .     S
C45    H367    1.109   .     S
C46    H405    1.084   .     S
C46    C135    1.403   .     A
C47    H400    1.117   .     S
C47    H389    1.111   .     S
C47    O538    1.418   .     S
C47    C48     1.532   .     S
C48    H408    1.111   .     S
C48    H409    1.111   .     S
C48    C49     1.526   .     S
C49    H410    1.111   .     S
C49    H411    1.110   .     S
C49    H413    1.111   .     S
C50    O539    1.419   .     S
C50    H415    1.117   .     S
C50    C51     1.532   .     S
C50    H414    1.111   .     S
C51    H417    1.108   .     S
C51    C52     1.526   .     S
C51    H416    1.112   .     S
C52    H420    1.110   .     S
C52    H419    1.111   .     S
C52    H418    1.110   .     S
C53    H421    1.115   .     S
C53    O540    1.411   .     S
C53    C54     1.528   .     S
C53    H422    1.115   .     S
C54    H424    1.110   .     S
C54    C55     1.525   .     S
C54    H425    1.112   .     S
C55    H427    1.111   .     S
C55    H428    1.111   .     S
C55    H426    1.111   .     S
C56    O541    1.412   .     S
C56    H430    1.115   .     S
C56    H429    1.115   .     S
C56    C1234   1.527   1_545 S
C57    H406    1.084   .     S
C57    C146    1.403   .     A
C58    C59     1.526   .     S
C58    H431    1.111   .     S
C58    C1232   1.527   .     S
C58    H1608   1.112   .     S
C59    H435    1.109   .     S
C59    H433    1.111   .     S
C59    H436    1.110   .     S
C60    H438    1.117   .     S
C60    C61     1.532   .     S
C60    H437    1.111   .     S
C60    O542    1.419   .     S
C61    H439    1.111   .     S
C61    C62     1.527   .     S
C61    H440    1.110   .     S
C62    H443    1.111   .     S
C62    H441    1.111   .     S
C62    H442    1.110   .     S
C63    H446    1.117   .     S
C63    C64     1.532   .     S
C63    H444    1.111   .     S
C63    O543    1.419   .     S
C64    H447    1.112   .     S
C64    C65     1.526   .     S
C64    H448    1.108   .     S
C65    H449    1.110   .     S
C65    H451    1.110   .     S
C65    H450    1.111   .     S
C66    C67     1.533   .     S
C66    H452    1.111   .     S
C66    H453    1.114   .     S
C66    O545    1.416   .     S
C67    C69     1.526   .     S
C67    H454    1.112   .     S
C67    H455    1.111   .     S
C68    H407    1.085   .     S
C68    C738    1.403   1_455 S
C69    H457    1.111   .     S
C69    H459    1.111   .     S
C69    H458    1.110   .     S
C70    H461    1.118   .     S
C70    H460    1.111   .     S
C70    C71     1.533   .     S
C70    O546    1.419   .     S
C71    H462    1.112   .     S
C71    C72     1.526   .     S
C71    H463    1.110   .     S
C72    H465    1.110   .     S
C72    H466    1.110   .     S
C72    H464    1.110   .     S
C73    C74     1.532   .     S
C73    H469    1.115   .     S
C73    H468    1.111   .     S
C73    O547    1.416   .     S
C74    H471    1.111   .     S
C74    H470    1.112   .     S
C74    C75     1.526   .     S
C75    H472    1.111   .     S
C75    H474    1.111   .     S
C75    H473    1.110   .     S
C76    H476    1.115   .     S
C76    O548    1.412   .     S
C76    H475    1.115   .     S
C76    C665    1.529   1_455 S
C77    H477    1.111   .     S
C77    C78     1.526   .     S
C77    C664    1.529   .     S
C77    H1067   1.112   .     S
C78    H482    1.109   .     S
C78    H480    1.110   .     S
C78    H481    1.109   .     S
C79    C178    1.403   .     A
C79    C589    1.403   1_455 S
C79    C171    1.459   .     S
C80    H484    1.117   .     S
C80    O549    1.419   .     S
C80    H483    1.111   .     S
C80    C81     1.532   .     S
C81    H486    1.110   .     S
C81    H485    1.111   .     S
C81    C82     1.527   .     S
C82    H488    1.110   .     S
C82    H235    1.111   .     S
C82    H487    1.111   .     S
C83    H237    1.113   .     S
C83    O550    1.414   .     S
C83    C84     1.527   .     S
C83    H236    1.115   .     S
C84    H239    1.112   .     S
C84    C85     1.526   .     S
C84    H238    1.111   .     S
C85    H241    1.111   .     S
C85    H1416   1.110   .     S
C85    H1418   1.110   .     S
C86    O551    1.416   .     S
C86    H243    1.111   .     S
C86    C87     1.532   .     S
C86    H244    1.115   .     S
C87    H247    1.111   .     S
C87    C88     1.526   .     S
C87    H246    1.112   .     S
C88    H248    1.111   .     S
C88    H249    1.110   .     S
C88    H250    1.111   .     S
C89    H251    1.111   .     S
C89    H252    1.119   .     S
C89    C91     1.530   .     S
C89    O552    1.419   .     S
C90    C172    1.460   .     S
C90    C112    1.403   .     A
C90    C777    1.403   1_455 S
C91    H253    1.112   .     S
C91    H254    1.110   .     S
C91    C680    1.526   .     S
C92    H257    1.110   .     S
C92    H258    1.111   .     S
C92    C679    1.526   1_455 S
C92    H843    1.111   1_455 S
C93    C94     1.532   .     S
C93    O553    1.419   .     S
C93    H259    1.111   .     S
C93    H260    1.117   .     S
C94    H262    1.110   .     S
C94    C95     1.527   .     S
C94    H261    1.111   .     S
C95    H265    1.111   .     S
C95    H264    1.110   .     S
C95    H263    1.111   .     S
C96    H266    1.111   .     S
C96    H268    1.119   .     S
C96    O554    1.419   .     S
C96    C97     1.530   .     S
C97    H270    1.110   .     S
C97    C98     1.526   .     S
C97    H269    1.112   .     S
C98    H271    1.111   .     S
C98    H272    1.110   .     S
C98    H273    1.111   .     S
C99    H274    1.111   .     S
C99    O556    1.419   .     S
C99    C100    1.532   .     S
C99    H275    1.117   .     S
C100   H277    1.110   .     S
C100   C102    1.527   .     S
C100   H276    1.111   .     S
C101   C169    1.460   .     S
C101   C156    1.403   .     A
C101   C1376   1.403   1_545 S
C102   H280    1.110   .     S
C102   H281    1.111   .     S
C102   H279    1.111   .     S
C103   H282    1.111   .     S
C103   C104    1.533   .     S
C103   H283    1.118   .     S
C103   O557    1.419   .     S
C104   C105    1.526   .     S
C104   H285    1.110   .     S
C104   H284    1.112   .     S
C105   H288    1.110   .     S
C105   H287    1.110   .     S
C105   H286    1.110   .     S
C106   C107    1.532   .     S
C106   O558    1.416   .     S
C106   H290    1.111   .     S
C106   H291    1.115   .     S
C107   C108    1.526   .     S
C107   H293    1.111   .     S
C107   H292    1.112   .     S
C108   H295    1.110   .     S
C108   H294    1.111   .     S
C108   H296    1.111   .     S
C109   O559    1.412   .     S
C109   H298    1.115   .     S
C109   C110    1.529   .     S
C109   H297    1.115   .     S
C110   C111    1.526   .     S
C110   H301    1.112   .     S
C110   H299    1.111   .     S
C111   H304    1.109   .     S
C111   H302    1.110   .     S
C111   H303    1.109   .     S
C112   H392    1.084   .     S
C113   C211    1.403   .     A
C113   C1343   1.403   1_545 S
C113   C170    1.459   .     S
C114   O560    1.419   .     S
C114   C115    1.532   .     S
C114   H306    1.117   .     S
C114   H305    1.111   .     S
C115   H308    1.110   .     S
C115   C116    1.527   .     S
C115   H307    1.111   .     S
C116   H309    1.111   .     S
C116   H310    1.110   .     S
C116   H312    1.111   .     S
C117   O561    1.414   .     S
C117   H313    1.115   .     S
C117   C118    1.527   .     S
C117   H314    1.113   .     S
C118   H315    1.111   .     S
C118   H316    1.112   .     S
C118   C119    1.526   .     S
C119   H317    1.110   .     S
C119   H318    1.111   .     S
C119   H319    1.110   .     S
C120   O562    1.416   .     S
C120   C121    1.532   .     S
C120   H321    1.115   .     S
C120   H320    1.111   .     S
C121   H324    1.111   .     S
C121   H323    1.112   .     S
C121   C122    1.526   .     S
C122   H326    1.110   .     S
C122   H327    1.111   .     S
C122   H325    1.111   .     S
C123   H328    1.111   .     S
C123   C125    1.532   .     S
C123   H329    1.117   .     S
C123   O563    1.419   .     S
C124   C175    1.459   .     S
C124   C222    1.403   .     A
C124   C1211   1.403   1_545 S
C125   H331    1.108   .     S
C125   C126    1.526   .     S
C125   H330    1.112   .     S
C126   H335    1.110   .     S
C126   H334    1.110   .     S
C126   H332    1.111   .     S
C127   H337    1.115   .     S
C127   O564    1.411   .     S
C127   H336    1.115   .     S
C127   C128    1.528   .     S
C128   C129    1.526   .     S
C128   H339    1.112   .     S
C128   H338    1.110   .     S
C129   H340    1.111   .     S
C129   H342    1.111   .     S
C129   H341    1.111   .     S
C130   H343    1.115   .     S
C130   C131    1.527   .     S
C130   H346    1.115   .     S
C130   O565    1.412   .     S
C131   H347    1.111   .     S
C131   H348    1.112   .     S
C131   C132    1.526   .     S
C132   H351    1.110   .     S
C132   H350    1.109   .     S
C132   H349    1.111   .     S
C133   O567    1.419   .     S
C133   H353    1.117   .     S
C133   H352    1.111   .     S
C133   C134    1.532   .     S
C134   H355    1.110   .     S
C134   H354    1.111   .     S
C134   C136    1.527   .     S
C135   C176    1.460   .     S
C135   C1178   1.403   1_545 S
C136   H358    1.110   .     S
C136   H357    1.111   .     S
C136   H359    1.111   .     S
C137   O568    1.419   .     S
C137   H361    1.117   .     S
C137   H360    1.111   .     S
C137   C138    1.532   .     S
C138   H362    1.112   .     S
C138   C139    1.526   .     S
C138   H363    1.108   .     S
C139   H366    1.110   .     S
C139   H364    1.110   .     S
C139   H365    1.111   .     S
C140   C141    1.533   .     S
C140   H368    1.111   .     S
C140   O569    1.416   .     S
C140   H369    1.114   .     S
C141   H370    1.112   .     S
C141   C142    1.526   .     S
C141   H371    1.111   .     S
C142   H372    1.111   .     S
C142   H373    1.110   .     S
C142   H374    1.111   .     S
C143   C144    1.527   .     S
C143   H375    1.115   .     S
C143   O570    1.412   .     S
C143   H376    1.115   .     S
C144   C145    1.526   .     S
C144   H377    1.111   .     S
C144   H379    1.112   .     S
C145   H381    1.109   .     S
C145   H382    1.110   .     S
C145   H380    1.111   .     S
C146   C173    1.460   .     S
C146   C601    1.403   .     S
C147   C148    1.532   .     S
C147   H384    1.117   .     S
C147   O571    1.418   .     S
C147   H383    1.111   .     S
C148   H386    1.111   .     S
C148   H385    1.111   .     S
C148   C149    1.526   .     S
C149   H388    1.110   .     S
C149   H387    1.111   .     S
C149   H390    1.111   .     S
C150   C174    1.459   .     S
C150   C656    1.403   .     S
C151   C230    1.402   .     A
C151   C157    1.394   .     A
C151   H233    1.084   .     S
C152   C231    1.402   .     A
C152   C155    1.394   .     A
C152   H344    1.084   .     S
C153   C232    1.402   .     A
C153   C159    1.394   .     A
C153   H412    1.084   .     S
C154   C158    1.394   .     A
C154   H423    1.084   .     S
C155   H434    1.084   .     S
C156   H393    1.084   .     S
C157   H445    1.084   .     S
C158   H456    1.084   .     S
C159   H467    1.084   .     S
C160   H478    1.084   .     S
C160   C165    1.394   1_556 S
C161   H234    1.084   .     S
C161   C164    1.394   1_554 S
C162   H245    1.084   .     S
C162   C168    1.394   1_556 S
C163   H256    1.084   .     S
C163   C166    1.394   1_554 S
C164   H267    1.084   .     S
C164   C161    1.394   1_556 S
C165   H278    1.084   .     S
C165   C160    1.394   1_554 S
C166   H289    1.084   .     S
C166   C163    1.394   1_556 S
C167   H394    1.085   .     S
C167   C1289   1.403   .     S
C168   H300    1.084   .     S
C168   C162    1.394   1_554 S
C169   O572    1.282   .     A
C169   O1709   1.282   1_545 S
C170   O1666   1.282   1_545 A
C170   O544    1.281   .     S
C171   O1079   1.282   1_455 A
C171   O555    1.281   .     S
C172   O492    1.282   .     A
C172   O1154   1.282   1_455 S
C173   O1081   1.282   .     A
C173   O1085   1.282   .     S
C174   O1082   1.281   .     S
C174   O1086   1.282   .     S
C175   O495    1.281   .     A
C175   O499    1.282   .     A
C176   O496    1.282   .     A
C176   O501    1.282   .     A
C177   O530    1.279   .     A
C177   O502    1.279   .     A
C178   H395    1.085   .     S
C178   C230    1.393   .     A
C179   O531    1.284   .     A
C179   O503    1.281   .     A
C180   O504    1.282   .     A
C180   O528    1.282   .     A
C181   O505    1.280   .     A
C181   O529    1.280   .     A
C182   O535    1.279   .     A
C182   O506    1.279   .     A
C183   O507    1.284   .     A
C183   O536    1.281   .     A
C184   O508    1.282   .     A
C184   O532    1.282   .     A
C185   O509    1.281   .     A
C185   O534    1.281   .     A
C186   O521    1.282   .     A
C186   O510    1.282   .     A
C187   O512    1.280   .     A
C187   O523    1.280   .     A
C188   O513    1.281   .     A
C188   O519    1.279   .     A
C189   C231    1.393   .     A
C189   H396    1.084   .     S
C189   C678    1.403   .     S
C190   O520    1.283   .     A
C190   O514    1.283   .     A
C191   O526    1.282   .     A
C191   O515    1.282   .     A
C192   O516    1.280   .     A
C192   O527    1.280   .     A
C193   O524    1.281   .     A
C193   O517    1.279   .     A
C194   O525    1.283   .     A
C194   O518    1.283   .     A
C195   O537    1.384   .     S
C195   C212    1.392   .     A
C196   C210    1.388   .     A
C196   O538    1.385   .     S
C197   O539    1.387   .     S
C197   C209    1.392   .     A
C198   O540    1.384   .     S
C198   C208    1.394   .     A
C199   O541    1.384   .     S
C199   C207    1.392   .     A
C200   C232    1.393   .     A
C200   H397    1.084   .     S
C200   C1277   1.403   .     S
C201   C206    1.391   .     A
C201   O542    1.386   .     S
C202   O543    1.387   .     S
C202   C205    1.392   .     A
C203   O545    1.387   .     S
C203   C204    1.392   .     A
C204   O546    1.386   .     S
C205   O547    1.386   .     S
C206   O548    1.385   .     S
C207   O549    1.386   .     S
C208   O550    1.386   .     S
C209   O551    1.386   .     S
C210   O552    1.386   .     S
C211   H398    1.084   .     S
C212   O553    1.386   .     S
C213   C229    1.388   .     A
C213   O554    1.386   .     S
C214   O556    1.386   .     S
C214   C228    1.392   .     A
C215   C227    1.392   .     A
C215   O557    1.386   .     S
C216   C226    1.392   .     A
C216   O558    1.386   .     S
C217   O559    1.385   .     S
C217   C225    1.391   .     A
C218   O560    1.386   .     S
C218   C224    1.392   .     A
C219   O561    1.386   .     S
C219   C223    1.394   .     A
C220   O562    1.386   .     S
C220   C221    1.392   .     A
C221   O563    1.387   .     S
C222   H399    1.084   .     S
C223   O564    1.384   .     S
C224   O565    1.384   .     S
C225   O567    1.386   .     S
C226   O568    1.387   .     S
C227   O569    1.387   .     S
C228   O570    1.384   .     S
C229   O571    1.385   .     S
C231   C624    1.411   .     S
C232   C1213   1.411   .     S
H240   C1261   1.110   1_545 S
H242   C1261   1.110   1_545 S
H255   C680    1.111   .     S
H345   C1220   1.112   .     S
H432   C1234   1.112   1_545 S
H479   C665    1.112   1_455 S
O489   Zn584   1.948   .     S
O489   Zn576   1.948   .     S
O489   Zn573   1.949   .     S
O489   Zn1756  1.949   1_545 S
O490   C1346   1.282   .     A
O490   Zn575   1.947   .     S
O491   Zn578   1.947   .     S
O491   C759    1.282   .     A
O492   Zn577   1.947   .     S
O493   C761    1.282   1_455 A
O493   Zn587   1.947   .     S
O494   Zn586   1.947   .     S
O494   C762    1.281   1_455 S
O495   Zn581   1.947   .     S
O496   Zn573   1.947   .     S
O497   C761    1.282   1_455 S
O497   Zn583   1.947   .     S
O498   Zn582   1.947   .     S
O498   C762    1.282   1_455 S
O499   Zn585   1.947   .     S
O500   Zn581   1.949   .     S
O500   Zn585   1.948   .     S
O500   Zn579   1.949   .     S
O500   Zn1751  1.948   1_545 S
O501   Zn584   1.947   .     S
O502   Zn576   1.935   .     S
O503   Zn575   1.935   .     S
O504   Zn578   1.943   .     S
O505   Zn577   1.943   .     S
O506   Zn580   1.934   .     S
O507   Zn579   1.934   .     S
O508   Zn574   1.943   .     S
O509   Zn588   1.943   .     S
O510   Zn575   1.943   .     S
O511   Zn574   1.949   .     S
O511   Zn582   1.948   .     S
O511   Zn586   1.949   .     S
O511   Zn1166  1.948   1_455 S
O512   Zn576   1.943   .     S
O513   Zn588   1.934   .     S
O514   Zn574   1.934   .     S
O515   Zn579   1.943   .     S
O516   Zn580   1.943   .     S
O517   Zn577   1.935   .     S
O518   Zn578   1.935   .     S
O519   Zn1171  1.935   .     S
O520   Zn582   1.935   .     S
O521   Zn1761  1.943   .     S
O522   Zn587   1.949   .     S
O522   Zn577   1.948   .     S
O522   Zn583   1.948   .     S
O522   Zn1176  1.949   1_455 S
O523   Zn584   1.943   .     S
O524   Zn587   1.934   .     S
O525   Zn1174  1.934   .     S
O526   Zn581   1.943   .     S
O527   Zn1749  1.943   .     S
O528   Zn1170  1.943   .     S
O529   Zn583   1.943   .     S
O530   Zn573   1.934   .     S
O531   Zn1757  1.934   .     S
O532   Zn586   1.943   .     S
O533   Zn580   1.947   .     S
O533   C1345   1.282   .     S
O534   Zn1175  1.943   .     S
O535   Zn1760  1.935   .     S
O536   Zn585   1.935   .     S
O544   Zn579   1.947   .     S
O555   Zn574   1.947   .     S
O566   Zn588   1.947   .     S
O566   C760    1.282   .     S
O572   Zn576   1.947   .     S
Zn573  O1703   1.943   1_545 S
Zn575  O1676   1.948   .     S
Zn578  O1099   1.948   .     S
Zn580  O1665   1.949   .     S
Zn581  O1707   1.934   1_545 S
Zn582  O1116   1.943   1_455 S
Zn583  O1107   1.935   1_455 S
Zn584  O1711   1.935   1_545 S
Zn585  O1697   1.943   1_545 S
Zn586  O1113   1.934   1_455 S
Zn587  O1122   1.943   1_455 S
Zn588  O1110   1.949   .     S
C589   H979    1.085   .     S
C589   C592    1.393   .     A
C589   C79     1.403   1_655 S
C590   C602    1.393   .     A
C590   H989    1.084   .     S
C590   C1899   1.403   .     S
C591   C799    1.393   .     A
C591   C742    1.402   .     A
C591   C626    1.411   .     A
C592   C743    1.402   .     A
C592   C34     1.411   1_655 S
C593   C624    1.411   .     A
C593   C700    1.393   .     A
C593   C745    1.402   .     A
C594   C625    1.411   .     A
C594   C746    1.402   .     A
C594   C744    1.393   .     A
C595   C747    1.402   .     A
C595   C755    1.393   .     A
C595   C1802   1.411   .     S
C596   C623    1.393   .     A
C596   C748    1.402   .     A
C596   C1803   1.411   .     S
C597   C634    1.393   .     A
C597   C749    1.402   .     A
C597   C628    1.411   .     A
C598   C750    1.402   .     A
C598   C629    1.411   .     A
C598   C645    1.393   .     A
C599   C751    1.402   .     A
C599   C656    1.393   .     A
C600   C810    1.393   .     A
C600   C752    1.402   .     A
C600   C627    1.411   .     A
C601   H990    1.084   .     S
C601   C603    1.393   .     A
C602   C753    1.402   .     A
C602   C1804   1.411   .     S
C603   C754    1.402   .     A
C604   C756    1.402   .     A
C604   C612    1.393   .     A
C604   C630    1.411   .     A
C605   C772    1.464   .     S
C605   C800    1.416   .     A
C605   C802    1.416   .     A
C606   C798    1.412   .     A
C606   C773    1.460   .     S
C606   C801    1.412   .     A
C607   C765    1.449   .     S
C607   C797    1.406   .     A
C607   C804    1.406   .     A
C608   C803    1.415   .     A
C608   C767    1.459   .     S
C608   C796    1.411   .     A
C609   C768    1.464   .     S
C609   C806    1.416   .     A
C609   C795    1.416   .     A
C610   C769    1.457   .     S
C610   C794    1.409   .     A
C610   C805    1.409   .     A
C611   C770    1.449   .     S
C611   C808    1.406   .     A
C611   C793    1.406   .     A
C612   C738    1.403   .     A
C612   H991    1.085   .     S
C613   C792    1.415   .     A
C613   C807    1.411   .     A
C613   C771    1.459   .     S
C614   C791    1.407   .     A
C614   C811    1.406   .     A
C614   C781    1.450   .     S
C615   C790    1.416   .     A
C615   C809    1.416   .     A
C615   C782    1.461   .     S
C616   C789    1.417   .     A
C616   C774    1.464   .     S
C616   C813    1.416   .     A
C617   C787    1.408   .     A
C617   C812    1.408   .     A
C617   C775    1.457   .     S
C618   C815    1.407   .     A
C618   C786    1.406   .     A
C618   C776    1.450   .     S
C619   C778    1.461   .     S
C619   C785    1.416   .     A
C619   C814    1.416   .     A
C620   C784    1.414   .     A
C620   C817    1.414   .     A
C620   C779    1.462   .     S
C621   C816    1.408   .     A
C621   C780    1.457   .     S
C621   C783    1.408   .     A
C622   C624    1.401   .     A
C622   C818    1.411   .     A
C623   H992    1.085   .     S
C623   C1888   1.403   .     S
C625   C626    1.401   .     A
C625   C1996   1.411   1_545 S
C626   C1771   1.411   1_545 S
C627   C1772   1.411   1_545 S
C627   C628    1.401   1_556 S
C628   C1778   1.411   1_545 S
C628   C627    1.401   1_554 S
C629   C15     1.411   1_655 S
C629   C630    1.401   1_556 S
C630   C11     1.411   1_655 S
C630   C629    1.401   1_554 S
C631   O1125   1.412   .     S
C631   H910    1.115   .     S
C631   H899    1.115   .     S
C631   C1808   1.527   .     S
C632   H921    1.111   .     S
C632   C633    1.526   .     S
C632   C1807   1.527   1_545 S
C632   H2109   1.112   1_545 S
C633   H944    1.111   .     S
C633   H966    1.110   .     S
C633   H955    1.109   .     S
C634   H993    1.084   .     S
C634   C723    1.403   .     A
C635   H988    1.117   .     S
C635   H977    1.111   .     S
C635   O1126   1.418   .     S
C635   C636    1.532   .     S
C636   H996    1.111   .     S
C636   H997    1.111   .     S
C636   C637    1.526   .     S
C637   H998    1.111   .     S
C637   H999    1.110   .     S
C637   H1001   1.111   .     S
C638   O1127   1.419   .     S
C638   H1003   1.117   .     S
C638   C639    1.532   .     S
C638   H1002   1.111   .     S
C639   H1005   1.108   .     S
C639   C640    1.526   .     S
C639   H1004   1.112   .     S
C640   H1008   1.110   .     S
C640   H1007   1.111   .     S
C640   H1006   1.110   .     S
C641   H1009   1.115   .     S
C641   O1128   1.411   .     S
C641   C642    1.528   .     S
C641   H1010   1.115   .     S
C642   H1012   1.110   .     S
C642   C643    1.525   .     S
C642   H1013   1.112   .     S
C643   H1015   1.111   .     S
C643   H1016   1.111   .     S
C643   H1014   1.111   .     S
C644   O1129   1.412   .     S
C644   H1018   1.115   .     S
C644   H1017   1.115   .     S
C644   C1822   1.527   1_545 S
C645   H994    1.084   .     S
C645   C734    1.403   .     A
C646   C647    1.526   .     S
C646   H1019   1.111   .     S
C646   C1820   1.527   .     S
C646   H2196   1.112   .     S
C647   H1023   1.109   .     S
C647   H1021   1.111   .     S
C647   H1024   1.110   .     S
C648   H1026   1.117   .     S
C648   C649    1.532   .     S
C648   H1025   1.111   .     S
C648   O1130   1.419   .     S
C649   H1027   1.111   .     S
C649   C650    1.527   .     S
C649   H1028   1.110   .     S
C650   H1031   1.111   .     S
C650   H1029   1.111   .     S
C650   H1030   1.110   .     S
C651   H1034   1.117   .     S
C651   C652    1.532   .     S
C651   H1032   1.111   .     S
C651   O1131   1.419   .     S
C652   H1035   1.112   .     S
C652   C653    1.526   .     S
C652   H1036   1.108   .     S
C653   H1037   1.110   .     S
C653   H1039   1.110   .     S
C653   H1038   1.111   .     S
C654   C655    1.533   .     S
C654   H1040   1.111   .     S
C654   H1041   1.114   .     S
C654   O1133   1.416   .     S
C655   C657    1.526   .     S
C655   H1042   1.112   .     S
C655   H1043   1.111   .     S
C656   H995    1.085   .     S
C657   H1045   1.111   .     S
C657   H1047   1.111   .     S
C657   H1046   1.110   .     S
C658   H1049   1.118   .     S
C658   H1048   1.111   .     S
C658   C659    1.533   .     S
C658   O1134   1.419   .     S
C659   H1050   1.112   .     S
C659   C660    1.526   .     S
C659   H1051   1.110   .     S
C660   H1053   1.110   .     S
C660   H1054   1.110   .     S
C660   H1052   1.110   .     S
C661   C662    1.532   .     S
C661   H1057   1.115   .     S
C661   H1056   1.111   .     S
C661   O1135   1.416   .     S
C662   H1059   1.111   .     S
C662   H1058   1.112   .     S
C662   C663    1.526   .     S
C663   H1060   1.111   .     S
C663   H1062   1.111   .     S
C663   H1061   1.110   .     S
C664   H1064   1.115   .     S
C664   O1136   1.412   .     S
C664   H1063   1.115   .     S
C665   H1065   1.111   .     S
C665   C666    1.526   .     S
C665   C76     1.529   1_655 S
C665   H479    1.112   1_655 S
C666   H1070   1.109   .     S
C666   H1068   1.110   .     S
C666   H1069   1.109   .     S
C667   C766    1.403   .     A
C667   C759    1.459   .     S
C668   H1072   1.117   .     S
C668   O1137   1.419   .     S
C668   H1071   1.111   .     S
C668   C669    1.532   .     S
C669   H1074   1.110   .     S
C669   H1073   1.111   .     S
C669   C670    1.527   .     S
C670   H1076   1.110   .     S
C670   H823    1.111   .     S
C670   H1075   1.111   .     S
C671   H825    1.113   .     S
C671   O1138   1.414   .     S
C671   C672    1.527   .     S
C671   H824    1.115   .     S
C672   H827    1.112   .     S
C672   C673    1.526   .     S
C672   H826    1.111   .     S
C673   H829    1.111   .     S
C673   H2004   1.110   .     S
C673   H2006   1.110   .     S
C674   O1139   1.416   .     S
C674   H831    1.111   .     S
C674   C675    1.532   .     S
C674   H832    1.115   .     S
C675   H835    1.111   .     S
C675   C676    1.526   .     S
C675   H834    1.112   .     S
C676   H836    1.111   .     S
C676   H837    1.110   .     S
C676   H838    1.111   .     S
C677   H839    1.111   .     S
C677   H840    1.119   .     S
C677   C679    1.530   .     S
C677   O1140   1.419   .     S
C678   C760    1.460   .     S
C678   C700    1.403   .     A
C679   H841    1.112   .     S
C679   H842    1.110   .     S
C679   C92     1.526   1_655 S
C680   H845    1.110   .     S
C680   H846    1.111   .     S
C681   C682    1.532   .     S
C681   O1141   1.419   .     S
C681   H847    1.111   .     S
C681   H848    1.117   .     S
C682   H850    1.110   .     S
C682   C683    1.527   .     S
C682   H849    1.111   .     S
C683   H853    1.111   .     S
C683   H852    1.110   .     S
C683   H851    1.111   .     S
C684   H854    1.111   .     S
C684   H856    1.119   .     S
C684   O1142   1.419   .     S
C684   C685    1.530   .     S
C685   H858    1.110   .     S
C685   C686    1.526   .     S
C685   H857    1.112   .     S
C686   H859    1.111   .     S
C686   H860    1.110   .     S
C686   H861    1.111   .     S
C687   H862    1.111   .     S
C687   O1144   1.419   .     S
C687   C688    1.532   .     S
C687   H863    1.117   .     S
C688   H865    1.110   .     S
C688   C690    1.527   .     S
C688   H864    1.111   .     S
C689   C757    1.460   .     S
C689   C744    1.403   .     A
C689   C1964   1.403   1_545 S
C690   H868    1.110   .     S
C690   H869    1.111   .     S
C690   H867    1.111   .     S
C691   H870    1.111   .     S
C691   C692    1.533   .     S
C691   H871    1.118   .     S
C691   O1145   1.419   .     S
C692   C693    1.526   .     S
C692   H873    1.110   .     S
C692   H872    1.112   .     S
C693   H876    1.110   .     S
C693   H875    1.110   .     S
C693   H874    1.110   .     S
C694   C695    1.532   .     S
C694   O1146   1.416   .     S
C694   H878    1.111   .     S
C694   H879    1.115   .     S
C695   C696    1.526   .     S
C695   H881    1.111   .     S
C695   H880    1.112   .     S
C696   H883    1.110   .     S
C696   H882    1.111   .     S
C696   H884    1.111   .     S
C697   O1147   1.412   .     S
C697   H886    1.115   .     S
C697   C698    1.529   .     S
C697   H885    1.115   .     S
C698   C699    1.526   .     S
C698   H889    1.112   .     S
C698   H887    1.111   .     S
C699   H892    1.109   .     S
C699   H890    1.110   .     S
C699   H891    1.109   .     S
C700   H980    1.084   .     S
C701   C799    1.403   .     A
C701   C1931   1.403   1_545 S
C701   C758    1.459   .     S
C702   O1148   1.419   .     S
C702   C703    1.532   .     S
C702   H894    1.117   .     S
C702   H893    1.111   .     S
C703   H896    1.110   .     S
C703   C704    1.527   .     S
C703   H895    1.111   .     S
C704   H897    1.111   .     S
C704   H898    1.110   .     S
C704   H900    1.111   .     S
C705   O1149   1.414   .     S
C705   H901    1.115   .     S
C705   C706    1.527   .     S
C705   H902    1.113   .     S
C706   H903    1.111   .     S
C706   H904    1.112   .     S
C706   C707    1.526   .     S
C707   H905    1.110   .     S
C707   H906    1.111   .     S
C707   H907    1.110   .     S
C708   O1150   1.416   .     S
C708   C709    1.532   .     S
C708   H909    1.115   .     S
C708   H908    1.111   .     S
C709   H912    1.111   .     S
C709   H911    1.112   .     S
C709   C710    1.526   .     S
C710   H914    1.110   .     S
C710   H915    1.111   .     S
C710   H913    1.111   .     S
C711   H916    1.111   .     S
C711   C713    1.532   .     S
C711   H917    1.117   .     S
C711   O1151   1.419   .     S
C712   C763    1.459   .     S
C712   C810    1.403   .     A
C712   C1799   1.403   1_545 S
C713   H919    1.108   .     S
C713   C714    1.526   .     S
C713   H918    1.112   .     S
C714   H923    1.110   .     S
C714   H922    1.110   .     S
C714   H920    1.111   .     S
C715   H925    1.115   .     S
C715   O1152   1.411   .     S
C715   H924    1.115   .     S
C715   C716    1.528   .     S
C716   C717    1.526   .     S
C716   H927    1.112   .     S
C716   H926    1.110   .     S
C717   H928    1.111   .     S
C717   H930    1.111   .     S
C717   H929    1.111   .     S
C718   H931    1.115   .     S
C718   C719    1.527   .     S
C718   H934    1.115   .     S
C718   O1153   1.412   .     S
C719   H935    1.111   .     S
C719   H936    1.112   .     S
C719   C720    1.526   .     S
C720   H939    1.110   .     S
C720   H938    1.109   .     S
C720   H937    1.111   .     S
C721   O1155   1.419   .     S
C721   H941    1.117   .     S
C721   H940    1.111   .     S
C721   C722    1.532   .     S
C722   H943    1.110   .     S
C722   H942    1.111   .     S
C722   C724    1.527   .     S
C723   C764    1.460   .     S
C723   C1766   1.403   1_545 S
C724   H946    1.110   .     S
C724   H945    1.111   .     S
C724   H947    1.111   .     S
C725   O1156   1.419   .     S
C725   H949    1.117   .     S
C725   H948    1.111   .     S
C725   C726    1.532   .     S
C726   H950    1.112   .     S
C726   C727    1.526   .     S
C726   H951    1.108   .     S
C727   H954    1.110   .     S
C727   H952    1.110   .     S
C727   H953    1.111   .     S
C728   C729    1.533   .     S
C728   H956    1.111   .     S
C728   O1157   1.416   .     S
C728   H957    1.114   .     S
C729   H958    1.112   .     S
C729   C730    1.526   .     S
C729   H959    1.111   .     S
C730   H960    1.111   .     S
C730   H961    1.110   .     S
C730   H962    1.111   .     S
C731   C732    1.527   .     S
C731   H963    1.115   .     S
C731   O1158   1.412   .     S
C731   H964    1.115   .     S
C732   C733    1.526   .     S
C732   H965    1.111   .     S
C732   H967    1.112   .     S
C733   H969    1.109   .     S
C733   H970    1.110   .     S
C733   H968    1.111   .     S
C734   C761    1.460   .     S
C734   C13     1.403   1_655 S
C735   C736    1.532   .     S
C735   H972    1.117   .     S
C735   O1159   1.418   .     S
C735   H971    1.111   .     S
C736   H974    1.111   .     S
C736   H973    1.111   .     S
C736   C737    1.526   .     S
C737   H976    1.110   .     S
C737   H975    1.111   .     S
C737   H978    1.111   .     S
C738   C762    1.459   .     S
C738   C68     1.403   1_655 S
C739   C818    1.402   .     A
C739   C745    1.394   .     A
C739   H821    1.084   .     S
C740   C819    1.402   .     A
C740   C743    1.394   .     A
C740   H932    1.084   .     S
C741   C820    1.402   .     A
C741   C747    1.394   .     A
C741   H1000   1.084   .     S
C742   C746    1.394   .     A
C742   H1011   1.084   .     S
C743   H1022   1.084   .     S
C744   H981    1.084   .     S
C745   H1033   1.084   .     S
C746   H1044   1.084   .     S
C747   H1055   1.084   .     S
C748   H1066   1.084   .     S
C748   C753    1.394   1_556 S
C749   H822    1.084   .     S
C749   C752    1.394   1_554 S
C750   H833    1.084   .     S
C750   C756    1.394   1_556 S
C751   H844    1.084   .     S
C751   C754    1.394   1_554 S
C752   H855    1.084   .     S
C752   C749    1.394   1_556 S
C753   H866    1.084   .     S
C753   C748    1.394   1_554 S
C754   H877    1.084   .     S
C754   C751    1.394   1_556 S
C755   H982    1.085   .     S
C755   C1877   1.403   .     S
C756   H888    1.084   .     S
C756   C750    1.394   1_554 S
C757   O1160   1.282   .     A
C757   O2297   1.282   1_545 S
C758   O2254   1.282   1_545 A
C758   O1132   1.281   .     S
C759   O1143   1.281   .     S
C760   O1080   1.282   .     A
C761   O493    1.282   1_655 A
C761   O497    1.282   1_655 S
C762   O494    1.281   1_655 S
C762   O498    1.282   1_655 S
C763   O1083   1.281   .     A
C763   O1087   1.282   .     A
C764   O1084   1.282   .     A
C764   O1089   1.282   .     A
C765   O1118   1.279   .     A
C765   O1090   1.279   .     A
C766   H983    1.085   .     S
C766   C818    1.393   .     A
C767   O1119   1.284   .     A
C767   O1091   1.281   .     A
C768   O1092   1.282   .     A
C768   O1116   1.282   .     A
C769   O1093   1.280   .     A
C769   O1117   1.280   .     A
C770   O1123   1.279   .     A
C770   O1094   1.279   .     A
C771   O1095   1.284   .     A
C771   O1124   1.281   .     A
C772   O1096   1.282   .     A
C772   O1120   1.282   .     A
C773   O1097   1.281   .     A
C773   O1122   1.281   .     A
C774   O1109   1.282   .     A
C774   O1098   1.282   .     A
C775   O1100   1.280   .     A
C775   O1111   1.280   .     A
C776   O1101   1.281   .     A
C776   O1107   1.279   .     A
C777   C819    1.393   .     A
C777   H984    1.084   .     S
C777   C90     1.403   1_655 S
C778   O1108   1.283   .     A
C778   O1102   1.283   .     A
C779   O1114   1.282   .     A
C779   O1103   1.282   .     A
C780   O1104   1.280   .     A
C780   O1115   1.280   .     A
C781   O1112   1.281   .     A
C781   O1105   1.279   .     A
C782   O1113   1.283   .     A
C782   O1106   1.283   .     A
C783   O1125   1.384   .     S
C783   C800    1.392   .     A
C784   C798    1.388   .     A
C784   O1126   1.385   .     S
C785   O1127   1.387   .     S
C785   C797    1.392   .     A
C786   O1128   1.384   .     S
C786   C796    1.394   .     A
C787   O1129   1.384   .     S
C787   C795    1.392   .     A
C788   C820    1.393   .     A
C788   H985    1.084   .     S
C788   C1865   1.403   .     S
C789   C794    1.391   .     A
C789   O1130   1.386   .     S
C790   O1131   1.387   .     S
C790   C793    1.392   .     A
C791   O1133   1.387   .     S
C791   C792    1.392   .     A
C792   O1134   1.386   .     S
C793   O1135   1.386   .     S
C794   O1136   1.385   .     S
C795   O1137   1.386   .     S
C796   O1138   1.386   .     S
C797   O1139   1.386   .     S
C798   O1140   1.386   .     S
C799   H986    1.084   .     S
C800   O1141   1.386   .     S
C801   C817    1.388   .     A
C801   O1142   1.386   .     S
C802   O1144   1.386   .     S
C802   C816    1.392   .     A
C803   C815    1.392   .     A
C803   O1145   1.386   .     S
C804   C814    1.392   .     A
C804   O1146   1.386   .     S
C805   O1147   1.385   .     S
C805   C813    1.391   .     A
C806   O1148   1.386   .     S
C806   C812    1.392   .     A
C807   O1149   1.386   .     S
C807   C811    1.394   .     A
C808   O1150   1.386   .     S
C808   C809    1.392   .     A
C809   O1151   1.387   .     S
C810   H987    1.084   .     S
C811   O1152   1.384   .     S
C812   O1153   1.384   .     S
C813   O1155   1.386   .     S
C814   O1156   1.387   .     S
C815   O1157   1.387   .     S
C816   O1158   1.384   .     S
C817   O1159   1.385   .     S
C819   C36     1.411   1_655 S
C820   C1801   1.411   .     S
H828   C1849   1.110   1_545 S
H830   C1849   1.110   1_545 S
H843   C92     1.111   1_655 S
H933   C1808   1.112   .     S
H1020  C1822   1.112   1_545 S
O1077  Zn1172  1.948   .     S
O1077  Zn1164  1.948   .     S
O1077  Zn1161  1.949   .     S
O1077  Zn2344  1.949   1_545 S
O1078  C1934   1.282   .     A
O1078  Zn1163  1.947   .     S
O1079  Zn1166  1.947   .     S
O1079  C171    1.282   1_655 A
O1080  Zn1165  1.947   .     S
O1081  Zn1175  1.947   .     S
O1082  Zn1174  1.947   .     S
O1083  Zn1169  1.947   .     S
O1084  Zn1161  1.947   .     S
O1085  Zn1171  1.947   .     S
O1086  Zn1170  1.947   .     S
O1087  Zn1173  1.947   .     S
O1088  Zn1169  1.949   .     S
O1088  Zn1173  1.948   .     S
O1088  Zn1167  1.949   .     S
O1088  Zn2339  1.948   1_545 S
O1089  Zn1172  1.947   .     S
O1090  Zn1164  1.935   .     S
O1091  Zn1163  1.935   .     S
O1092  Zn1166  1.943   .     S
O1093  Zn1165  1.943   .     S
O1094  Zn1168  1.934   .     S
O1095  Zn1167  1.934   .     S
O1096  Zn1162  1.943   .     S
O1097  Zn1176  1.943   .     S
O1098  Zn1163  1.943   .     S
O1099  Zn1162  1.949   .     S
O1099  Zn1170  1.948   .     S
O1099  Zn1174  1.949   .     S
O1100  Zn1164  1.943   .     S
O1101  Zn1176  1.934   .     S
O1102  Zn1162  1.934   .     S
O1103  Zn1167  1.943   .     S
O1104  Zn1168  1.943   .     S
O1105  Zn1165  1.935   .     S
O1106  Zn1166  1.935   .     S
O1107  Zn583   1.935   1_655 S
O1108  Zn1170  1.935   .     S
O1109  Zn2349  1.943   .     S
O1110  Zn1175  1.949   .     S
O1110  Zn1165  1.948   .     S
O1110  Zn1171  1.948   .     S
O1111  Zn1172  1.943   .     S
O1112  Zn1175  1.934   .     S
O1113  Zn586   1.934   1_655 S
O1114  Zn1169  1.943   .     S
O1115  Zn2337  1.943   .     S
O1116  Zn582   1.943   1_655 S
O1117  Zn1171  1.943   .     S
O1118  Zn1161  1.934   .     S
O1119  Zn2345  1.934   .     S
O1120  Zn1174  1.943   .     S
O1121  Zn1168  1.947   .     S
O1121  C1933   1.282   .     S
O1122  Zn587   1.943   1_655 S
O1123  Zn2348  1.935   .     S
O1124  Zn1173  1.935   .     S
O1132  Zn1167  1.947   .     S
O1143  Zn1162  1.947   .     S
O1154  Zn1176  1.947   .     S
O1154  C172    1.282   1_655 S
O1160  Zn1164  1.947   .     S
Zn1161 O2291   1.943   1_545 S
Zn1163 O2264   1.948   .     S
Zn1166 O511    1.948   1_655 S
Zn1168 O2253   1.949   .     S
Zn1169 O2295   1.934   1_545 S
Zn1172 O2299   1.935   1_545 S
Zn1173 O2285   1.943   1_545 S
Zn1176 O522    1.949   1_655 S
C1177  H1567   1.085   .     S
C1177  C1180   1.393   .     A
C1177  C1843   1.403   .     S
C1178  C1190   1.393   .     A
C1178  H1577   1.084   .     S
C1178  C135    1.403   1_565 S
C1179  C1387   1.393   .     A
C1179  C1330   1.402   .     A
C1179  C1214   1.411   .     A
C1180  C1331   1.402   .     A
C1180  C1798   1.411   .     S
C1181  C1212   1.411   .     A
C1181  C1288   1.393   .     A
C1181  C1333   1.402   .     A
C1182  C1213   1.411   .     A
C1182  C1334   1.402   .     A
C1182  C1332   1.393   .     A
C1183  C1335   1.402   .     A
C1183  C1343   1.393   .     A
C1183  C38     1.411   1_565 S
C1184  C1211   1.393   .     A
C1184  C1336   1.402   .     A
C1184  C39     1.411   1_565 S
C1185  C1222   1.393   .     A
C1185  C1337   1.402   .     A
C1185  C1216   1.411   .     A
C1186  C1338   1.402   .     A
C1186  C1217   1.411   .     A
C1186  C1233   1.393   .     A
C1187  C1339   1.402   .     A
C1187  C1244   1.393   .     A
C1187  C1806   1.411   1_455 S
C1188  C1398   1.393   .     A
C1188  C1340   1.402   .     A
C1188  C1215   1.411   .     A
C1189  H1578   1.084   .     S
C1189  C1191   1.393   .     A
C1189  C1910   1.403   1_455 S
C1190  C1341   1.402   .     A
C1190  C40     1.411   1_565 S
C1191  C1342   1.402   .     A
C1191  C1805   1.411   1_455 S
C1192  C1344   1.402   .     A
C1192  C1200   1.393   .     A
C1192  C1218   1.411   .     A
C1193  C1360   1.464   .     S
C1193  C1388   1.416   .     A
C1193  C1390   1.416   .     A
C1194  C1386   1.412   .     A
C1194  C1361   1.460   .     S
C1194  C1389   1.412   .     A
C1195  C1353   1.449   .     S
C1195  C1385   1.406   .     A
C1195  C1392   1.406   .     A
C1196  C1391   1.415   .     A
C1196  C1355   1.459   .     S
C1196  C1384   1.411   .     A
C1197  C1356   1.464   .     S
C1197  C1394   1.416   .     A
C1197  C1383   1.416   .     A
C1198  C1357   1.457   .     S
C1198  C1382   1.409   .     A
C1198  C1393   1.409   .     A
C1199  C1358   1.449   .     S
C1199  C1396   1.406   .     A
C1199  C1381   1.406   .     A
C1200  C1326   1.403   .     A
C1200  H1579   1.085   .     S
C1201  C1380   1.415   .     A
C1201  C1395   1.411   .     A
C1201  C1359   1.459   .     S
C1202  C1379   1.407   .     A
C1202  C1399   1.406   .     A
C1202  C1369   1.450   .     S
C1203  C1378   1.416   .     A
C1203  C1397   1.416   .     A
C1203  C1370   1.461   .     S
C1204  C1377   1.417   .     A
C1204  C1362   1.464   .     S
C1204  C1401   1.416   .     A
C1205  C1375   1.408   .     A
C1205  C1400   1.408   .     A
C1205  C1363   1.457   .     S
C1206  C1403   1.407   .     A
C1206  C1374   1.406   .     A
C1206  C1364   1.450   .     S
C1207  C1366   1.461   .     S
C1207  C1373   1.416   .     A
C1207  C1402   1.416   .     A
C1208  C1372   1.414   .     A
C1208  C1405   1.414   .     A
C1208  C1367   1.462   .     S
C1209  C1404   1.408   .     A
C1209  C1368   1.457   .     S
C1209  C1371   1.408   .     A
C1210  C1212   1.401   .     A
C1210  C1406   1.411   .     A
C1210  C1768   1.411   1_455 S
C1211  H1580   1.085   .     S
C1211  C124    1.403   1_565 S
C1212  C1995   1.411   1_455 S
C1213  C1214   1.401   .     A
C1215  C1216   1.401   1_556 S
C1216  C1215   1.401   1_554 S
C1217  C1779   1.411   .     S
C1217  C1218   1.401   1_556 S
C1218  C1775   1.411   .     S
C1218  C1217   1.401   1_554 S
C1219  O1713   1.412   .     S
C1219  H1498   1.115   .     S
C1219  H1487   1.115   .     S
C1219  C44     1.527   1_565 S
C1220  H1509   1.111   .     S
C1220  C1221   1.526   .     S
C1221  H1532   1.111   .     S
C1221  H1554   1.110   .     S
C1221  H1543   1.109   .     S
C1222  H1581   1.084   .     S
C1222  C1311   1.403   .     A
C1223  H1576   1.117   .     S
C1223  H1565   1.111   .     S
C1223  O1714   1.418   .     S
C1223  C1224   1.532   .     S
C1224  H1584   1.111   .     S
C1224  H1585   1.111   .     S
C1224  C1225   1.526   .     S
C1225  H1586   1.111   .     S
C1225  H1587   1.110   .     S
C1225  H1589   1.111   .     S
C1226  O1715   1.419   .     S
C1226  H1591   1.117   .     S
C1226  C1227   1.532   .     S
C1226  H1590   1.111   .     S
C1227  H1593   1.108   .     S
C1227  C1228   1.526   .     S
C1227  H1592   1.112   .     S
C1228  H1596   1.110   .     S
C1228  H1595   1.111   .     S
C1228  H1594   1.110   .     S
C1229  H1597   1.115   .     S
C1229  O1716   1.411   .     S
C1229  C1230   1.528   .     S
C1229  H1598   1.115   .     S
C1230  H1600   1.110   .     S
C1230  C1231   1.525   .     S
C1230  H1601   1.112   .     S
C1231  H1603   1.111   .     S
C1231  H1604   1.111   .     S
C1231  H1602   1.111   .     S
C1232  O1717   1.412   .     S
C1232  H1606   1.115   .     S
C1232  H1605   1.115   .     S
C1233  H1582   1.084   .     S
C1233  C1322   1.403   .     A
C1234  C1235   1.526   .     S
C1234  H1607   1.111   .     S
C1234  C56     1.527   1_565 S
C1234  H432    1.112   1_565 S
C1235  H1611   1.109   .     S
C1235  H1609   1.111   .     S
C1235  H1612   1.110   .     S
C1236  H1614   1.117   .     S
C1236  C1237   1.532   .     S
C1236  H1613   1.111   .     S
C1236  O1718   1.419   .     S
C1237  H1615   1.111   .     S
C1237  C1238   1.527   .     S
C1237  H1616   1.110   .     S
C1238  H1619   1.111   .     S
C1238  H1617   1.111   .     S
C1238  H1618   1.110   .     S
C1239  H1622   1.117   .     S
C1239  C1240   1.532   .     S
C1239  H1620   1.111   .     S
C1239  O1719   1.419   .     S
C1240  H1623   1.112   .     S
C1240  C1241   1.526   .     S
C1240  H1624   1.108   .     S
C1241  H1625   1.110   .     S
C1241  H1627   1.110   .     S
C1241  H1626   1.111   .     S
C1242  C1243   1.533   .     S
C1242  H1628   1.111   .     S
C1242  H1629   1.114   .     S
C1242  O1721   1.416   .     S
C1243  C1245   1.526   .     S
C1243  H1630   1.112   .     S
C1243  H1631   1.111   .     S
C1244  H1583   1.085   .     S
C1244  C1914   1.403   1_455 S
C1245  H1633   1.111   .     S
C1245  H1635   1.111   .     S
C1245  H1634   1.110   .     S
C1246  H1637   1.118   .     S
C1246  H1636   1.111   .     S
C1246  C1247   1.533   .     S
C1246  O1722   1.419   .     S
C1247  H1638   1.112   .     S
C1247  C1248   1.526   .     S
C1247  H1639   1.110   .     S
C1248  H1641   1.110   .     S
C1248  H1642   1.110   .     S
C1248  H1640   1.110   .     S
C1249  C1250   1.532   .     S
C1249  H1645   1.115   .     S
C1249  H1644   1.111   .     S
C1249  O1723   1.416   .     S
C1250  H1647   1.111   .     S
C1250  H1646   1.112   .     S
C1250  C1251   1.526   .     S
C1251  H1648   1.111   .     S
C1251  H1650   1.111   .     S
C1251  H1649   1.110   .     S
C1252  H1652   1.115   .     S
C1252  O1724   1.412   .     S
C1252  H1651   1.115   .     S
C1252  C1841   1.529   1_455 S
C1253  H1653   1.111   .     S
C1253  C1254   1.526   .     S
C1253  C1840   1.529   .     S
C1253  H2243   1.112   .     S
C1254  H1658   1.109   .     S
C1254  H1656   1.110   .     S
C1254  H1657   1.109   .     S
C1255  C1354   1.403   .     A
C1255  C1765   1.403   1_455 S
C1255  C1347   1.459   .     S
C1256  H1660   1.117   .     S
C1256  O1725   1.419   .     S
C1256  H1659   1.111   .     S
C1256  C1257   1.532   .     S
C1257  H1662   1.110   .     S
C1257  H1661   1.111   .     S
C1257  C1258   1.527   .     S
C1258  H1664   1.110   .     S
C1258  H1411   1.111   .     S
C1258  H1663   1.111   .     S
C1259  H1413   1.113   .     S
C1259  O1726   1.414   .     S
C1259  C1260   1.527   .     S
C1259  H1412   1.115   .     S
C1260  H1415   1.112   .     S
C1260  C1261   1.526   .     S
C1260  H1414   1.111   .     S
C1261  H1417   1.111   .     S
C1261  H240    1.110   1_565 S
C1261  H242    1.110   1_565 S
C1262  O1727   1.416   .     S
C1262  H1419   1.111   .     S
C1262  C1263   1.532   .     S
C1262  H1420   1.115   .     S
C1263  H1423   1.111   .     S
C1263  C1264   1.526   .     S
C1263  H1422   1.112   .     S
C1264  H1424   1.111   .     S
C1264  H1425   1.110   .     S
C1264  H1426   1.111   .     S
C1265  H1427   1.111   .     S
C1265  H1428   1.119   .     S
C1265  C1267   1.530   .     S
C1265  O1728   1.419   .     S
C1266  C1348   1.460   .     S
C1266  C1288   1.403   .     A
C1266  C1953   1.403   1_455 S
C1267  H1429   1.112   .     S
C1267  H1430   1.110   .     S
C1267  C1856   1.526   .     S
C1268  H1433   1.110   .     S
C1268  H1434   1.111   .     S
C1268  C1855   1.526   1_455 S
C1268  H2019   1.111   1_455 S
C1269  C1270   1.532   .     S
C1269  O1729   1.419   .     S
C1269  H1435   1.111   .     S
C1269  H1436   1.117   .     S
C1270  H1438   1.110   .     S
C1270  C1271   1.527   .     S
C1270  H1437   1.111   .     S
C1271  H1441   1.111   .     S
C1271  H1440   1.110   .     S
C1271  H1439   1.111   .     S
C1272  H1442   1.111   .     S
C1272  H1444   1.119   .     S
C1272  O1730   1.419   .     S
C1272  C1273   1.530   .     S
C1273  H1446   1.110   .     S
C1273  C1274   1.526   .     S
C1273  H1445   1.112   .     S
C1274  H1447   1.111   .     S
C1274  H1448   1.110   .     S
C1274  H1449   1.111   .     S
C1275  H1450   1.111   .     S
C1275  O1732   1.419   .     S
C1275  C1276   1.532   .     S
C1275  H1451   1.117   .     S
C1276  H1453   1.110   .     S
C1276  C1278   1.527   .     S
C1276  H1452   1.111   .     S
C1277  C1345   1.460   .     S
C1277  C1332   1.403   .     A
C1278  H1456   1.110   .     S
C1278  H1457   1.111   .     S
C1278  H1455   1.111   .     S
C1279  H1458   1.111   .     S
C1279  C1280   1.533   .     S
C1279  H1459   1.118   .     S
C1279  O1733   1.419   .     S
C1280  C1281   1.526   .     S
C1280  H1461   1.110   .     S
C1280  H1460   1.112   .     S
C1281  H1464   1.110   .     S
C1281  H1463   1.110   .     S
C1281  H1462   1.110   .     S
C1282  C1283   1.532   .     S
C1282  O1734   1.416   .     S
C1282  H1466   1.111   .     S
C1282  H1467   1.115   .     S
C1283  C1284   1.526   .     S
C1283  H1469   1.111   .     S
C1283  H1468   1.112   .     S
C1284  H1471   1.110   .     S
C1284  H1470   1.111   .     S
C1284  H1472   1.111   .     S
C1285  O1735   1.412   .     S
C1285  H1474   1.115   .     S
C1285  C1286   1.529   .     S
C1285  H1473   1.115   .     S
C1286  C1287   1.526   .     S
C1286  H1477   1.112   .     S
C1286  H1475   1.111   .     S
C1287  H1480   1.109   .     S
C1287  H1478   1.110   .     S
C1287  H1479   1.109   .     S
C1288  H1568   1.084   .     S
C1289  C1387   1.403   .     A
C1289  C1346   1.459   .     S
C1290  O1736   1.419   .     S
C1290  C1291   1.532   .     S
C1290  H1482   1.117   .     S
C1290  H1481   1.111   .     S
C1291  H1484   1.110   .     S
C1291  C1292   1.527   .     S
C1291  H1483   1.111   .     S
C1292  H1485   1.111   .     S
C1292  H1486   1.110   .     S
C1292  H1488   1.111   .     S
C1293  O1737   1.414   .     S
C1293  H1489   1.115   .     S
C1293  C1294   1.527   .     S
C1293  H1490   1.113   .     S
C1294  H1491   1.111   .     S
C1294  H1492   1.112   .     S
C1294  C1295   1.526   .     S
C1295  H1493   1.110   .     S
C1295  H1494   1.111   .     S
C1295  H1495   1.110   .     S
C1296  O1738   1.416   .     S
C1296  C1297   1.532   .     S
C1296  H1497   1.115   .     S
C1296  H1496   1.111   .     S
C1297  H1500   1.111   .     S
C1297  H1499   1.112   .     S
C1297  C1298   1.526   .     S
C1298  H1502   1.110   .     S
C1298  H1503   1.111   .     S
C1298  H1501   1.111   .     S
C1299  H1504   1.111   .     S
C1299  C1301   1.532   .     S
C1299  H1505   1.117   .     S
C1299  O1739   1.419   .     S
C1300  C1351   1.459   .     S
C1300  C1398   1.403   .     A
C1301  H1507   1.108   .     S
C1301  C1302   1.526   .     S
C1301  H1506   1.112   .     S
C1302  H1511   1.110   .     S
C1302  H1510   1.110   .     S
C1302  H1508   1.111   .     S
C1303  H1513   1.115   .     S
C1303  O1740   1.411   .     S
C1303  H1512   1.115   .     S
C1303  C1304   1.528   .     S
C1304  C1305   1.526   .     S
C1304  H1515   1.112   .     S
C1304  H1514   1.110   .     S
C1305  H1516   1.111   .     S
C1305  H1518   1.111   .     S
C1305  H1517   1.111   .     S
C1306  H1519   1.115   .     S
C1306  C1307   1.527   .     S
C1306  H1522   1.115   .     S
C1306  O1741   1.412   .     S
C1307  H1523   1.111   .     S
C1307  H1524   1.112   .     S
C1307  C1308   1.526   .     S
C1308  H1527   1.110   .     S
C1308  H1526   1.109   .     S
C1308  H1525   1.111   .     S
C1309  O1743   1.419   .     S
C1309  H1529   1.117   .     S
C1309  H1528   1.111   .     S
C1309  C1310   1.532   .     S
C1310  H1531   1.110   .     S
C1310  H1530   1.111   .     S
C1310  C1312   1.527   .     S
C1311  C1352   1.460   .     S
C1312  H1534   1.110   .     S
C1312  H1533   1.111   .     S
C1312  H1535   1.111   .     S
C1313  O1744   1.419   .     S
C1313  H1537   1.117   .     S
C1313  H1536   1.111   .     S
C1313  C1314   1.532   .     S
C1314  H1538   1.112   .     S
C1314  C1315   1.526   .     S
C1314  H1539   1.108   .     S
C1315  H1542   1.110   .     S
C1315  H1540   1.110   .     S
C1315  H1541   1.111   .     S
C1316  C1317   1.533   .     S
C1316  H1544   1.111   .     S
C1316  O1745   1.416   .     S
C1316  H1545   1.114   .     S
C1317  H1546   1.112   .     S
C1317  C1318   1.526   .     S
C1317  H1547   1.111   .     S
C1318  H1548   1.111   .     S
C1318  H1549   1.110   .     S
C1318  H1550   1.111   .     S
C1319  C1320   1.527   .     S
C1319  H1551   1.115   .     S
C1319  O1746   1.412   .     S
C1319  H1552   1.115   .     S
C1320  C1321   1.526   .     S
C1320  H1553   1.111   .     S
C1320  H1555   1.112   .     S
C1321  H1557   1.109   .     S
C1321  H1558   1.110   .     S
C1321  H1556   1.111   .     S
C1322  C1349   1.460   .     S
C1322  C1777   1.403   .     S
C1323  C1324   1.532   .     S
C1323  H1560   1.117   .     S
C1323  O1747   1.418   .     S
C1323  H1559   1.111   .     S
C1324  H1562   1.111   .     S
C1324  H1561   1.111   .     S
C1324  C1325   1.526   .     S
C1325  H1564   1.110   .     S
C1325  H1563   1.111   .     S
C1325  H1566   1.111   .     S
C1326  C1350   1.459   .     S
C1326  C1832   1.403   .     S
C1327  C1406   1.402   .     A
C1327  C1333   1.394   .     A
C1327  H1409   1.084   .     S
C1328  C1407   1.402   .     A
C1328  C1331   1.394   .     A
C1328  H1520   1.084   .     S
C1329  C1408   1.402   .     A
C1329  C1335   1.394   .     A
C1329  H1588   1.084   .     S
C1330  C1334   1.394   .     A
C1330  H1599   1.084   .     S
C1331  H1610   1.084   .     S
C1332  H1569   1.084   .     S
C1333  H1621   1.084   .     S
C1334  H1632   1.084   .     S
C1335  H1643   1.084   .     S
C1336  H1654   1.084   .     S
C1336  C1341   1.394   1_556 S
C1337  H1410   1.084   .     S
C1337  C1340   1.394   1_554 S
C1338  H1421   1.084   .     S
C1338  C1344   1.394   1_556 S
C1339  H1432   1.084   .     S
C1339  C1342   1.394   1_554 S
C1340  H1443   1.084   .     S
C1340  C1337   1.394   1_556 S
C1341  H1454   1.084   .     S
C1341  C1336   1.394   1_554 S
C1342  H1465   1.084   .     S
C1342  C1339   1.394   1_556 S
C1343  H1570   1.085   .     S
C1343  C113    1.403   1_565 S
C1344  H1476   1.084   .     S
C1344  C1338   1.394   1_554 S
C1345  O1748   1.282   .     A
C1346  O1720   1.281   .     S
C1347  O2255   1.282   1_455 A
C1347  O1731   1.281   .     S
C1348  O1668   1.282   .     A
C1348  O2330   1.282   1_455 S
C1349  O2257   1.282   .     A
C1349  O2261   1.282   .     S
C1350  O2258   1.281   .     S
C1350  O2262   1.282   .     S
C1351  O1671   1.281   .     A
C1351  O1675   1.282   .     A
C1352  O1672   1.282   .     A
C1352  O1677   1.282   .     A
C1353  O1706   1.279   .     A
C1353  O1678   1.279   .     A
C1354  H1571   1.085   .     S
C1354  C1406   1.393   .     A
C1355  O1707   1.284   .     A
C1355  O1679   1.281   .     A
C1356  O1680   1.282   .     A
C1356  O1704   1.282   .     A
C1357  O1681   1.280   .     A
C1357  O1705   1.280   .     A
C1358  O1711   1.279   .     A
C1358  O1682   1.279   .     A
C1359  O1683   1.284   .     A
C1359  O1712   1.281   .     A
C1360  O1684   1.282   .     A
C1360  O1708   1.282   .     A
C1361  O1685   1.281   .     A
C1361  O1710   1.281   .     A
C1362  O1697   1.282   .     A
C1362  O1686   1.282   .     A
C1363  O1688   1.280   .     A
C1363  O1699   1.280   .     A
C1364  O1689   1.281   .     A
C1364  O1695   1.279   .     A
C1365  C1407   1.393   .     A
C1365  H1572   1.084   .     S
C1365  C1854   1.403   .     S
C1366  O1696   1.283   .     A
C1366  O1690   1.283   .     A
C1367  O1702   1.282   .     A
C1367  O1691   1.282   .     A
C1368  O1692   1.280   .     A
C1368  O1703   1.280   .     A
C1369  O1700   1.281   .     A
C1369  O1693   1.279   .     A
C1370  O1701   1.283   .     A
C1370  O1694   1.283   .     A
C1371  O1713   1.384   .     S
C1371  C1388   1.392   .     A
C1372  C1386   1.388   .     A
C1372  O1714   1.385   .     S
C1373  O1715   1.387   .     S
C1373  C1385   1.392   .     A
C1374  O1716   1.384   .     S
C1374  C1384   1.394   .     A
C1375  O1717   1.384   .     S
C1375  C1383   1.392   .     A
C1376  C1408   1.393   .     A
C1376  H1573   1.084   .     S
C1376  C101    1.403   1_565 S
C1377  C1382   1.391   .     A
C1377  O1718   1.386   .     S
C1378  O1719   1.387   .     S
C1378  C1381   1.392   .     A
C1379  O1721   1.387   .     S
C1379  C1380   1.392   .     A
C1380  O1722   1.386   .     S
C1381  O1723   1.386   .     S
C1382  O1724   1.385   .     S
C1383  O1725   1.386   .     S
C1384  O1726   1.386   .     S
C1385  O1727   1.386   .     S
C1386  O1728   1.386   .     S
C1387  H1574   1.084   .     S
C1388  O1729   1.386   .     S
C1389  C1405   1.388   .     A
C1389  O1730   1.386   .     S
C1390  O1732   1.386   .     S
C1390  C1404   1.392   .     A
C1391  C1403   1.392   .     A
C1391  O1733   1.386   .     S
C1392  C1402   1.392   .     A
C1392  O1734   1.386   .     S
C1393  O1735   1.385   .     S
C1393  C1401   1.391   .     A
C1394  O1736   1.386   .     S
C1394  C1400   1.392   .     A
C1395  O1737   1.386   .     S
C1395  C1399   1.394   .     A
C1396  O1738   1.386   .     S
C1396  C1397   1.392   .     A
C1397  O1739   1.387   .     S
C1398  H1575   1.084   .     S
C1399  O1740   1.384   .     S
C1400  O1741   1.384   .     S
C1401  O1743   1.386   .     S
C1402  O1744   1.387   .     S
C1403  O1745   1.387   .     S
C1404  O1746   1.384   .     S
C1405  O1747   1.385   .     S
C1407  C1800   1.411   .     S
C1408  C37     1.411   1_565 S
H1431  C1856   1.111   .     S
H1521  C44     1.112   1_565 S
H1655  C1841   1.112   1_455 S
O1665  Zn1760  1.948   .     S
O1665  Zn1752  1.948   .     S
O1665  Zn1749  1.949   .     S
O1666  C170    1.282   1_565 A
O1666  Zn1751  1.947   .     S
O1667  Zn1754  1.947   .     S
O1667  C1935   1.282   .     A
O1668  Zn1753  1.947   .     S
O1669  C1937   1.282   1_455 A
O1669  Zn1763  1.947   .     S
O1670  Zn1762  1.947   .     S
O1670  C1938   1.281   1_455 S
O1671  Zn1757  1.947   .     S
O1672  Zn1749  1.947   .     S
O1673  C1937   1.282   1_455 S
O1673  Zn1759  1.947   .     S
O1674  Zn1758  1.947   .     S
O1674  C1938   1.282   1_455 S
O1675  Zn1761  1.947   .     S
O1676  Zn1757  1.949   .     S
O1676  Zn1761  1.948   .     S
O1676  Zn1755  1.949   .     S
O1677  Zn1760  1.947   .     S
O1678  Zn1752  1.935   .     S
O1679  Zn1751  1.935   .     S
O1680  Zn1754  1.943   .     S
O1681  Zn1753  1.943   .     S
O1682  Zn1756  1.934   .     S
O1683  Zn1755  1.934   .     S
O1684  Zn1750  1.943   .     S
O1685  Zn1764  1.943   .     S
O1686  Zn1751  1.943   .     S
O1687  Zn1750  1.949   .     S
O1687  Zn1758  1.948   .     S
O1687  Zn1762  1.949   .     S
O1687  Zn2342  1.948   1_455 S
O1688  Zn1752  1.943   .     S
O1689  Zn1764  1.934   .     S
O1690  Zn1750  1.934   .     S
O1691  Zn1755  1.943   .     S
O1692  Zn1756  1.943   .     S
O1693  Zn1753  1.935   .     S
O1694  Zn1754  1.935   .     S
O1695  Zn2347  1.935   .     S
O1696  Zn1758  1.935   .     S
O1697  Zn585   1.943   1_565 S
O1698  Zn1763  1.949   .     S
O1698  Zn1753  1.948   .     S
O1698  Zn1759  1.948   .     S
O1698  Zn2352  1.949   1_455 S
O1699  Zn1760  1.943   .     S
O1700  Zn1763  1.934   .     S
O1701  Zn2350  1.934   .     S
O1702  Zn1757  1.943   .     S
O1703  Zn573   1.943   1_565 S
O1704  Zn2346  1.943   .     S
O1705  Zn1759  1.943   .     S
O1706  Zn1749  1.934   .     S
O1707  Zn581   1.934   1_565 S
O1708  Zn1762  1.943   .     S
O1709  Zn1756  1.947   .     S
O1709  C169    1.282   1_565 S
O1710  Zn2351  1.943   .     S
O1711  Zn584   1.935   1_565 S
O1712  Zn1761  1.935   .     S
O1720  Zn1755  1.947   .     S
O1731  Zn1750  1.947   .     S
O1742  Zn1764  1.947   .     S
O1742  C1936   1.282   .     S
O1748  Zn1752  1.947   .     S
Zn1751 O500    1.948   1_565 S
Zn1754 O2275   1.948   .     S
Zn1756 O489    1.949   1_565 S
Zn1758 O2292   1.943   1_455 S
Zn1759 O2283   1.935   1_455 S
Zn1762 O2289   1.934   1_455 S
Zn1763 O2298   1.943   1_455 S
Zn1764 O2286   1.949   .     S
C1765  H2155   1.085   .     S
C1765  C1768   1.393   .     A
C1765  C1255   1.403   1_655 S
C1766  C1778   1.393   .     A
C1766  H2165   1.084   .     S
C1766  C723    1.403   1_565 S
C1767  C1975   1.393   .     A
C1767  C1918   1.402   .     A
C1767  C1802   1.411   .     A
C1768  C1919   1.402   .     A
C1768  C1210   1.411   1_655 S
C1769  C1800   1.411   .     A
C1769  C1876   1.393   .     A
C1769  C1921   1.402   .     A
C1770  C1801   1.411   .     A
C1770  C1922   1.402   .     A
C1770  C1920   1.393   .     A
C1771  C1923   1.402   .     A
C1771  C1931   1.393   .     A
C1771  C626    1.411   1_565 S
C1772  C1799   1.393   .     A
C1772  C1924   1.402   .     A
C1772  C627    1.411   1_565 S
C1773  C1810   1.393   .     A
C1773  C1925   1.402   .     A
C1773  C1804   1.411   .     A
C1774  C1926   1.402   .     A
C1774  C1805   1.411   .     A
C1774  C1821   1.393   .     A
C1775  C1927   1.402   .     A
C1775  C1832   1.393   .     A
C1776  C1986   1.393   .     A
C1776  C1928   1.402   .     A
C1776  C1803   1.411   .     A
C1777  H2166   1.084   .     S
C1777  C1779   1.393   .     A
C1778  C1929   1.402   .     A
C1778  C628    1.411   1_565 S
C1779  C1930   1.402   .     A
C1780  C1932   1.402   .     A
C1780  C1788   1.393   .     A
C1780  C1806   1.411   .     A
C1781  C1948   1.464   .     S
C1781  C1976   1.416   .     A
C1781  C1978   1.416   .     A
C1782  C1974   1.412   .     A
C1782  C1949   1.460   .     S
C1782  C1977   1.412   .     A
C1783  C1941   1.449   .     S
C1783  C1973   1.406   .     A
C1783  C1980   1.406   .     A
C1784  C1979   1.415   .     A
C1784  C1943   1.459   .     S
C1784  C1972   1.411   .     A
C1785  C1944   1.464   .     S
C1785  C1982   1.416   .     A
C1785  C1971   1.416   .     A
C1786  C1945   1.457   .     S
C1786  C1970   1.409   .     A
C1786  C1981   1.409   .     A
C1787  C1946   1.449   .     S
C1787  C1984   1.406   .     A
C1787  C1969   1.406   .     A
C1788  C1914   1.403   .     A
C1788  H2167   1.085   .     S
C1789  C1968   1.415   .     A
C1789  C1983   1.411   .     A
C1789  C1947   1.459   .     S
C1790  C1967   1.407   .     A
C1790  C1987   1.406   .     A
C1790  C1957   1.450   .     S
C1791  C1966   1.416   .     A
C1791  C1985   1.416   .     A
C1791  C1958   1.461   .     S
C1792  C1965   1.417   .     A
C1792  C1950   1.464   .     S
C1792  C1989   1.416   .     A
C1793  C1963   1.408   .     A
C1793  C1988   1.408   .     A
C1793  C1951   1.457   .     S
C1794  C1991   1.407   .     A
C1794  C1962   1.406   .     A
C1794  C1952   1.450   .     S
C1795  C1954   1.461   .     S
C1795  C1961   1.416   .     A
C1795  C1990   1.416   .     A
C1796  C1960   1.414   .     A
C1796  C1993   1.414   .     A
C1796  C1955   1.462   .     S
C1797  C1992   1.408   .     A
C1797  C1956   1.457   .     S
C1797  C1959   1.408   .     A
C1798  C1800   1.401   .     A
C1798  C1994   1.411   .     A
C1799  H2168   1.085   .     S
C1799  C712    1.403   1_565 S
C1801  C1802   1.401   .     A
C1803  C1804   1.401   1_556 S
C1804  C1803   1.401   1_554 S
C1805  C1191   1.411   1_655 S
C1805  C1806   1.401   1_556 S
C1806  C1187   1.411   1_655 S
C1806  C1805   1.401   1_554 S
C1807  O2301   1.412   .     S
C1807  H2086   1.115   .     S
C1807  H2075   1.115   .     S
C1807  C632    1.527   1_565 S
C1808  H2097   1.111   .     S
C1808  C1809   1.526   .     S
C1809  H2120   1.111   .     S
C1809  H2142   1.110   .     S
C1809  H2131   1.109   .     S
C1810  H2169   1.084   .     S
C1810  C1899   1.403   .     A
C1811  H2164   1.117   .     S
C1811  H2153   1.111   .     S
C1811  O2302   1.418   .     S
C1811  C1812   1.532   .     S
C1812  H2172   1.111   .     S
C1812  H2173   1.111   .     S
C1812  C1813   1.526   .     S
C1813  H2174   1.111   .     S
C1813  H2175   1.110   .     S
C1813  H2177   1.111   .     S
C1814  O2303   1.419   .     S
C1814  H2179   1.117   .     S
C1814  C1815   1.532   .     S
C1814  H2178   1.111   .     S
C1815  H2181   1.108   .     S
C1815  C1816   1.526   .     S
C1815  H2180   1.112   .     S
C1816  H2184   1.110   .     S
C1816  H2183   1.111   .     S
C1816  H2182   1.110   .     S
C1817  H2185   1.115   .     S
C1817  O2304   1.411   .     S
C1817  C1818   1.528   .     S
C1817  H2186   1.115   .     S
C1818  H2188   1.110   .     S
C1818  C1819   1.525   .     S
C1818  H2189   1.112   .     S
C1819  H2191   1.111   .     S
C1819  H2192   1.111   .     S
C1819  H2190   1.111   .     S
C1820  O2305   1.412   .     S
C1820  H2194   1.115   .     S
C1820  H2193   1.115   .     S
C1821  H2170   1.084   .     S
C1821  C1910   1.403   .     A
C1822  C1823   1.526   .     S
C1822  H2195   1.111   .     S
C1822  C644    1.527   1_565 S
C1822  H1020   1.112   1_565 S
C1823  H2199   1.109   .     S
C1823  H2197   1.111   .     S
C1823  H2200   1.110   .     S
C1824  H2202   1.117   .     S
C1824  C1825   1.532   .     S
C1824  H2201   1.111   .     S
C1824  O2306   1.419   .     S
C1825  H2203   1.111   .     S
C1825  C1826   1.527   .     S
C1825  H2204   1.110   .     S
C1826  H2207   1.111   .     S
C1826  H2205   1.111   .     S
C1826  H2206   1.110   .     S
C1827  H2210   1.117   .     S
C1827  C1828   1.532   .     S
C1827  H2208   1.111   .     S
C1827  O2307   1.419   .     S
C1828  H2211   1.112   .     S
C1828  C1829   1.526   .     S
C1828  H2212   1.108   .     S
C1829  H2213   1.110   .     S
C1829  H2215   1.110   .     S
C1829  H2214   1.111   .     S
C1830  C1831   1.533   .     S
C1830  H2216   1.111   .     S
C1830  H2217   1.114   .     S
C1830  O2309   1.416   .     S
C1831  C1833   1.526   .     S
C1831  H2218   1.112   .     S
C1831  H2219   1.111   .     S
C1832  H2171   1.085   .     S
C1833  H2221   1.111   .     S
C1833  H2223   1.111   .     S
C1833  H2222   1.110   .     S
C1834  H2225   1.118   .     S
C1834  H2224   1.111   .     S
C1834  C1835   1.533   .     S
C1834  O2310   1.419   .     S
C1835  H2226   1.112   .     S
C1835  C1836   1.526   .     S
C1835  H2227   1.110   .     S
C1836  H2229   1.110   .     S
C1836  H2230   1.110   .     S
C1836  H2228   1.110   .     S
C1837  C1838   1.532   .     S
C1837  H2233   1.115   .     S
C1837  H2232   1.111   .     S
C1837  O2311   1.416   .     S
C1838  H2235   1.111   .     S
C1838  H2234   1.112   .     S
C1838  C1839   1.526   .     S
C1839  H2236   1.111   .     S
C1839  H2238   1.111   .     S
C1839  H2237   1.110   .     S
C1840  H2240   1.115   .     S
C1840  O2312   1.412   .     S
C1840  H2239   1.115   .     S
C1841  H2241   1.111   .     S
C1841  C1842   1.526   .     S
C1841  C1252   1.529   1_655 S
C1841  H1655   1.112   1_655 S
C1842  H2246   1.109   .     S
C1842  H2244   1.110   .     S
C1842  H2245   1.109   .     S
C1843  C1942   1.403   .     A
C1843  C1935   1.459   .     S
C1844  H2248   1.117   .     S
C1844  O2313   1.419   .     S
C1844  H2247   1.111   .     S
C1844  C1845   1.532   .     S
C1845  H2250   1.110   .     S
C1845  H2249   1.111   .     S
C1845  C1846   1.527   .     S
C1846  H2252   1.110   .     S
C1846  H1999   1.111   .     S
C1846  H2251   1.111   .     S
C1847  H2001   1.113   .     S
C1847  O2314   1.414   .     S
C1847  C1848   1.527   .     S
C1847  H2000   1.115   .     S
C1848  H2003   1.112   .     S
C1848  C1849   1.526   .     S
C1848  H2002   1.111   .     S
C1849  H2005   1.111   .     S
C1849  H828    1.110   1_565 S
C1849  H830    1.110   1_565 S
C1850  O2315   1.416   .     S
C1850  H2007   1.111   .     S
C1850  C1851   1.532   .     S
C1850  H2008   1.115   .     S
C1851  H2011   1.111   .     S
C1851  C1852   1.526   .     S
C1851  H2010   1.112   .     S
C1852  H2012   1.111   .     S
C1852  H2013   1.110   .     S
C1852  H2014   1.111   .     S
C1853  H2015   1.111   .     S
C1853  H2016   1.119   .     S
C1853  C1855   1.530   .     S
C1853  O2316   1.419   .     S
C1854  C1936   1.460   .     S
C1854  C1876   1.403   .     A
C1855  H2017   1.112   .     S
C1855  H2018   1.110   .     S
C1855  C1268   1.526   1_655 S
C1856  H2021   1.110   .     S
C1856  H2022   1.111   .     S
C1857  C1858   1.532   .     S
C1857  O2317   1.419   .     S
C1857  H2023   1.111   .     S
C1857  H2024   1.117   .     S
C1858  H2026   1.110   .     S
C1858  C1859   1.527   .     S
C1858  H2025   1.111   .     S
C1859  H2029   1.111   .     S
C1859  H2028   1.110   .     S
C1859  H2027   1.111   .     S
C1860  H2030   1.111   .     S
C1860  H2032   1.119   .     S
C1860  O2318   1.419   .     S
C1860  C1861   1.530   .     S
C1861  H2034   1.110   .     S
C1861  C1862   1.526   .     S
C1861  H2033   1.112   .     S
C1862  H2035   1.111   .     S
C1862  H2036   1.110   .     S
C1862  H2037   1.111   .     S
C1863  H2038   1.111   .     S
C1863  O2320   1.419   .     S
C1863  C1864   1.532   .     S
C1863  H2039   1.117   .     S
C1864  H2041   1.110   .     S
C1864  C1866   1.527   .     S
C1864  H2040   1.111   .     S
C1865  C1933   1.460   .     S
C1865  C1920   1.403   .     A
C1866  H2044   1.110   .     S
C1866  H2045   1.111   .     S
C1866  H2043   1.111   .     S
C1867  H2046   1.111   .     S
C1867  C1868   1.533   .     S
C1867  H2047   1.118   .     S
C1867  O2321   1.419   .     S
C1868  C1869   1.526   .     S
C1868  H2049   1.110   .     S
C1868  H2048   1.112   .     S
C1869  H2052   1.110   .     S
C1869  H2051   1.110   .     S
C1869  H2050   1.110   .     S
C1870  C1871   1.532   .     S
C1870  O2322   1.416   .     S
C1870  H2054   1.111   .     S
C1870  H2055   1.115   .     S
C1871  C1872   1.526   .     S
C1871  H2057   1.111   .     S
C1871  H2056   1.112   .     S
C1872  H2059   1.110   .     S
C1872  H2058   1.111   .     S
C1872  H2060   1.111   .     S
C1873  O2323   1.412   .     S
C1873  H2062   1.115   .     S
C1873  C1874   1.529   .     S
C1873  H2061   1.115   .     S
C1874  C1875   1.526   .     S
C1874  H2065   1.112   .     S
C1874  H2063   1.111   .     S
C1875  H2068   1.109   .     S
C1875  H2066   1.110   .     S
C1875  H2067   1.109   .     S
C1876  H2156   1.084   .     S
C1877  C1975   1.403   .     A
C1877  C1934   1.459   .     S
C1878  O2324   1.419   .     S
C1878  C1879   1.532   .     S
C1878  H2070   1.117   .     S
C1878  H2069   1.111   .     S
C1879  H2072   1.110   .     S
C1879  C1880   1.527   .     S
C1879  H2071   1.111   .     S
C1880  H2073   1.111   .     S
C1880  H2074   1.110   .     S
C1880  H2076   1.111   .     S
C1881  O2325   1.414   .     S
C1881  H2077   1.115   .     S
C1881  C1882   1.527   .     S
C1881  H2078   1.113   .     S
C1882  H2079   1.111   .     S
C1882  H2080   1.112   .     S
C1882  C1883   1.526   .     S
C1883  H2081   1.110   .     S
C1883  H2082   1.111   .     S
C1883  H2083   1.110   .     S
C1884  O2326   1.416   .     S
C1884  C1885   1.532   .     S
C1884  H2085   1.115   .     S
C1884  H2084   1.111   .     S
C1885  H2088   1.111   .     S
C1885  H2087   1.112   .     S
C1885  C1886   1.526   .     S
C1886  H2090   1.110   .     S
C1886  H2091   1.111   .     S
C1886  H2089   1.111   .     S
C1887  H2092   1.111   .     S
C1887  C1889   1.532   .     S
C1887  H2093   1.117   .     S
C1887  O2327   1.419   .     S
C1888  C1939   1.459   .     S
C1888  C1986   1.403   .     A
C1889  H2095   1.108   .     S
C1889  C1890   1.526   .     S
C1889  H2094   1.112   .     S
C1890  H2099   1.110   .     S
C1890  H2098   1.110   .     S
C1890  H2096   1.111   .     S
C1891  H2101   1.115   .     S
C1891  O2328   1.411   .     S
C1891  H2100   1.115   .     S
C1891  C1892   1.528   .     S
C1892  C1893   1.526   .     S
C1892  H2103   1.112   .     S
C1892  H2102   1.110   .     S
C1893  H2104   1.111   .     S
C1893  H2106   1.111   .     S
C1893  H2105   1.111   .     S
C1894  H2107   1.115   .     S
C1894  C1895   1.527   .     S
C1894  H2110   1.115   .     S
C1894  O2329   1.412   .     S
C1895  H2111   1.111   .     S
C1895  H2112   1.112   .     S
C1895  C1896   1.526   .     S
C1896  H2115   1.110   .     S
C1896  H2114   1.109   .     S
C1896  H2113   1.111   .     S
C1897  O2331   1.419   .     S
C1897  H2117   1.117   .     S
C1897  H2116   1.111   .     S
C1897  C1898   1.532   .     S
C1898  H2119   1.110   .     S
C1898  H2118   1.111   .     S
C1898  C1900   1.527   .     S
C1899  C1940   1.460   .     S
C1900  H2122   1.110   .     S
C1900  H2121   1.111   .     S
C1900  H2123   1.111   .     S
C1901  O2332   1.419   .     S
C1901  H2125   1.117   .     S
C1901  H2124   1.111   .     S
C1901  C1902   1.532   .     S
C1902  H2126   1.112   .     S
C1902  C1903   1.526   .     S
C1902  H2127   1.108   .     S
C1903  H2130   1.110   .     S
C1903  H2128   1.110   .     S
C1903  H2129   1.111   .     S
C1904  C1905   1.533   .     S
C1904  H2132   1.111   .     S
C1904  O2333   1.416   .     S
C1904  H2133   1.114   .     S
C1905  H2134   1.112   .     S
C1905  C1906   1.526   .     S
C1905  H2135   1.111   .     S
C1906  H2136   1.111   .     S
C1906  H2137   1.110   .     S
C1906  H2138   1.111   .     S
C1907  C1908   1.527   .     S
C1907  H2139   1.115   .     S
C1907  O2334   1.412   .     S
C1907  H2140   1.115   .     S
C1908  C1909   1.526   .     S
C1908  H2141   1.111   .     S
C1908  H2143   1.112   .     S
C1909  H2145   1.109   .     S
C1909  H2146   1.110   .     S
C1909  H2144   1.111   .     S
C1910  C1937   1.460   .     S
C1910  C1189   1.403   1_655 S
C1911  C1912   1.532   .     S
C1911  H2148   1.117   .     S
C1911  O2335   1.418   .     S
C1911  H2147   1.111   .     S
C1912  H2150   1.111   .     S
C1912  H2149   1.111   .     S
C1912  C1913   1.526   .     S
C1913  H2152   1.110   .     S
C1913  H2151   1.111   .     S
C1913  H2154   1.111   .     S
C1914  C1938   1.459   .     S
C1914  C1244   1.403   1_655 S
C1915  C1994   1.402   .     A
C1915  C1921   1.394   .     A
C1915  H1997   1.084   .     S
C1916  C1995   1.402   .     A
C1916  C1919   1.394   .     A
C1916  H2108   1.084   .     S
C1917  C1996   1.402   .     A
C1917  C1923   1.394   .     A
C1917  H2176   1.084   .     S
C1918  C1922   1.394   .     A
C1918  H2187   1.084   .     S
C1919  H2198   1.084   .     S
C1920  H2157   1.084   .     S
C1921  H2209   1.084   .     S
C1922  H2220   1.084   .     S
C1923  H2231   1.084   .     S
C1924  H2242   1.084   .     S
C1924  C1929   1.394   1_556 S
C1925  H1998   1.084   .     S
C1925  C1928   1.394   1_554 S
C1926  H2009   1.084   .     S
C1926  C1932   1.394   1_556 S
C1927  H2020   1.084   .     S
C1927  C1930   1.394   1_554 S
C1928  H2031   1.084   .     S
C1928  C1925   1.394   1_556 S
C1929  H2042   1.084   .     S
C1929  C1924   1.394   1_554 S
C1930  H2053   1.084   .     S
C1930  C1927   1.394   1_556 S
C1931  H2158   1.085   .     S
C1931  C701    1.403   1_565 S
C1932  H2064   1.084   .     S
C1932  C1926   1.394   1_554 S
C1933  O2336   1.282   .     A
C1934  O2308   1.281   .     S
C1935  O2319   1.281   .     S
C1936  O2256   1.282   .     A
C1937  O1669   1.282   1_655 A
C1937  O1673   1.282   1_655 S
C1938  O1670   1.281   1_655 S
C1938  O1674   1.282   1_655 S
C1939  O2259   1.281   .     A
C1939  O2263   1.282   .     A
C1940  O2260   1.282   .     A
C1940  O2265   1.282   .     A
C1941  O2294   1.279   .     A
C1941  O2266   1.279   .     A
C1942  H2159   1.085   .     S
C1942  C1994   1.393   .     A
C1943  O2295   1.284   .     A
C1943  O2267   1.281   .     A
C1944  O2268   1.282   .     A
C1944  O2292   1.282   .     A
C1945  O2269   1.280   .     A
C1945  O2293   1.280   .     A
C1946  O2299   1.279   .     A
C1946  O2270   1.279   .     A
C1947  O2271   1.284   .     A
C1947  O2300   1.281   .     A
C1948  O2272   1.282   .     A
C1948  O2296   1.282   .     A
C1949  O2273   1.281   .     A
C1949  O2298   1.281   .     A
C1950  O2285   1.282   .     A
C1950  O2274   1.282   .     A
C1951  O2276   1.280   .     A
C1951  O2287   1.280   .     A
C1952  O2277   1.281   .     A
C1952  O2283   1.279   .     A
C1953  C1995   1.393   .     A
C1953  H2160   1.084   .     S
C1953  C1266   1.403   1_655 S
C1954  O2284   1.283   .     A
C1954  O2278   1.283   .     A
C1955  O2290   1.282   .     A
C1955  O2279   1.282   .     A
C1956  O2280   1.280   .     A
C1956  O2291   1.280   .     A
C1957  O2288   1.281   .     A
C1957  O2281   1.279   .     A
C1958  O2289   1.283   .     A
C1958  O2282   1.283   .     A
C1959  O2301   1.384   .     S
C1959  C1976   1.392   .     A
C1960  C1974   1.388   .     A
C1960  O2302   1.385   .     S
C1961  O2303   1.387   .     S
C1961  C1973   1.392   .     A
C1962  O2304   1.384   .     S
C1962  C1972   1.394   .     A
C1963  O2305   1.384   .     S
C1963  C1971   1.392   .     A
C1964  C1996   1.393   .     A
C1964  H2161   1.084   .     S
C1964  C689    1.403   1_565 S
C1965  C1970   1.391   .     A
C1965  O2306   1.386   .     S
C1966  O2307   1.387   .     S
C1966  C1969   1.392   .     A
C1967  O2309   1.387   .     S
C1967  C1968   1.392   .     A
C1968  O2310   1.386   .     S
C1969  O2311   1.386   .     S
C1970  O2312   1.385   .     S
C1971  O2313   1.386   .     S
C1972  O2314   1.386   .     S
C1973  O2315   1.386   .     S
C1974  O2316   1.386   .     S
C1975  H2162   1.084   .     S
C1976  O2317   1.386   .     S
C1977  C1993   1.388   .     A
C1977  O2318   1.386   .     S
C1978  O2320   1.386   .     S
C1978  C1992   1.392   .     A
C1979  C1991   1.392   .     A
C1979  O2321   1.386   .     S
C1980  C1990   1.392   .     A
C1980  O2322   1.386   .     S
C1981  O2323   1.385   .     S
C1981  C1989   1.391   .     A
C1982  O2324   1.386   .     S
C1982  C1988   1.392   .     A
C1983  O2325   1.386   .     S
C1983  C1987   1.394   .     A
C1984  O2326   1.386   .     S
C1984  C1985   1.392   .     A
C1985  O2327   1.387   .     S
C1986  H2163   1.084   .     S
C1987  O2328   1.384   .     S
C1988  O2329   1.384   .     S
C1989  O2331   1.386   .     S
C1990  O2332   1.387   .     S
C1991  O2333   1.387   .     S
C1992  O2334   1.384   .     S
C1993  O2335   1.385   .     S
C1995  C1212   1.411   1_655 S
C1996  C625    1.411   1_565 S
H2019  C1268   1.111   1_655 S
H2109  C632    1.112   1_565 S
O2253  Zn2348  1.948   .     S
O2253  Zn2340  1.948   .     S
O2253  Zn2337  1.949   .     S
O2254  C758    1.282   1_565 A
O2254  Zn2339  1.947   .     S
O2255  Zn2342  1.947   .     S
O2255  C1347   1.282   1_655 A
O2256  Zn2341  1.947   .     S
O2257  Zn2351  1.947   .     S
O2258  Zn2350  1.947   .     S
O2259  Zn2345  1.947   .     S
O2260  Zn2337  1.947   .     S
O2261  Zn2347  1.947   .     S
O2262  Zn2346  1.947   .     S
O2263  Zn2349  1.947   .     S
O2264  Zn2345  1.949   .     S
O2264  Zn2349  1.948   .     S
O2264  Zn2343  1.949   .     S
O2265  Zn2348  1.947   .     S
O2266  Zn2340  1.935   .     S
O2267  Zn2339  1.935   .     S
O2268  Zn2342  1.943   .     S
O2269  Zn2341  1.943   .     S
O2270  Zn2344  1.934   .     S
O2271  Zn2343  1.934   .     S
O2272  Zn2338  1.943   .     S
O2273  Zn2352  1.943   .     S
O2274  Zn2339  1.943   .     S
O2275  Zn2338  1.949   .     S
O2275  Zn2346  1.948   .     S
O2275  Zn2350  1.949   .     S
O2276  Zn2340  1.943   .     S
O2277  Zn2352  1.934   .     S
O2278  Zn2338  1.934   .     S
O2279  Zn2343  1.943   .     S
O2280  Zn2344  1.943   .     S
O2281  Zn2341  1.935   .     S
O2282  Zn2342  1.935   .     S
O2283  Zn1759  1.935   1_655 S
O2284  Zn2346  1.935   .     S
O2285  Zn1173  1.943   1_565 S
O2286  Zn2351  1.949   .     S
O2286  Zn2341  1.948   .     S
O2286  Zn2347  1.948   .     S
O2287  Zn2348  1.943   .     S
O2288  Zn2351  1.934   .     S
O2289  Zn1762  1.934   1_655 S
O2290  Zn2345  1.943   .     S
O2291  Zn1161  1.943   1_565 S
O2292  Zn1758  1.943   1_655 S
O2293  Zn2347  1.943   .     S
O2294  Zn2337  1.934   .     S
O2295  Zn1169  1.934   1_565 S
O2296  Zn2350  1.943   .     S
O2297  Zn2344  1.947   .     S
O2297  C757    1.282   1_565 S
O2298  Zn1763  1.943   1_655 S
O2299  Zn1172  1.935   1_565 S
O2300  Zn2349  1.935   .     S
O2308  Zn2343  1.947   .     S
O2319  Zn2338  1.947   .     S
O2330  Zn2352  1.947   .     S
O2330  C1348   1.282   1_655 S
O2336  Zn2340  1.947   .     S
Zn2339 O1088   1.948   1_565 S
Zn2342 O1687   1.948   1_655 S
Zn2344 O1077   1.949   1_565 S
Zn2352 O1698   1.949   1_655 S
