data_str_m1_o5_o17_pcu_sym.22
_audit_creation_date              2020-01-03
_audit_creation_method            'Materials Studio'
_symmetry_space_group_name_H-M    'P1'
_symmetry_Int_Tables_number       1
_symmetry_cell_setting            triclinic
loop_
_symmetry_equiv_pos_as_xyz
  x,y,z
_cell_length_a                    31.7519
_cell_length_b                    31.7570
_cell_length_c                    34.4741
_cell_angle_alpha                 90.2415
_cell_angle_beta                  90.1090
_cell_angle_gamma                 90.0305
loop_
_atom_site_label
_atom_site_type_symbol
_atom_site_fract_x
_atom_site_fract_y
_atom_site_fract_z
_atom_site_U_iso_or_equiv
_atom_site_adp_type
_atom_site_occupancy
C1     C     0.24945   0.00027   0.35618   0.00000  Uiso   1.00
C2     C     0.33003   0.41995   0.75000   0.00000  Uiso   1.00
C3     C     0.43590   0.20320   0.01905   0.00000  Uiso   1.00
C4     C     0.32679   0.00738   0.97990   0.00000  Uiso   1.00
C5     C     0.17334   0.49032   0.02044   0.00000  Uiso   1.00
C6     C     0.44140   0.19735   0.97903   0.00000  Uiso   1.00
C7     C     0.03225   0.32100   0.02017   0.00000  Uiso   1.00
C8     C     0.06874   0.29428   0.40102   0.00000  Uiso   1.00
C9     C     0.10078   0.25827   0.39953   0.00000  Uiso   1.00
C10    C     0.46733   0.17872   0.59809   0.00000  Uiso   1.00
C11    C     0.00764   0.15499   0.60866   0.00000  Uiso   1.00
C12    C     0.20550   0.06856   0.40091   0.00000  Uiso   1.00
C13    C     0.42000   0.16995   0.24998   0.00000  Uiso   1.00
C14    C     0.24136   0.10080   0.39968   0.00000  Uiso   1.00
C15    C     0.32142   0.46755   0.59850   0.00000  Uiso   1.00
C16    C     0.34502   0.00794   0.60936   0.00000  Uiso   1.00
C17    C     0.45931   0.18272   0.40028   0.00000  Uiso   1.00
C18    C     0.49680   0.15553   0.38781   0.00000  Uiso   1.00
C19    C     0.02520   0.32834   0.60564   0.00000  Uiso   1.00
C20    C     0.48434   0.34811   0.62057   0.00000  Uiso   1.00
C21    C     0.31761   0.45989   0.40051   0.00000  Uiso   1.00
C22    C     0.34457   0.49756   0.38823   0.00000  Uiso   1.00
C23    C     0.17151   0.02451   0.60520   0.00000  Uiso   1.00
C24    C     0.08000   0.33005   0.75002   0.00000  Uiso   1.00
C25    C     0.15193   0.48347   0.61974   0.00000  Uiso   1.00
C26    C     0.31998   0.45880   0.90298   0.00000  Uiso   1.00
C27    C     0.30079   0.41719   0.88897   0.00000  Uiso   1.00
C28    C     0.18957   0.44605   0.09823   0.00000  Uiso   1.00
C29    C     0.21647   0.40933   0.11271   0.00000  Uiso   1.00
C30    C     0.42319   0.22059   0.89483   0.00000  Uiso   1.00
C31    C     0.40147   0.26016   0.87941   0.00000  Uiso   1.00
C32    C     0.06490   0.29575   0.09970   0.00000  Uiso   1.00
C33    C     0.09444   0.26060   0.11326   0.00000  Uiso   1.00
C34    C     0.18020   0.04143   0.90304   0.00000  Uiso   1.00
C35    C     0.33002   0.42001   0.25000   0.00000  Uiso   1.00
C36    C     0.19952   0.08298   0.88942   0.00000  Uiso   1.00
C37    C     0.31008   0.05426   0.09884   0.00000  Uiso   1.00
C38    C     0.28304   0.09089   0.11350   0.00000  Uiso   1.00
C39    C     0.06923   0.28739   0.90185   0.00000  Uiso   1.00
C40    C     0.09524   0.24863   0.89075   0.00000  Uiso   1.00
C41    C     0.46541   0.17603   0.09747   0.00000  Uiso   1.00
C42    C     0.00564   0.14959   0.10036   0.00000  Uiso   1.00
C43    C     0.39165   0.20521   0.45799   0.00000  Uiso   1.00
C44    C     0.08941   0.32739   0.53730   0.00000  Uiso   1.00
C45    C     0.29557   0.39206   0.45791   0.00000  Uiso   1.00
C46    C     0.16998   0.08000   0.75001   0.00000  Uiso   1.00
C47    C     0.17225   0.08889   0.53711   0.00000  Uiso   1.00
C48    C     0.04697   0.36166   0.46515   0.00000  Uiso   1.00
C49    C     0.39472   0.19896   0.54326   0.00000  Uiso   1.00
C50    C     0.13823   0.04638   0.46461   0.00000  Uiso   1.00
C51    C     0.30161   0.39498   0.54322   0.00000  Uiso   1.00
C52    C     0.13373   0.48288   0.95774   0.00000  Uiso   1.00
C53    C     0.36729   0.00870   0.04235   0.00000  Uiso   1.00
C54    C     0.04458   0.35862   0.95682   0.00000  Uiso   1.00
C55    C     0.39416   0.19258   0.03633   0.00000  Uiso   1.00
C56    C     0.36624   0.01734   0.95844   0.00000  Uiso   1.00
C57    C     0.08005   0.32998   0.25001   0.00000  Uiso   1.00
C58    C     0.13256   0.49163   0.04172   0.00000  Uiso   1.00
C59    C     0.42922   0.15577   0.96204   0.00000  Uiso   1.00
C60    C     0.03804   0.36127   0.04208   0.00000  Uiso   1.00
C61    C     0.41996   0.17001   0.74998   0.00000  Uiso   1.00
C62    C     0.16998   0.41997   0.74996   0.00000  Uiso   1.00
C63    C     0.33000   0.08005   0.25002   0.00000  Uiso   1.00
C64    C     0.41997   0.33004   0.75001   0.00000  Uiso   1.00
C65    C     0.24993   0.49982   0.64407   0.00000  Uiso   1.00
C66    C     0.08003   0.16995   0.24999   0.00000  Uiso   1.00
C67    C     0.33004   0.07999   0.75002   0.00000  Uiso   1.00
C68    C     0.16998   0.41999   0.24995   0.00000  Uiso   1.00
C69    C     0.08002   0.17000   0.74999   0.00000  Uiso   1.00
C70    C     0.41998   0.33000   0.25001   0.00000  Uiso   1.00
C71    C     0.13833   0.38834   0.24993   0.00000  Uiso   1.00
C72    C     0.36170   0.11163   0.75003   0.00000  Uiso   1.00
C73    C     0.11166   0.13832   0.25000   0.00000  Uiso   1.00
C74    C     0.38834   0.36168   0.75002   0.00000  Uiso   1.00
C75    C     0.36164   0.11169   0.25003   0.00000  Uiso   1.00
C76    C     0.00023   0.25057   0.35619   0.00000  Uiso   1.00
C77    C     0.13835   0.38832   0.74995   0.00000  Uiso   1.00
C78    C     0.38833   0.36166   0.25003   0.00000  Uiso   1.00
C79    C     0.11168   0.13835   0.74999   0.00000  Uiso   1.00
C80    C     0.13833   0.11165   0.75002   0.00000  Uiso   1.00
C81    C     0.36168   0.38836   0.25000   0.00000  Uiso   1.00
C82    C     0.11163   0.36171   0.75002   0.00000  Uiso   1.00
C83    C     0.38836   0.13831   0.24996   0.00000  Uiso   1.00
C84    C     0.36166   0.38832   0.75000   0.00000  Uiso   1.00
C85    C     0.13834   0.11168   0.25002   0.00000  Uiso   1.00
C86    C     0.38831   0.13837   0.74996   0.00000  Uiso   1.00
C87    C     0.49987   0.25007   0.64407   0.00000  Uiso   1.00
C88    C     0.11171   0.36162   0.25001   0.00000  Uiso   1.00
C89    C     0.02747   0.27965   0.41965   0.00000  Uiso   1.00
C90    C     0.47692   0.22163   0.58021   0.00000  Uiso   1.00
C91    C     0.22033   0.02739   0.41954   0.00000  Uiso   1.00
C92    C     0.27851   0.47698   0.58033   0.00000  Uiso   1.00
C93    C     0.47337   0.22407   0.41954   0.00000  Uiso   1.00
C94    C     0.01684   0.28769   0.58282   0.00000  Uiso   1.00
C95    C     0.27619   0.47366   0.41960   0.00000  Uiso   1.00
C96    C     0.21225   0.01650   0.58263   0.00000  Uiso   1.00
C97    C     0.28676   0.48848   0.91998   0.00000  Uiso   1.00
C98    C     0.49996   0.25019   0.85593   0.00000  Uiso   1.00
C99    C     0.21632   0.48116   0.08052   0.00000  Uiso   1.00
C100   C     0.46350   0.23124   0.91730   0.00000  Uiso   1.00
C101   C     0.02477   0.27847   0.08047   0.00000  Uiso   1.00
C102   C     0.21333   0.01164   0.91991   0.00000  Uiso   1.00
C103   C     0.28346   0.01904   0.08080   0.00000  Uiso   1.00
C104   C     0.02694   0.27519   0.91973   0.00000  Uiso   1.00
C105   C     0.47469   0.21937   0.07996   0.00000  Uiso   1.00
C106   C     0.00061   0.25140   0.39911   0.00000  Uiso   1.00
C107   C     0.49902   0.25253   0.60170   0.00000  Uiso   1.00
C108   C     0.24870   0.00071   0.39910   0.00000  Uiso   1.00
C109   C     0.49976   0.24968   0.14377   0.00000  Uiso   1.00
C110   C     0.24749   0.49888   0.60169   0.00000  Uiso   1.00
C111   C     0.25006   0.00005   0.89895   0.00000  Uiso   1.00
C112   C     0.24990   0.00008   0.10141   0.00000  Uiso   1.00
C113   C     0.49744   0.25117   0.89829   0.00000  Uiso   1.00
C114   C     0.49972   0.24901   0.10080   0.00000  Uiso   1.00
C115   C     0.46615   0.23136   0.45962   0.00000  Uiso   1.00
C116   C     0.02073   0.28613   0.54186   0.00000  Uiso   1.00
C117   C     0.26896   0.46636   0.45962   0.00000  Uiso   1.00
C118   C     0.21384   0.02047   0.54169   0.00000  Uiso   1.00
C119   C     0.02053   0.28636   0.45984   0.00000  Uiso   1.00
C120   C     0.25003   0.00001   0.85617   0.00000  Uiso   1.00
C121   C     0.46751   0.23011   0.54084   0.00000  Uiso   1.00
C122   C     0.21366   0.02039   0.45967   0.00000  Uiso   1.00
C123   C     0.27013   0.46759   0.54087   0.00000  Uiso   1.00
C124   C     0.21153   0.00049   0.95953   0.00000  Uiso   1.00
C125   C     0.28747   0.00894   0.04098   0.00000  Uiso   1.00
C126   C     0.01794   0.28404   0.95913   0.00000  Uiso   1.00
C127   C     0.46660   0.22641   0.04010   0.00000  Uiso   1.00
C128   C     0.28848   0.49960   0.95971   0.00000  Uiso   1.00
C129   C     0.21238   0.49122   0.04075   0.00000  Uiso   1.00
C130   C     0.46563   0.22717   0.95819   0.00000  Uiso   1.00
C131   C     0.24996   0.00002   0.14397   0.00000  Uiso   1.00
C132   C     0.01699   0.28513   0.04038   0.00000  Uiso   1.00
C133   C     0.49323   0.25903   0.48002   0.00000  Uiso   1.00
C134   C     0.49337   0.25895   0.52092   0.00000  Uiso   1.00
C135   C     0.24113   0.49324   0.47994   0.00000  Uiso   1.00
C136   C     0.24118   0.49332   0.52084   0.00000  Uiso   1.00
C137   C     0.24999   0.00004   0.98002   0.00000  Uiso   1.00
C138   C     0.24995   0.00005   0.02050   0.00000  Uiso   1.00
C139   C     0.49102   0.25623   0.97910   0.00000  Uiso   1.00
C140   C     0.49130   0.25611   0.01997   0.00000  Uiso   1.00
C141   C     0.43147   0.21358   0.47985   0.00000  Uiso   1.00
C142   C     0.16997   0.08004   0.25001   0.00000  Uiso   1.00
C143   C     0.04843   0.31265   0.52093   0.00000  Uiso   1.00
C144   C     0.28692   0.43177   0.47985   0.00000  Uiso   1.00
C145   C     0.18720   0.04804   0.52069   0.00000  Uiso   1.00
C146   C     0.04142   0.31845   0.48116   0.00000  Uiso   1.00
C147   C     0.43262   0.21212   0.52098   0.00000  Uiso   1.00
C148   C     0.18146   0.04106   0.48086   0.00000  Uiso   1.00
C149   C     0.28832   0.43285   0.52100   0.00000  Uiso   1.00
C150   C     0.17317   0.49278   0.97948   0.00000  Uiso   1.00
C151   C     0.32654   0.00988   0.02088   0.00000  Uiso   1.00
C152   C     0.03373   0.31998   0.97903   0.00000  Uiso   1.00
H153   H     0.11097   0.25020   0.42944   0.00000  Uiso   1.00
H154   H     0.45051   0.15776   0.57752   0.00000  Uiso   1.00
H155   H     0.24944   0.11100   0.42965   0.00000  Uiso   1.00
H156   H     0.27021   0.08778   0.38612   0.00000  Uiso   1.00
H157   H     0.23118   0.12883   0.38295   0.00000  Uiso   1.00
H158   H     0.19186   0.06287   0.37173   0.00000  Uiso   1.00
H159   H     0.18017   0.08462   0.41693   0.00000  Uiso   1.00
H160   H     0.34755   0.02887   0.58372   0.00000  Uiso   1.00
H161   H     0.32911   0.02517   0.63318   0.00000  Uiso   1.00
H162   H     0.37730   0.49991   0.61933   0.00000  Uiso   1.00
H163   H     0.31781   0.44723   0.62441   0.00000  Uiso   1.00
H164   H     0.08757   0.22946   0.38590   0.00000  Uiso   1.00
H165   H     0.34248   0.45084   0.57804   0.00000  Uiso   1.00
H166   H     0.01407   0.16961   0.36317   0.00000  Uiso   1.00
H167   H     0.01884   0.15116   0.41254   0.00000  Uiso   1.00
H168   H     0.48534   0.12408   0.37830   0.00000  Uiso   1.00
H169   H     0.44155   0.16236   0.42038   0.00000  Uiso   1.00
H170   H     0.43839   0.18891   0.37514   0.00000  Uiso   1.00
H171   H     0.46176   0.35249   0.59626   0.00000  Uiso   1.00
H172   H     0.46942   0.32858   0.64324   0.00000  Uiso   1.00
H173   H     0.49129   0.37942   0.63357   0.00000  Uiso   1.00
H174   H     0.04710   0.32241   0.63014   0.00000  Uiso   1.00
H175   H     0.12885   0.26830   0.38276   0.00000  Uiso   1.00
H176   H     0.03965   0.35308   0.58758   0.00000  Uiso   1.00
H177   H     0.33036   0.01471   0.36356   0.00000  Uiso   1.00
H178   H     0.34881   0.01964   0.41302   0.00000  Uiso   1.00
H179   H     0.37608   0.48632   0.37887   0.00000  Uiso   1.00
H180   H     0.33810   0.44228   0.42067   0.00000  Uiso   1.00
H181   H     0.31151   0.43893   0.37530   0.00000  Uiso   1.00
H182   H     0.14760   0.46103   0.59523   0.00000  Uiso   1.00
H183   H     0.17158   0.46850   0.64236   0.00000  Uiso   1.00
H184   H     0.12061   0.49017   0.63266   0.00000  Uiso   1.00
H185   H     0.17730   0.04633   0.62988   0.00000  Uiso   1.00
H186   H     0.06314   0.30796   0.37194   0.00000  Uiso   1.00
H187   H     0.14673   0.03891   0.58706   0.00000  Uiso   1.00
H188   H     0.28256   0.40231   0.91274   0.00000  Uiso   1.00
H189   H     0.27984   0.42175   0.86360   0.00000  Uiso   1.00
H190   H     0.32638   0.39534   0.88014   0.00000  Uiso   1.00
H191   H     0.33807   0.47407   0.87944   0.00000  Uiso   1.00
H192   H     0.34333   0.44961   0.92535   0.00000  Uiso   1.00
H193   H     0.23547   0.41834   0.13844   0.00000  Uiso   1.00
H194   H     0.19564   0.38285   0.12126   0.00000  Uiso   1.00
H195   H     0.23782   0.39818   0.08933   0.00000  Uiso   1.00
H196   H     0.16930   0.45824   0.12188   0.00000  Uiso   1.00
H197   H     0.08495   0.31952   0.41715   0.00000  Uiso   1.00
H198   H     0.16828   0.43186   0.07626   0.00000  Uiso   1.00
H199   H     0.39628   0.28307   0.90338   0.00000  Uiso   1.00
H200   H     0.42012   0.27542   0.85629   0.00000  Uiso   1.00
H201   H     0.37039   0.25152   0.86684   0.00000  Uiso   1.00
H202   H     0.43000   0.19849   0.87061   0.00000  Uiso   1.00
H203   H     0.39927   0.20536   0.91334   0.00000  Uiso   1.00
H204   H     0.08153   0.24352   0.13853   0.00000  Uiso   1.00
H205   H     0.10019   0.23789   0.08924   0.00000  Uiso   1.00
H206   H     0.12511   0.27442   0.12224   0.00000  Uiso   1.00
H207   H     0.08428   0.31415   0.07924   0.00000  Uiso   1.00
H208   H     0.02852   0.15242   0.58293   0.00000  Uiso   1.00
H209   H     0.05708   0.31702   0.12424   0.00000  Uiso   1.00
H210   H     0.21785   0.09778   0.91335   0.00000  Uiso   1.00
H211   H     0.22041   0.07835   0.86406   0.00000  Uiso   1.00
H212   H     0.17400   0.10492   0.88071   0.00000  Uiso   1.00
H213   H     0.16204   0.02623   0.87934   0.00000  Uiso   1.00
H214   H     0.15689   0.05069   0.92542   0.00000  Uiso   1.00
H215   H     0.26166   0.10194   0.09011   0.00000  Uiso   1.00
H216   H     0.26408   0.08182   0.13909   0.00000  Uiso   1.00
H217   H     0.30377   0.11745   0.12231   0.00000  Uiso   1.00
H218   H     0.33040   0.04218   0.12249   0.00000  Uiso   1.00
H219   H     0.02497   0.17084   0.63253   0.00000  Uiso   1.00
H220   H     0.33131   0.06851   0.07705   0.00000  Uiso   1.00
H221   H     0.09888   0.22755   0.91618   0.00000  Uiso   1.00
H222   H     0.08049   0.23080   0.86660   0.00000  Uiso   1.00
H223   H     0.12703   0.25873   0.88113   0.00000  Uiso   1.00
H224   H     0.06450   0.30777   0.87614   0.00000  Uiso   1.00
H225   H     0.08920   0.30512   0.92261   0.00000  Uiso   1.00
H226   H     0.03134   0.16640   0.11576   0.00000  Uiso   1.00
H227   H     0.49882   0.11988   0.11604   0.00000  Uiso   1.00
H228   H     0.01699   0.14153   0.07078   0.00000  Uiso   1.00
H229   H     0.44921   0.17895   0.12581   0.00000  Uiso   1.00
H230   H     0.49949   0.12273   0.61846   0.00000  Uiso   1.00
H231   H     0.44400   0.15655   0.07969   0.00000  Uiso   1.00
H232   H     0.38474   0.22345   0.43218   0.00000  Uiso   1.00
H233   H     0.10732   0.35195   0.52313   0.00000  Uiso   1.00
H234   H     0.27736   0.38503   0.43199   0.00000  Uiso   1.00
H235   H     0.14763   0.10670   0.52284   0.00000  Uiso   1.00
H236   H     0.06562   0.38502   0.48045   0.00000  Uiso   1.00
H237   H     0.37712   0.17106   0.53516   0.00000  Uiso   1.00
H238   H     0.11477   0.06489   0.47981   0.00000  Uiso   1.00
H239   H     0.32960   0.37755   0.53524   0.00000  Uiso   1.00
H240   H     0.10338   0.49344   0.96831   0.00000  Uiso   1.00
H241   H     0.44705   0.18235   0.62408   0.00000  Uiso   1.00
H242   H     0.39440   0.02610   0.03205   0.00000  Uiso   1.00
H243   H     0.07132   0.37792   0.96496   0.00000  Uiso   1.00
H244   H     0.37199   0.17254   0.02104   0.00000  Uiso   1.00
H245   H     0.39658   0.00677   0.96905   0.00000  Uiso   1.00
H246   H     0.10541   0.47431   0.03116   0.00000  Uiso   1.00
H247   H     0.40607   0.13593   0.97603   0.00000  Uiso   1.00
H248   H     0.01930   0.36705   0.06787   0.00000  Uiso   1.00
O249   O     0.25000   0.00000   0.25000   0.00000  Uiso   1.00
O250   O     0.25000   0.46539   0.66251   0.00000  Uiso   1.00
O251   O     0.46539   0.25000   0.33749   0.00000  Uiso   1.00
O252   O     0.03462   0.25000   0.66251   0.00000  Uiso   1.00
O253   O     0.00000   0.21539   0.83749   0.00000  Uiso   1.00
O254   O     0.00000   0.28462   0.16251   0.00000  Uiso   1.00
O255   O     0.28462   0.00000   0.83749   0.00000  Uiso   1.00
O256   O     0.21539   0.00000   0.16251   0.00000  Uiso   1.00
O257   O     0.00000   0.28462   0.83749   0.00000  Uiso   1.00
O258   O     0.00000   0.21539   0.16251   0.00000  Uiso   1.00
O259   O     0.21539   0.00000   0.83749   0.00000  Uiso   1.00
O260   O     0.25000   0.00000   0.75000   0.00000  Uiso   1.00
O261   O     0.28462   0.00000   0.16251   0.00000  Uiso   1.00
O262   O     0.20127   0.08332   0.27298   0.00000  Uiso   1.00
O263   O     0.29874   0.41668   0.72702   0.00000  Uiso   1.00
O264   O     0.41668   0.20127   0.27298   0.00000  Uiso   1.00
O265   O     0.08332   0.29874   0.72702   0.00000  Uiso   1.00
O266   O     0.29874   0.41668   0.27298   0.00000  Uiso   1.00
O267   O     0.20127   0.08332   0.72702   0.00000  Uiso   1.00
O268   O     0.08332   0.29874   0.27298   0.00000  Uiso   1.00
O269   O     0.41668   0.20127   0.72702   0.00000  Uiso   1.00
O270   O     0.20127   0.41668   0.72702   0.00000  Uiso   1.00
O271   O     0.00000   0.25000   0.25000   0.00000  Uiso   1.00
O272   O     0.29874   0.08332   0.27298   0.00000  Uiso   1.00
O273   O     0.41668   0.29874   0.72702   0.00000  Uiso   1.00
O274   O     0.08332   0.20127   0.27298   0.00000  Uiso   1.00
O275   O     0.29874   0.08332   0.72702   0.00000  Uiso   1.00
O276   O     0.20127   0.41668   0.27298   0.00000  Uiso   1.00
O277   O     0.08332   0.20127   0.72702   0.00000  Uiso   1.00
O278   O     0.41668   0.29874   0.27298   0.00000  Uiso   1.00
O279   O     0.45127   0.33332   0.77298   0.00000  Uiso   1.00
O280   O     0.04874   0.16668   0.22702   0.00000  Uiso   1.00
O281   O     0.16668   0.45127   0.77298   0.00000  Uiso   1.00
O282   O     0.00000   0.25000   0.75000   0.00000  Uiso   1.00
O283   O     0.33332   0.04874   0.22702   0.00000  Uiso   1.00
O284   O     0.04874   0.16668   0.77298   0.00000  Uiso   1.00
O285   O     0.45127   0.33332   0.22702   0.00000  Uiso   1.00
O286   O     0.33332   0.04874   0.77298   0.00000  Uiso   1.00
O287   O     0.16668   0.45127   0.22702   0.00000  Uiso   1.00
O288   O     0.45127   0.16668   0.22702   0.00000  Uiso   1.00
O289   O     0.04874   0.33332   0.77298   0.00000  Uiso   1.00
O290   O     0.16668   0.04874   0.22702   0.00000  Uiso   1.00
O291   O     0.33332   0.45127   0.77298   0.00000  Uiso   1.00
O292   O     0.04874   0.33332   0.22702   0.00000  Uiso   1.00
O293   O     0.25000   0.46539   0.33749   0.00000  Uiso   1.00
O294   O     0.45127   0.16668   0.77298   0.00000  Uiso   1.00
O295   O     0.33332   0.45127   0.22702   0.00000  Uiso   1.00
O296   O     0.16668   0.04874   0.77298   0.00000  Uiso   1.00
O297   O     0.36749   0.17705   0.46703   0.00000  Uiso   1.00
O298   O     0.10501   0.31036   0.56558   0.00000  Uiso   1.00
O299   O     0.32391   0.36813   0.46702   0.00000  Uiso   1.00
O300   O     0.18917   0.10453   0.56558   0.00000  Uiso   1.00
O301   O     0.02870   0.37244   0.43560   0.00000  Uiso   1.00
O302   O     0.38306   0.21931   0.57139   0.00000  Uiso   1.00
O303   O     0.12754   0.02805   0.43495   0.00000  Uiso   1.00
O304   O     0.25000   0.03462   0.66251   0.00000  Uiso   1.00
O305   O     0.28127   0.38315   0.57117   0.00000  Uiso   1.00
O306   O     0.13487   0.46203   0.92791   0.00000  Uiso   1.00
O307   O     0.37101   0.48754   0.07165   0.00000  Uiso   1.00
O308   O     0.02363   0.36899   0.92870   0.00000  Uiso   1.00
O309   O     0.38299   0.20813   0.06710   0.00000  Uiso   1.00
O310   O     0.36513   0.03824   0.92880   0.00000  Uiso   1.00
O311   O     0.12884   0.01283   0.07115   0.00000  Uiso   1.00
O312   O     0.44698   0.14187   0.93332   0.00000  Uiso   1.00
O313   O     0.06467   0.38714   0.03311   0.00000  Uiso   1.00
O314   O     0.03462   0.25000   0.33749   0.00000  Uiso   1.00
O315   O     0.46539   0.25000   0.66251   0.00000  Uiso   1.00
O316   O     0.25000   0.03462   0.33749   0.00000  Uiso   1.00
Zn317  Zn    0.20053   0.00000   0.21730   0.00000  Uiso   1.00
Zn318  Zn    0.04948   0.25000   0.28270   0.00000  Uiso   1.00
Zn319  Zn    0.25000   0.45053   0.71730   0.00000  Uiso   1.00
Zn320  Zn    0.25000   0.04948   0.28270   0.00000  Uiso   1.00
Zn321  Zn    0.04948   0.25000   0.71730   0.00000  Uiso   1.00
Zn322  Zn    0.45053   0.25000   0.28270   0.00000  Uiso   1.00
Zn323  Zn    0.25000   0.04948   0.71730   0.00000  Uiso   1.00
Zn324  Zn    0.25000   0.45053   0.28270   0.00000  Uiso   1.00
Zn325  Zn    0.29948   0.00000   0.78270   0.00000  Uiso   1.00
Zn326  Zn    0.00000   0.20053   0.21730   0.00000  Uiso   1.00
Zn327  Zn    0.00000   0.29948   0.78270   0.00000  Uiso   1.00
Zn328  Zn    0.29948   0.00000   0.21730   0.00000  Uiso   1.00
Zn329  Zn    0.20053   0.00000   0.78270   0.00000  Uiso   1.00
Zn330  Zn    0.00000   0.29948   0.21730   0.00000  Uiso   1.00
Zn331  Zn    0.00000   0.20053   0.78270   0.00000  Uiso   1.00
Zn332  Zn    0.45053   0.25000   0.71730   0.00000  Uiso   1.00
C333   C     0.74945   0.00027   0.35618   0.00000  Uiso   1.00
C334   C     0.83003   0.41995   0.75000   0.00000  Uiso   1.00
C335   C     0.93590   0.20320   0.01905   0.00000  Uiso   1.00
C336   C     0.82679   0.00738   0.97990   0.00000  Uiso   1.00
C337   C     0.67334   0.49032   0.02044   0.00000  Uiso   1.00
C338   C     0.94140   0.19735   0.97903   0.00000  Uiso   1.00
C339   C     0.53225   0.32100   0.02017   0.00000  Uiso   1.00
C340   C     0.56874   0.29428   0.40102   0.00000  Uiso   1.00
C341   C     0.60078   0.25827   0.39953   0.00000  Uiso   1.00
C342   C     0.96733   0.17872   0.59809   0.00000  Uiso   1.00
C343   C     0.50764   0.15499   0.60866   0.00000  Uiso   1.00
C344   C     0.70550   0.06856   0.40091   0.00000  Uiso   1.00
C345   C     0.92000   0.16995   0.24998   0.00000  Uiso   1.00
C346   C     0.74136   0.10080   0.39968   0.00000  Uiso   1.00
C347   C     0.82142   0.46755   0.59850   0.00000  Uiso   1.00
C348   C     0.84502   0.00794   0.60936   0.00000  Uiso   1.00
C349   C     0.95931   0.18272   0.40028   0.00000  Uiso   1.00
C350   C     0.99680   0.15553   0.38781   0.00000  Uiso   1.00
C351   C     0.52520   0.32834   0.60564   0.00000  Uiso   1.00
C352   C     0.98434   0.34811   0.62057   0.00000  Uiso   1.00
C353   C     0.81761   0.45989   0.40051   0.00000  Uiso   1.00
C354   C     0.84457   0.49756   0.38823   0.00000  Uiso   1.00
C355   C     0.67151   0.02451   0.60520   0.00000  Uiso   1.00
C356   C     0.58000   0.33005   0.75002   0.00000  Uiso   1.00
C357   C     0.65193   0.48347   0.61974   0.00000  Uiso   1.00
C358   C     0.81998   0.45880   0.90298   0.00000  Uiso   1.00
C359   C     0.80079   0.41719   0.88897   0.00000  Uiso   1.00
C360   C     0.68957   0.44605   0.09823   0.00000  Uiso   1.00
C361   C     0.71647   0.40933   0.11271   0.00000  Uiso   1.00
C362   C     0.92319   0.22059   0.89483   0.00000  Uiso   1.00
C363   C     0.90147   0.26016   0.87941   0.00000  Uiso   1.00
C364   C     0.56490   0.29575   0.09970   0.00000  Uiso   1.00
C365   C     0.59444   0.26060   0.11326   0.00000  Uiso   1.00
C366   C     0.68020   0.04143   0.90304   0.00000  Uiso   1.00
C367   C     0.83002   0.42001   0.25000   0.00000  Uiso   1.00
C368   C     0.69952   0.08298   0.88942   0.00000  Uiso   1.00
C369   C     0.81008   0.05426   0.09884   0.00000  Uiso   1.00
C370   C     0.78304   0.09089   0.11350   0.00000  Uiso   1.00
C371   C     0.56923   0.28739   0.90185   0.00000  Uiso   1.00
C372   C     0.59524   0.24863   0.89075   0.00000  Uiso   1.00
C373   C     0.96541   0.17603   0.09747   0.00000  Uiso   1.00
C374   C     0.50564   0.14959   0.10036   0.00000  Uiso   1.00
C375   C     0.89165   0.20521   0.45799   0.00000  Uiso   1.00
C376   C     0.58941   0.32739   0.53730   0.00000  Uiso   1.00
C377   C     0.79557   0.39206   0.45791   0.00000  Uiso   1.00
C378   C     0.66998   0.08000   0.75001   0.00000  Uiso   1.00
C379   C     0.67225   0.08889   0.53711   0.00000  Uiso   1.00
C380   C     0.54697   0.36166   0.46515   0.00000  Uiso   1.00
C381   C     0.89472   0.19896   0.54326   0.00000  Uiso   1.00
C382   C     0.63823   0.04638   0.46461   0.00000  Uiso   1.00
C383   C     0.80161   0.39498   0.54322   0.00000  Uiso   1.00
C384   C     0.63373   0.48288   0.95774   0.00000  Uiso   1.00
C385   C     0.86729   0.00870   0.04235   0.00000  Uiso   1.00
C386   C     0.54458   0.35862   0.95682   0.00000  Uiso   1.00
C387   C     0.89416   0.19258   0.03633   0.00000  Uiso   1.00
C388   C     0.86624   0.01734   0.95844   0.00000  Uiso   1.00
C389   C     0.58005   0.32998   0.25001   0.00000  Uiso   1.00
C390   C     0.63256   0.49163   0.04172   0.00000  Uiso   1.00
C391   C     0.92922   0.15577   0.96204   0.00000  Uiso   1.00
C392   C     0.53804   0.36127   0.04208   0.00000  Uiso   1.00
C393   C     0.91996   0.17001   0.74998   0.00000  Uiso   1.00
C394   C     0.66998   0.41997   0.74996   0.00000  Uiso   1.00
C395   C     0.83000   0.08005   0.25002   0.00000  Uiso   1.00
C396   C     0.91997   0.33004   0.75001   0.00000  Uiso   1.00
C397   C     0.74993   0.49982   0.64407   0.00000  Uiso   1.00
C398   C     0.58003   0.16995   0.24999   0.00000  Uiso   1.00
C399   C     0.83004   0.07999   0.75002   0.00000  Uiso   1.00
C400   C     0.66998   0.41999   0.24995   0.00000  Uiso   1.00
C401   C     0.58002   0.17000   0.74999   0.00000  Uiso   1.00
C402   C     0.91998   0.33000   0.25001   0.00000  Uiso   1.00
C403   C     0.63833   0.38834   0.24993   0.00000  Uiso   1.00
C404   C     0.86170   0.11163   0.75003   0.00000  Uiso   1.00
C405   C     0.61166   0.13832   0.25000   0.00000  Uiso   1.00
C406   C     0.88834   0.36168   0.75002   0.00000  Uiso   1.00
C407   C     0.86164   0.11169   0.25003   0.00000  Uiso   1.00
C408   C     0.50023   0.25057   0.35619   0.00000  Uiso   1.00
C409   C     0.63835   0.38832   0.74995   0.00000  Uiso   1.00
C410   C     0.88833   0.36166   0.25003   0.00000  Uiso   1.00
C411   C     0.61168   0.13835   0.74999   0.00000  Uiso   1.00
C412   C     0.63833   0.11165   0.75002   0.00000  Uiso   1.00
C413   C     0.86168   0.38836   0.25000   0.00000  Uiso   1.00
C414   C     0.61163   0.36171   0.75002   0.00000  Uiso   1.00
C415   C     0.88836   0.13831   0.24996   0.00000  Uiso   1.00
C416   C     0.86166   0.38832   0.75000   0.00000  Uiso   1.00
C417   C     0.63834   0.11168   0.25002   0.00000  Uiso   1.00
C418   C     0.88831   0.13837   0.74996   0.00000  Uiso   1.00
C419   C     0.99987   0.25007   0.64407   0.00000  Uiso   1.00
C420   C     0.61171   0.36162   0.25001   0.00000  Uiso   1.00
C421   C     0.52747   0.27965   0.41965   0.00000  Uiso   1.00
C422   C     0.97692   0.22163   0.58021   0.00000  Uiso   1.00
C423   C     0.72033   0.02739   0.41954   0.00000  Uiso   1.00
C424   C     0.77851   0.47698   0.58033   0.00000  Uiso   1.00
C425   C     0.97337   0.22407   0.41954   0.00000  Uiso   1.00
C426   C     0.51684   0.28769   0.58282   0.00000  Uiso   1.00
C427   C     0.77619   0.47366   0.41960   0.00000  Uiso   1.00
C428   C     0.71225   0.01650   0.58263   0.00000  Uiso   1.00
C429   C     0.78676   0.48848   0.91998   0.00000  Uiso   1.00
C430   C     0.99996   0.25019   0.85593   0.00000  Uiso   1.00
C431   C     0.71632   0.48116   0.08052   0.00000  Uiso   1.00
C432   C     0.96350   0.23124   0.91730   0.00000  Uiso   1.00
C433   C     0.52477   0.27847   0.08047   0.00000  Uiso   1.00
C434   C     0.71333   0.01164   0.91991   0.00000  Uiso   1.00
C435   C     0.78346   0.01904   0.08080   0.00000  Uiso   1.00
C436   C     0.52694   0.27519   0.91973   0.00000  Uiso   1.00
C437   C     0.97469   0.21937   0.07996   0.00000  Uiso   1.00
C438   C     0.50061   0.25140   0.39911   0.00000  Uiso   1.00
C439   C     0.99902   0.25253   0.60170   0.00000  Uiso   1.00
C440   C     0.74870   0.00071   0.39910   0.00000  Uiso   1.00
C441   C     0.99976   0.24968   0.14377   0.00000  Uiso   1.00
C442   C     0.74749   0.49888   0.60169   0.00000  Uiso   1.00
C443   C     0.75006   0.00005   0.89895   0.00000  Uiso   1.00
C444   C     0.74990   0.00008   0.10141   0.00000  Uiso   1.00
C445   C     0.99744   0.25117   0.89829   0.00000  Uiso   1.00
C446   C     0.99972   0.24901   0.10080   0.00000  Uiso   1.00
C447   C     0.96615   0.23136   0.45962   0.00000  Uiso   1.00
C448   C     0.52073   0.28613   0.54186   0.00000  Uiso   1.00
C449   C     0.76896   0.46636   0.45962   0.00000  Uiso   1.00
C450   C     0.71384   0.02047   0.54169   0.00000  Uiso   1.00
C451   C     0.52053   0.28636   0.45984   0.00000  Uiso   1.00
C452   C     0.75003   0.00001   0.85617   0.00000  Uiso   1.00
C453   C     0.96751   0.23011   0.54084   0.00000  Uiso   1.00
C454   C     0.71366   0.02039   0.45967   0.00000  Uiso   1.00
C455   C     0.77013   0.46759   0.54087   0.00000  Uiso   1.00
C456   C     0.71153   0.00049   0.95953   0.00000  Uiso   1.00
C457   C     0.78747   0.00894   0.04098   0.00000  Uiso   1.00
C458   C     0.51794   0.28404   0.95913   0.00000  Uiso   1.00
C459   C     0.96660   0.22641   0.04010   0.00000  Uiso   1.00
C460   C     0.78848   0.49960   0.95971   0.00000  Uiso   1.00
C461   C     0.71238   0.49122   0.04075   0.00000  Uiso   1.00
C462   C     0.96563   0.22717   0.95819   0.00000  Uiso   1.00
C463   C     0.74996   0.00002   0.14397   0.00000  Uiso   1.00
C464   C     0.51699   0.28513   0.04038   0.00000  Uiso   1.00
C465   C     0.99323   0.25903   0.48002   0.00000  Uiso   1.00
C466   C     0.99337   0.25895   0.52092   0.00000  Uiso   1.00
C467   C     0.74113   0.49324   0.47994   0.00000  Uiso   1.00
C468   C     0.74118   0.49332   0.52084   0.00000  Uiso   1.00
C469   C     0.74999   0.00004   0.98002   0.00000  Uiso   1.00
C470   C     0.74995   0.00005   0.02050   0.00000  Uiso   1.00
C471   C     0.99102   0.25623   0.97910   0.00000  Uiso   1.00
C472   C     0.99130   0.25611   0.01997   0.00000  Uiso   1.00
C473   C     0.93147   0.21358   0.47985   0.00000  Uiso   1.00
C474   C     0.66997   0.08004   0.25001   0.00000  Uiso   1.00
C475   C     0.54843   0.31265   0.52093   0.00000  Uiso   1.00
C476   C     0.78692   0.43177   0.47985   0.00000  Uiso   1.00
C477   C     0.68720   0.04804   0.52069   0.00000  Uiso   1.00
C478   C     0.54142   0.31845   0.48116   0.00000  Uiso   1.00
C479   C     0.93262   0.21212   0.52098   0.00000  Uiso   1.00
C480   C     0.68146   0.04106   0.48086   0.00000  Uiso   1.00
C481   C     0.78832   0.43285   0.52100   0.00000  Uiso   1.00
C482   C     0.67317   0.49278   0.97948   0.00000  Uiso   1.00
C483   C     0.82654   0.00988   0.02088   0.00000  Uiso   1.00
C484   C     0.53373   0.31998   0.97903   0.00000  Uiso   1.00
H485   H     0.61097   0.25020   0.42944   0.00000  Uiso   1.00
H486   H     0.95051   0.15776   0.57752   0.00000  Uiso   1.00
H487   H     0.74944   0.11100   0.42965   0.00000  Uiso   1.00
H488   H     0.77021   0.08778   0.38612   0.00000  Uiso   1.00
H489   H     0.73118   0.12883   0.38295   0.00000  Uiso   1.00
H490   H     0.69186   0.06287   0.37173   0.00000  Uiso   1.00
H491   H     0.68017   0.08462   0.41693   0.00000  Uiso   1.00
H492   H     0.84755   0.02887   0.58372   0.00000  Uiso   1.00
H493   H     0.82911   0.02517   0.63318   0.00000  Uiso   1.00
H494   H     0.87730   0.49991   0.61933   0.00000  Uiso   1.00
H495   H     0.81781   0.44723   0.62441   0.00000  Uiso   1.00
H496   H     0.58757   0.22946   0.38590   0.00000  Uiso   1.00
H497   H     0.84248   0.45084   0.57804   0.00000  Uiso   1.00
H498   H     0.51407   0.16961   0.36317   0.00000  Uiso   1.00
H499   H     0.51884   0.15116   0.41254   0.00000  Uiso   1.00
H500   H     0.98534   0.12408   0.37830   0.00000  Uiso   1.00
H501   H     0.94155   0.16236   0.42038   0.00000  Uiso   1.00
H502   H     0.93839   0.18891   0.37514   0.00000  Uiso   1.00
H503   H     0.96176   0.35249   0.59626   0.00000  Uiso   1.00
H504   H     0.96942   0.32858   0.64324   0.00000  Uiso   1.00
H505   H     0.99129   0.37942   0.63357   0.00000  Uiso   1.00
H506   H     0.54710   0.32241   0.63014   0.00000  Uiso   1.00
H507   H     0.62885   0.26830   0.38276   0.00000  Uiso   1.00
H508   H     0.53965   0.35308   0.58758   0.00000  Uiso   1.00
H509   H     0.83036   0.01471   0.36356   0.00000  Uiso   1.00
H510   H     0.84881   0.01964   0.41302   0.00000  Uiso   1.00
H511   H     0.87608   0.48632   0.37887   0.00000  Uiso   1.00
H512   H     0.83810   0.44228   0.42067   0.00000  Uiso   1.00
H513   H     0.81151   0.43893   0.37530   0.00000  Uiso   1.00
H514   H     0.64760   0.46103   0.59523   0.00000  Uiso   1.00
H515   H     0.67158   0.46850   0.64236   0.00000  Uiso   1.00
H516   H     0.62061   0.49017   0.63266   0.00000  Uiso   1.00
H517   H     0.67730   0.04633   0.62988   0.00000  Uiso   1.00
H518   H     0.56314   0.30796   0.37194   0.00000  Uiso   1.00
H519   H     0.64673   0.03891   0.58706   0.00000  Uiso   1.00
H520   H     0.78256   0.40231   0.91274   0.00000  Uiso   1.00
H521   H     0.77984   0.42175   0.86360   0.00000  Uiso   1.00
H522   H     0.82638   0.39534   0.88014   0.00000  Uiso   1.00
H523   H     0.83807   0.47407   0.87944   0.00000  Uiso   1.00
H524   H     0.84333   0.44961   0.92535   0.00000  Uiso   1.00
H525   H     0.73547   0.41834   0.13844   0.00000  Uiso   1.00
H526   H     0.69564   0.38285   0.12126   0.00000  Uiso   1.00
H527   H     0.73782   0.39818   0.08933   0.00000  Uiso   1.00
H528   H     0.66930   0.45824   0.12188   0.00000  Uiso   1.00
H529   H     0.58495   0.31952   0.41715   0.00000  Uiso   1.00
H530   H     0.66828   0.43186   0.07626   0.00000  Uiso   1.00
H531   H     0.89628   0.28307   0.90338   0.00000  Uiso   1.00
H532   H     0.92012   0.27542   0.85629   0.00000  Uiso   1.00
H533   H     0.87039   0.25152   0.86684   0.00000  Uiso   1.00
H534   H     0.93000   0.19849   0.87061   0.00000  Uiso   1.00
H535   H     0.89927   0.20536   0.91334   0.00000  Uiso   1.00
H536   H     0.58153   0.24352   0.13853   0.00000  Uiso   1.00
H537   H     0.60019   0.23789   0.08924   0.00000  Uiso   1.00
H538   H     0.62511   0.27442   0.12224   0.00000  Uiso   1.00
H539   H     0.58428   0.31415   0.07924   0.00000  Uiso   1.00
H540   H     0.52852   0.15242   0.58293   0.00000  Uiso   1.00
H541   H     0.55708   0.31702   0.12424   0.00000  Uiso   1.00
H542   H     0.71785   0.09778   0.91335   0.00000  Uiso   1.00
H543   H     0.72041   0.07835   0.86406   0.00000  Uiso   1.00
H544   H     0.67400   0.10492   0.88071   0.00000  Uiso   1.00
H545   H     0.66204   0.02623   0.87934   0.00000  Uiso   1.00
H546   H     0.65689   0.05069   0.92542   0.00000  Uiso   1.00
H547   H     0.76166   0.10194   0.09011   0.00000  Uiso   1.00
H548   H     0.76408   0.08182   0.13909   0.00000  Uiso   1.00
H549   H     0.80377   0.11745   0.12231   0.00000  Uiso   1.00
H550   H     0.83040   0.04218   0.12249   0.00000  Uiso   1.00
H551   H     0.52497   0.17084   0.63253   0.00000  Uiso   1.00
H552   H     0.83131   0.06851   0.07705   0.00000  Uiso   1.00
H553   H     0.59888   0.22755   0.91618   0.00000  Uiso   1.00
H554   H     0.58049   0.23080   0.86660   0.00000  Uiso   1.00
H555   H     0.62703   0.25873   0.88113   0.00000  Uiso   1.00
H556   H     0.56450   0.30777   0.87614   0.00000  Uiso   1.00
H557   H     0.58920   0.30512   0.92261   0.00000  Uiso   1.00
H558   H     0.53134   0.16640   0.11576   0.00000  Uiso   1.00
H559   H     0.99882   0.11988   0.11604   0.00000  Uiso   1.00
H560   H     0.51699   0.14153   0.07078   0.00000  Uiso   1.00
H561   H     0.94921   0.17895   0.12581   0.00000  Uiso   1.00
H562   H     0.99949   0.12273   0.61846   0.00000  Uiso   1.00
H563   H     0.94400   0.15655   0.07969   0.00000  Uiso   1.00
H564   H     0.88474   0.22345   0.43218   0.00000  Uiso   1.00
H565   H     0.60732   0.35195   0.52313   0.00000  Uiso   1.00
H566   H     0.77736   0.38503   0.43199   0.00000  Uiso   1.00
H567   H     0.64763   0.10670   0.52284   0.00000  Uiso   1.00
H568   H     0.56562   0.38502   0.48045   0.00000  Uiso   1.00
H569   H     0.87712   0.17106   0.53516   0.00000  Uiso   1.00
H570   H     0.61477   0.06489   0.47981   0.00000  Uiso   1.00
H571   H     0.82960   0.37755   0.53524   0.00000  Uiso   1.00
H572   H     0.60338   0.49344   0.96831   0.00000  Uiso   1.00
H573   H     0.94705   0.18235   0.62408   0.00000  Uiso   1.00
H574   H     0.89440   0.02610   0.03205   0.00000  Uiso   1.00
H575   H     0.57132   0.37792   0.96496   0.00000  Uiso   1.00
H576   H     0.87199   0.17254   0.02104   0.00000  Uiso   1.00
H577   H     0.89658   0.00677   0.96905   0.00000  Uiso   1.00
H578   H     0.60541   0.47431   0.03116   0.00000  Uiso   1.00
H579   H     0.90607   0.13593   0.97603   0.00000  Uiso   1.00
H580   H     0.51930   0.36705   0.06787   0.00000  Uiso   1.00
O581   O     0.75000   0.00000   0.25000   0.00000  Uiso   1.00
O582   O     0.75000   0.46539   0.66251   0.00000  Uiso   1.00
O583   O     0.96539   0.25000   0.33749   0.00000  Uiso   1.00
O584   O     0.53462   0.25000   0.66251   0.00000  Uiso   1.00
O585   O     0.50000   0.21539   0.83749   0.00000  Uiso   1.00
O586   O     0.50000   0.28462   0.16251   0.00000  Uiso   1.00
O587   O     0.78462   0.00000   0.83749   0.00000  Uiso   1.00
O588   O     0.71539   0.00000   0.16251   0.00000  Uiso   1.00
O589   O     0.50000   0.28462   0.83749   0.00000  Uiso   1.00
O590   O     0.50000   0.21539   0.16251   0.00000  Uiso   1.00
O591   O     0.71539   0.00000   0.83749   0.00000  Uiso   1.00
O592   O     0.75000   0.00000   0.75000   0.00000  Uiso   1.00
O593   O     0.78462   0.00000   0.16251   0.00000  Uiso   1.00
O594   O     0.70127   0.08332   0.27298   0.00000  Uiso   1.00
O595   O     0.79874   0.41668   0.72702   0.00000  Uiso   1.00
O596   O     0.91668   0.20127   0.27298   0.00000  Uiso   1.00
O597   O     0.58332   0.29874   0.72702   0.00000  Uiso   1.00
O598   O     0.79874   0.41668   0.27298   0.00000  Uiso   1.00
O599   O     0.70127   0.08332   0.72702   0.00000  Uiso   1.00
O600   O     0.58332   0.29874   0.27298   0.00000  Uiso   1.00
O601   O     0.91668   0.20127   0.72702   0.00000  Uiso   1.00
O602   O     0.70127   0.41668   0.72702   0.00000  Uiso   1.00
O603   O     0.50000   0.25000   0.25000   0.00000  Uiso   1.00
O604   O     0.79874   0.08332   0.27298   0.00000  Uiso   1.00
O605   O     0.91668   0.29874   0.72702   0.00000  Uiso   1.00
O606   O     0.58332   0.20127   0.27298   0.00000  Uiso   1.00
O607   O     0.79874   0.08332   0.72702   0.00000  Uiso   1.00
O608   O     0.70127   0.41668   0.27298   0.00000  Uiso   1.00
O609   O     0.58332   0.20127   0.72702   0.00000  Uiso   1.00
O610   O     0.91668   0.29874   0.27298   0.00000  Uiso   1.00
O611   O     0.95127   0.33332   0.77298   0.00000  Uiso   1.00
O612   O     0.54874   0.16668   0.22702   0.00000  Uiso   1.00
O613   O     0.66668   0.45127   0.77298   0.00000  Uiso   1.00
O614   O     0.50000   0.25000   0.75000   0.00000  Uiso   1.00
O615   O     0.83332   0.04874   0.22702   0.00000  Uiso   1.00
O616   O     0.54874   0.16668   0.77298   0.00000  Uiso   1.00
O617   O     0.95127   0.33332   0.22702   0.00000  Uiso   1.00
O618   O     0.83332   0.04874   0.77298   0.00000  Uiso   1.00
O619   O     0.66668   0.45127   0.22702   0.00000  Uiso   1.00
O620   O     0.95127   0.16668   0.22702   0.00000  Uiso   1.00
O621   O     0.54874   0.33332   0.77298   0.00000  Uiso   1.00
O622   O     0.66668   0.04874   0.22702   0.00000  Uiso   1.00
O623   O     0.83332   0.45127   0.77298   0.00000  Uiso   1.00
O624   O     0.54874   0.33332   0.22702   0.00000  Uiso   1.00
O625   O     0.75000   0.46539   0.33749   0.00000  Uiso   1.00
O626   O     0.95127   0.16668   0.77298   0.00000  Uiso   1.00
O627   O     0.83332   0.45127   0.22702   0.00000  Uiso   1.00
O628   O     0.66668   0.04874   0.77298   0.00000  Uiso   1.00
O629   O     0.86749   0.17705   0.46703   0.00000  Uiso   1.00
O630   O     0.60501   0.31036   0.56558   0.00000  Uiso   1.00
O631   O     0.82391   0.36813   0.46702   0.00000  Uiso   1.00
O632   O     0.68917   0.10453   0.56558   0.00000  Uiso   1.00
O633   O     0.52870   0.37244   0.43560   0.00000  Uiso   1.00
O634   O     0.88306   0.21931   0.57139   0.00000  Uiso   1.00
O635   O     0.62754   0.02805   0.43495   0.00000  Uiso   1.00
O636   O     0.75000   0.03462   0.66251   0.00000  Uiso   1.00
O637   O     0.78127   0.38315   0.57117   0.00000  Uiso   1.00
O638   O     0.63487   0.46203   0.92791   0.00000  Uiso   1.00
O639   O     0.87101   0.48754   0.07165   0.00000  Uiso   1.00
O640   O     0.52363   0.36899   0.92870   0.00000  Uiso   1.00
O641   O     0.88299   0.20813   0.06710   0.00000  Uiso   1.00
O642   O     0.86513   0.03824   0.92880   0.00000  Uiso   1.00
O643   O     0.62884   0.01283   0.07115   0.00000  Uiso   1.00
O644   O     0.94698   0.14187   0.93332   0.00000  Uiso   1.00
O645   O     0.56467   0.38714   0.03311   0.00000  Uiso   1.00
O646   O     0.53462   0.25000   0.33749   0.00000  Uiso   1.00
O647   O     0.96539   0.25000   0.66251   0.00000  Uiso   1.00
O648   O     0.75000   0.03462   0.33749   0.00000  Uiso   1.00
Zn649  Zn    0.70053   0.00000   0.21730   0.00000  Uiso   1.00
Zn650  Zn    0.54948   0.25000   0.28270   0.00000  Uiso   1.00
Zn651  Zn    0.75000   0.45053   0.71730   0.00000  Uiso   1.00
Zn652  Zn    0.75000   0.04948   0.28270   0.00000  Uiso   1.00
Zn653  Zn    0.54948   0.25000   0.71730   0.00000  Uiso   1.00
Zn654  Zn    0.95053   0.25000   0.28270   0.00000  Uiso   1.00
Zn655  Zn    0.75000   0.04948   0.71730   0.00000  Uiso   1.00
Zn656  Zn    0.75000   0.45053   0.28270   0.00000  Uiso   1.00
Zn657  Zn    0.79948   0.00000   0.78270   0.00000  Uiso   1.00
Zn658  Zn    0.50000   0.20053   0.21730   0.00000  Uiso   1.00
Zn659  Zn    0.50000   0.29948   0.78270   0.00000  Uiso   1.00
Zn660  Zn    0.79948   0.00000   0.21730   0.00000  Uiso   1.00
Zn661  Zn    0.70053   0.00000   0.78270   0.00000  Uiso   1.00
Zn662  Zn    0.50000   0.29948   0.21730   0.00000  Uiso   1.00
Zn663  Zn    0.50000   0.20053   0.78270   0.00000  Uiso   1.00
Zn664  Zn    0.95053   0.25000   0.71730   0.00000  Uiso   1.00
C665   C     0.24945   0.50027   0.35618   0.00000  Uiso   1.00
C666   C     0.33003   0.91995   0.75000   0.00000  Uiso   1.00
C667   C     0.43590   0.70320   0.01905   0.00000  Uiso   1.00
C668   C     0.32679   0.50738   0.97990   0.00000  Uiso   1.00
C669   C     0.17334   0.99032   0.02044   0.00000  Uiso   1.00
C670   C     0.44140   0.69735   0.97903   0.00000  Uiso   1.00
C671   C     0.03225   0.82100   0.02017   0.00000  Uiso   1.00
C672   C     0.06874   0.79428   0.40102   0.00000  Uiso   1.00
C673   C     0.10078   0.75827   0.39953   0.00000  Uiso   1.00
C674   C     0.46733   0.67872   0.59809   0.00000  Uiso   1.00
C675   C     0.00764   0.65499   0.60866   0.00000  Uiso   1.00
C676   C     0.20550   0.56856   0.40091   0.00000  Uiso   1.00
C677   C     0.42000   0.66995   0.24998   0.00000  Uiso   1.00
C678   C     0.24136   0.60080   0.39968   0.00000  Uiso   1.00
C679   C     0.32142   0.96755   0.59850   0.00000  Uiso   1.00
C680   C     0.34502   0.50794   0.60936   0.00000  Uiso   1.00
C681   C     0.45931   0.68272   0.40028   0.00000  Uiso   1.00
C682   C     0.49680   0.65553   0.38781   0.00000  Uiso   1.00
C683   C     0.02520   0.82834   0.60564   0.00000  Uiso   1.00
C684   C     0.48434   0.84811   0.62057   0.00000  Uiso   1.00
C685   C     0.31761   0.95989   0.40051   0.00000  Uiso   1.00
C686   C     0.34457   0.99756   0.38823   0.00000  Uiso   1.00
C687   C     0.17151   0.52451   0.60520   0.00000  Uiso   1.00
C688   C     0.08000   0.83005   0.75002   0.00000  Uiso   1.00
C689   C     0.15193   0.98347   0.61974   0.00000  Uiso   1.00
C690   C     0.31998   0.95880   0.90298   0.00000  Uiso   1.00
C691   C     0.30079   0.91719   0.88897   0.00000  Uiso   1.00
C692   C     0.18957   0.94605   0.09823   0.00000  Uiso   1.00
C693   C     0.21647   0.90933   0.11271   0.00000  Uiso   1.00
C694   C     0.42319   0.72059   0.89483   0.00000  Uiso   1.00
C695   C     0.40147   0.76016   0.87941   0.00000  Uiso   1.00
C696   C     0.06490   0.79575   0.09970   0.00000  Uiso   1.00
C697   C     0.09444   0.76060   0.11326   0.00000  Uiso   1.00
C698   C     0.18020   0.54143   0.90304   0.00000  Uiso   1.00
C699   C     0.33002   0.92001   0.25000   0.00000  Uiso   1.00
C700   C     0.19952   0.58298   0.88942   0.00000  Uiso   1.00
C701   C     0.31008   0.55426   0.09884   0.00000  Uiso   1.00
C702   C     0.28304   0.59089   0.11350   0.00000  Uiso   1.00
C703   C     0.06923   0.78739   0.90185   0.00000  Uiso   1.00
C704   C     0.09524   0.74863   0.89075   0.00000  Uiso   1.00
C705   C     0.46541   0.67603   0.09747   0.00000  Uiso   1.00
C706   C     0.00564   0.64959   0.10036   0.00000  Uiso   1.00
C707   C     0.39165   0.70521   0.45799   0.00000  Uiso   1.00
C708   C     0.08941   0.82739   0.53730   0.00000  Uiso   1.00
C709   C     0.29557   0.89206   0.45791   0.00000  Uiso   1.00
C710   C     0.16998   0.58000   0.75001   0.00000  Uiso   1.00
C711   C     0.17225   0.58889   0.53711   0.00000  Uiso   1.00
C712   C     0.04697   0.86166   0.46515   0.00000  Uiso   1.00
C713   C     0.39472   0.69896   0.54326   0.00000  Uiso   1.00
C714   C     0.13823   0.54638   0.46461   0.00000  Uiso   1.00
C715   C     0.30161   0.89498   0.54322   0.00000  Uiso   1.00
C716   C     0.13373   0.98288   0.95774   0.00000  Uiso   1.00
C717   C     0.36729   0.50870   0.04235   0.00000  Uiso   1.00
C718   C     0.04458   0.85862   0.95682   0.00000  Uiso   1.00
C719   C     0.39416   0.69258   0.03633   0.00000  Uiso   1.00
C720   C     0.36624   0.51734   0.95844   0.00000  Uiso   1.00
C721   C     0.08005   0.82998   0.25001   0.00000  Uiso   1.00
C722   C     0.13256   0.99163   0.04172   0.00000  Uiso   1.00
C723   C     0.42922   0.65577   0.96204   0.00000  Uiso   1.00
C724   C     0.03804   0.86127   0.04208   0.00000  Uiso   1.00
C725   C     0.41996   0.67001   0.74998   0.00000  Uiso   1.00
C726   C     0.16998   0.91997   0.74996   0.00000  Uiso   1.00
C727   C     0.33000   0.58005   0.25002   0.00000  Uiso   1.00
C728   C     0.41997   0.83004   0.75001   0.00000  Uiso   1.00
C729   C     0.24993   0.99982   0.64407   0.00000  Uiso   1.00
C730   C     0.08003   0.66995   0.24999   0.00000  Uiso   1.00
C731   C     0.33004   0.57999   0.75002   0.00000  Uiso   1.00
C732   C     0.16998   0.91999   0.24995   0.00000  Uiso   1.00
C733   C     0.08002   0.67000   0.74999   0.00000  Uiso   1.00
C734   C     0.41998   0.83000   0.25001   0.00000  Uiso   1.00
C735   C     0.13833   0.88834   0.24993   0.00000  Uiso   1.00
C736   C     0.36170   0.61163   0.75003   0.00000  Uiso   1.00
C737   C     0.11166   0.63832   0.25000   0.00000  Uiso   1.00
C738   C     0.38834   0.86168   0.75002   0.00000  Uiso   1.00
C739   C     0.36164   0.61169   0.25003   0.00000  Uiso   1.00
C740   C     0.00023   0.75057   0.35619   0.00000  Uiso   1.00
C741   C     0.13835   0.88832   0.74995   0.00000  Uiso   1.00
C742   C     0.38833   0.86166   0.25003   0.00000  Uiso   1.00
C743   C     0.11168   0.63835   0.74999   0.00000  Uiso   1.00
C744   C     0.13833   0.61165   0.75002   0.00000  Uiso   1.00
C745   C     0.36168   0.88836   0.25000   0.00000  Uiso   1.00
C746   C     0.11163   0.86171   0.75002   0.00000  Uiso   1.00
C747   C     0.38836   0.63831   0.24996   0.00000  Uiso   1.00
C748   C     0.36166   0.88832   0.75000   0.00000  Uiso   1.00
C749   C     0.13834   0.61168   0.25002   0.00000  Uiso   1.00
C750   C     0.38831   0.63837   0.74996   0.00000  Uiso   1.00
C751   C     0.49987   0.75007   0.64407   0.00000  Uiso   1.00
C752   C     0.11171   0.86162   0.25001   0.00000  Uiso   1.00
C753   C     0.02747   0.77965   0.41965   0.00000  Uiso   1.00
C754   C     0.47692   0.72163   0.58021   0.00000  Uiso   1.00
C755   C     0.22033   0.52739   0.41954   0.00000  Uiso   1.00
C756   C     0.27851   0.97698   0.58033   0.00000  Uiso   1.00
C757   C     0.47337   0.72407   0.41954   0.00000  Uiso   1.00
C758   C     0.01684   0.78769   0.58282   0.00000  Uiso   1.00
C759   C     0.27619   0.97366   0.41960   0.00000  Uiso   1.00
C760   C     0.21225   0.51650   0.58263   0.00000  Uiso   1.00
C761   C     0.28676   0.98848   0.91998   0.00000  Uiso   1.00
C762   C     0.49996   0.75019   0.85593   0.00000  Uiso   1.00
C763   C     0.21632   0.98116   0.08052   0.00000  Uiso   1.00
C764   C     0.46350   0.73124   0.91730   0.00000  Uiso   1.00
C765   C     0.02477   0.77847   0.08047   0.00000  Uiso   1.00
C766   C     0.21333   0.51164   0.91991   0.00000  Uiso   1.00
C767   C     0.28346   0.51904   0.08080   0.00000  Uiso   1.00
C768   C     0.02694   0.77519   0.91973   0.00000  Uiso   1.00
C769   C     0.47469   0.71937   0.07996   0.00000  Uiso   1.00
C770   C     0.00061   0.75140   0.39911   0.00000  Uiso   1.00
C771   C     0.49902   0.75253   0.60170   0.00000  Uiso   1.00
C772   C     0.24870   0.50071   0.39910   0.00000  Uiso   1.00
C773   C     0.49976   0.74968   0.14377   0.00000  Uiso   1.00
C774   C     0.24749   0.99888   0.60169   0.00000  Uiso   1.00
C775   C     0.25006   0.50005   0.89895   0.00000  Uiso   1.00
C776   C     0.24990   0.50008   0.10141   0.00000  Uiso   1.00
C777   C     0.49744   0.75117   0.89829   0.00000  Uiso   1.00
C778   C     0.49972   0.74901   0.10080   0.00000  Uiso   1.00
C779   C     0.46615   0.73136   0.45962   0.00000  Uiso   1.00
C780   C     0.02073   0.78613   0.54186   0.00000  Uiso   1.00
C781   C     0.26896   0.96636   0.45962   0.00000  Uiso   1.00
C782   C     0.21384   0.52047   0.54169   0.00000  Uiso   1.00
C783   C     0.02053   0.78636   0.45984   0.00000  Uiso   1.00
C784   C     0.25003   0.50001   0.85617   0.00000  Uiso   1.00
C785   C     0.46751   0.73011   0.54084   0.00000  Uiso   1.00
C786   C     0.21366   0.52039   0.45967   0.00000  Uiso   1.00
C787   C     0.27013   0.96759   0.54087   0.00000  Uiso   1.00
C788   C     0.21153   0.50049   0.95953   0.00000  Uiso   1.00
C789   C     0.28747   0.50894   0.04098   0.00000  Uiso   1.00
C790   C     0.01794   0.78404   0.95913   0.00000  Uiso   1.00
C791   C     0.46660   0.72641   0.04010   0.00000  Uiso   1.00
C792   C     0.28848   0.99960   0.95971   0.00000  Uiso   1.00
C793   C     0.21238   0.99122   0.04075   0.00000  Uiso   1.00
C794   C     0.46563   0.72717   0.95819   0.00000  Uiso   1.00
C795   C     0.24996   0.50002   0.14397   0.00000  Uiso   1.00
C796   C     0.01699   0.78513   0.04038   0.00000  Uiso   1.00
C797   C     0.49323   0.75903   0.48002   0.00000  Uiso   1.00
C798   C     0.49337   0.75895   0.52092   0.00000  Uiso   1.00
C799   C     0.24113   0.99324   0.47994   0.00000  Uiso   1.00
C800   C     0.24118   0.99332   0.52084   0.00000  Uiso   1.00
C801   C     0.24999   0.50004   0.98002   0.00000  Uiso   1.00
C802   C     0.24995   0.50005   0.02050   0.00000  Uiso   1.00
C803   C     0.49102   0.75623   0.97910   0.00000  Uiso   1.00
C804   C     0.49130   0.75611   0.01997   0.00000  Uiso   1.00
C805   C     0.43147   0.71358   0.47985   0.00000  Uiso   1.00
C806   C     0.16997   0.58004   0.25001   0.00000  Uiso   1.00
C807   C     0.04843   0.81265   0.52093   0.00000  Uiso   1.00
C808   C     0.28692   0.93177   0.47985   0.00000  Uiso   1.00
C809   C     0.18720   0.54804   0.52069   0.00000  Uiso   1.00
C810   C     0.04142   0.81845   0.48116   0.00000  Uiso   1.00
C811   C     0.43262   0.71212   0.52098   0.00000  Uiso   1.00
C812   C     0.18146   0.54106   0.48086   0.00000  Uiso   1.00
C813   C     0.28832   0.93285   0.52100   0.00000  Uiso   1.00
C814   C     0.17317   0.99278   0.97948   0.00000  Uiso   1.00
C815   C     0.32654   0.50988   0.02088   0.00000  Uiso   1.00
C816   C     0.03373   0.81998   0.97903   0.00000  Uiso   1.00
H817   H     0.11097   0.75020   0.42944   0.00000  Uiso   1.00
H818   H     0.45051   0.65776   0.57752   0.00000  Uiso   1.00
H819   H     0.24944   0.61100   0.42965   0.00000  Uiso   1.00
H820   H     0.27021   0.58778   0.38612   0.00000  Uiso   1.00
H821   H     0.23118   0.62883   0.38295   0.00000  Uiso   1.00
H822   H     0.19186   0.56287   0.37173   0.00000  Uiso   1.00
H823   H     0.18017   0.58462   0.41693   0.00000  Uiso   1.00
H824   H     0.34755   0.52887   0.58372   0.00000  Uiso   1.00
H825   H     0.32911   0.52517   0.63318   0.00000  Uiso   1.00
H826   H     0.37730   0.99991   0.61933   0.00000  Uiso   1.00
H827   H     0.31781   0.94723   0.62441   0.00000  Uiso   1.00
H828   H     0.08757   0.72946   0.38590   0.00000  Uiso   1.00
H829   H     0.34248   0.95084   0.57804   0.00000  Uiso   1.00
H830   H     0.01407   0.66961   0.36317   0.00000  Uiso   1.00
H831   H     0.01884   0.65116   0.41254   0.00000  Uiso   1.00
H832   H     0.48534   0.62408   0.37830   0.00000  Uiso   1.00
H833   H     0.44155   0.66236   0.42038   0.00000  Uiso   1.00
H834   H     0.43839   0.68891   0.37514   0.00000  Uiso   1.00
H835   H     0.46176   0.85249   0.59626   0.00000  Uiso   1.00
H836   H     0.46942   0.82858   0.64324   0.00000  Uiso   1.00
H837   H     0.49129   0.87942   0.63357   0.00000  Uiso   1.00
H838   H     0.04710   0.82241   0.63014   0.00000  Uiso   1.00
H839   H     0.12885   0.76830   0.38276   0.00000  Uiso   1.00
H840   H     0.03965   0.85308   0.58758   0.00000  Uiso   1.00
H841   H     0.33036   0.51471   0.36356   0.00000  Uiso   1.00
H842   H     0.34881   0.51964   0.41302   0.00000  Uiso   1.00
H843   H     0.37608   0.98632   0.37887   0.00000  Uiso   1.00
H844   H     0.33810   0.94228   0.42067   0.00000  Uiso   1.00
H845   H     0.31151   0.93893   0.37530   0.00000  Uiso   1.00
H846   H     0.14760   0.96103   0.59523   0.00000  Uiso   1.00
H847   H     0.17158   0.96850   0.64236   0.00000  Uiso   1.00
H848   H     0.12061   0.99017   0.63266   0.00000  Uiso   1.00
H849   H     0.17730   0.54633   0.62988   0.00000  Uiso   1.00
H850   H     0.06314   0.80796   0.37194   0.00000  Uiso   1.00
H851   H     0.14673   0.53891   0.58706   0.00000  Uiso   1.00
H852   H     0.28256   0.90231   0.91274   0.00000  Uiso   1.00
H853   H     0.27984   0.92175   0.86360   0.00000  Uiso   1.00
H854   H     0.32638   0.89534   0.88014   0.00000  Uiso   1.00
H855   H     0.33807   0.97407   0.87944   0.00000  Uiso   1.00
H856   H     0.34333   0.94961   0.92535   0.00000  Uiso   1.00
H857   H     0.23547   0.91834   0.13844   0.00000  Uiso   1.00
H858   H     0.19564   0.88285   0.12126   0.00000  Uiso   1.00
H859   H     0.23782   0.89818   0.08933   0.00000  Uiso   1.00
H860   H     0.16930   0.95824   0.12188   0.00000  Uiso   1.00
H861   H     0.08495   0.81952   0.41715   0.00000  Uiso   1.00
H862   H     0.16828   0.93186   0.07626   0.00000  Uiso   1.00
H863   H     0.39628   0.78307   0.90338   0.00000  Uiso   1.00
H864   H     0.42012   0.77542   0.85629   0.00000  Uiso   1.00
H865   H     0.37039   0.75152   0.86684   0.00000  Uiso   1.00
H866   H     0.43000   0.69849   0.87061   0.00000  Uiso   1.00
H867   H     0.39927   0.70536   0.91334   0.00000  Uiso   1.00
H868   H     0.08153   0.74352   0.13853   0.00000  Uiso   1.00
H869   H     0.10019   0.73789   0.08924   0.00000  Uiso   1.00
H870   H     0.12511   0.77442   0.12224   0.00000  Uiso   1.00
H871   H     0.08428   0.81415   0.07924   0.00000  Uiso   1.00
H872   H     0.02852   0.65242   0.58293   0.00000  Uiso   1.00
H873   H     0.05708   0.81702   0.12424   0.00000  Uiso   1.00
H874   H     0.21785   0.59778   0.91335   0.00000  Uiso   1.00
H875   H     0.22041   0.57835   0.86406   0.00000  Uiso   1.00
H876   H     0.17400   0.60492   0.88071   0.00000  Uiso   1.00
H877   H     0.16204   0.52623   0.87934   0.00000  Uiso   1.00
H878   H     0.15689   0.55069   0.92542   0.00000  Uiso   1.00
H879   H     0.26166   0.60194   0.09011   0.00000  Uiso   1.00
H880   H     0.26408   0.58182   0.13909   0.00000  Uiso   1.00
H881   H     0.30377   0.61745   0.12231   0.00000  Uiso   1.00
H882   H     0.33040   0.54218   0.12249   0.00000  Uiso   1.00
H883   H     0.02497   0.67084   0.63253   0.00000  Uiso   1.00
H884   H     0.33131   0.56851   0.07705   0.00000  Uiso   1.00
H885   H     0.09888   0.72755   0.91618   0.00000  Uiso   1.00
H886   H     0.08049   0.73080   0.86660   0.00000  Uiso   1.00
H887   H     0.12703   0.75873   0.88113   0.00000  Uiso   1.00
H888   H     0.06450   0.80777   0.87614   0.00000  Uiso   1.00
H889   H     0.08920   0.80512   0.92261   0.00000  Uiso   1.00
H890   H     0.03134   0.66640   0.11576   0.00000  Uiso   1.00
H891   H     0.49882   0.61988   0.11604   0.00000  Uiso   1.00
H892   H     0.01699   0.64153   0.07078   0.00000  Uiso   1.00
H893   H     0.44921   0.67895   0.12581   0.00000  Uiso   1.00
H894   H     0.49949   0.62273   0.61846   0.00000  Uiso   1.00
H895   H     0.44400   0.65655   0.07969   0.00000  Uiso   1.00
H896   H     0.38474   0.72345   0.43218   0.00000  Uiso   1.00
H897   H     0.10732   0.85195   0.52313   0.00000  Uiso   1.00
H898   H     0.27736   0.88503   0.43199   0.00000  Uiso   1.00
H899   H     0.14763   0.60670   0.52284   0.00000  Uiso   1.00
H900   H     0.06562   0.88502   0.48045   0.00000  Uiso   1.00
H901   H     0.37712   0.67106   0.53516   0.00000  Uiso   1.00
H902   H     0.11477   0.56489   0.47981   0.00000  Uiso   1.00
H903   H     0.32960   0.87755   0.53524   0.00000  Uiso   1.00
H904   H     0.10338   0.99344   0.96831   0.00000  Uiso   1.00
H905   H     0.44705   0.68235   0.62408   0.00000  Uiso   1.00
H906   H     0.39440   0.52610   0.03205   0.00000  Uiso   1.00
H907   H     0.07132   0.87792   0.96496   0.00000  Uiso   1.00
H908   H     0.37199   0.67254   0.02104   0.00000  Uiso   1.00
H909   H     0.39658   0.50677   0.96905   0.00000  Uiso   1.00
H910   H     0.10541   0.97431   0.03116   0.00000  Uiso   1.00
H911   H     0.40607   0.63593   0.97603   0.00000  Uiso   1.00
H912   H     0.01930   0.86705   0.06787   0.00000  Uiso   1.00
O913   O     0.25000   0.50000   0.25000   0.00000  Uiso   1.00
O914   O     0.25000   0.96539   0.66251   0.00000  Uiso   1.00
O915   O     0.46539   0.75000   0.33749   0.00000  Uiso   1.00
O916   O     0.03462   0.75000   0.66251   0.00000  Uiso   1.00
O917   O     0.00000   0.71539   0.83749   0.00000  Uiso   1.00
O918   O     0.00000   0.78462   0.16251   0.00000  Uiso   1.00
O919   O     0.28462   0.50000   0.83749   0.00000  Uiso   1.00
O920   O     0.21539   0.50000   0.16251   0.00000  Uiso   1.00
O921   O     0.00000   0.78462   0.83749   0.00000  Uiso   1.00
O922   O     0.00000   0.71539   0.16251   0.00000  Uiso   1.00
O923   O     0.21539   0.50000   0.83749   0.00000  Uiso   1.00
O924   O     0.25000   0.50000   0.75000   0.00000  Uiso   1.00
O925   O     0.28462   0.50000   0.16251   0.00000  Uiso   1.00
O926   O     0.20127   0.58332   0.27298   0.00000  Uiso   1.00
O927   O     0.29874   0.91668   0.72702   0.00000  Uiso   1.00
O928   O     0.41668   0.70127   0.27298   0.00000  Uiso   1.00
O929   O     0.08332   0.79874   0.72702   0.00000  Uiso   1.00
O930   O     0.29874   0.91668   0.27298   0.00000  Uiso   1.00
O931   O     0.20127   0.58332   0.72702   0.00000  Uiso   1.00
O932   O     0.08332   0.79874   0.27298   0.00000  Uiso   1.00
O933   O     0.41668   0.70127   0.72702   0.00000  Uiso   1.00
O934   O     0.20127   0.91668   0.72702   0.00000  Uiso   1.00
O935   O     0.00000   0.75000   0.25000   0.00000  Uiso   1.00
O936   O     0.29874   0.58332   0.27298   0.00000  Uiso   1.00
O937   O     0.41668   0.79874   0.72702   0.00000  Uiso   1.00
O938   O     0.08332   0.70127   0.27298   0.00000  Uiso   1.00
O939   O     0.29874   0.58332   0.72702   0.00000  Uiso   1.00
O940   O     0.20127   0.91668   0.27298   0.00000  Uiso   1.00
O941   O     0.08332   0.70127   0.72702   0.00000  Uiso   1.00
O942   O     0.41668   0.79874   0.27298   0.00000  Uiso   1.00
O943   O     0.45127   0.83332   0.77298   0.00000  Uiso   1.00
O944   O     0.04874   0.66668   0.22702   0.00000  Uiso   1.00
O945   O     0.16668   0.95127   0.77298   0.00000  Uiso   1.00
O946   O     0.00000   0.75000   0.75000   0.00000  Uiso   1.00
O947   O     0.33332   0.54874   0.22702   0.00000  Uiso   1.00
O948   O     0.04874   0.66668   0.77298   0.00000  Uiso   1.00
O949   O     0.45127   0.83332   0.22702   0.00000  Uiso   1.00
O950   O     0.33332   0.54874   0.77298   0.00000  Uiso   1.00
O951   O     0.16668   0.95127   0.22702   0.00000  Uiso   1.00
O952   O     0.45127   0.66668   0.22702   0.00000  Uiso   1.00
O953   O     0.04874   0.83332   0.77298   0.00000  Uiso   1.00
O954   O     0.16668   0.54874   0.22702   0.00000  Uiso   1.00
O955   O     0.33332   0.95127   0.77298   0.00000  Uiso   1.00
O956   O     0.04874   0.83332   0.22702   0.00000  Uiso   1.00
O957   O     0.25000   0.96539   0.33749   0.00000  Uiso   1.00
O958   O     0.45127   0.66668   0.77298   0.00000  Uiso   1.00
O959   O     0.33332   0.95127   0.22702   0.00000  Uiso   1.00
O960   O     0.16668   0.54874   0.77298   0.00000  Uiso   1.00
O961   O     0.36749   0.67705   0.46703   0.00000  Uiso   1.00
O962   O     0.10501   0.81036   0.56558   0.00000  Uiso   1.00
O963   O     0.32391   0.86813   0.46702   0.00000  Uiso   1.00
O964   O     0.18917   0.60453   0.56558   0.00000  Uiso   1.00
O965   O     0.02870   0.87244   0.43560   0.00000  Uiso   1.00
O966   O     0.38306   0.71931   0.57139   0.00000  Uiso   1.00
O967   O     0.12754   0.52805   0.43495   0.00000  Uiso   1.00
O968   O     0.25000   0.53462   0.66251   0.00000  Uiso   1.00
O969   O     0.28127   0.88315   0.57117   0.00000  Uiso   1.00
O970   O     0.13487   0.96203   0.92791   0.00000  Uiso   1.00
O971   O     0.37101   0.98754   0.07165   0.00000  Uiso   1.00
O972   O     0.02363   0.86899   0.92870   0.00000  Uiso   1.00
O973   O     0.38299   0.70813   0.06710   0.00000  Uiso   1.00
O974   O     0.36513   0.53824   0.92880   0.00000  Uiso   1.00
O975   O     0.12884   0.51283   0.07115   0.00000  Uiso   1.00
O976   O     0.44698   0.64187   0.93332   0.00000  Uiso   1.00
O977   O     0.06467   0.88714   0.03311   0.00000  Uiso   1.00
O978   O     0.03462   0.75000   0.33749   0.00000  Uiso   1.00
O979   O     0.46539   0.75000   0.66251   0.00000  Uiso   1.00
O980   O     0.25000   0.53462   0.33749   0.00000  Uiso   1.00
Zn981  Zn    0.20053   0.50000   0.21730   0.00000  Uiso   1.00
Zn982  Zn    0.04948   0.75000   0.28270   0.00000  Uiso   1.00
Zn983  Zn    0.25000   0.95053   0.71730   0.00000  Uiso   1.00
Zn984  Zn    0.25000   0.54948   0.28270   0.00000  Uiso   1.00
Zn985  Zn    0.04948   0.75000   0.71730   0.00000  Uiso   1.00
Zn986  Zn    0.45053   0.75000   0.28270   0.00000  Uiso   1.00
Zn987  Zn    0.25000   0.54948   0.71730   0.00000  Uiso   1.00
Zn988  Zn    0.25000   0.95053   0.28270   0.00000  Uiso   1.00
Zn989  Zn    0.29948   0.50000   0.78270   0.00000  Uiso   1.00
Zn990  Zn    0.00000   0.70053   0.21730   0.00000  Uiso   1.00
Zn991  Zn    0.00000   0.79948   0.78270   0.00000  Uiso   1.00
Zn992  Zn    0.29948   0.50000   0.21730   0.00000  Uiso   1.00
Zn993  Zn    0.20053   0.50000   0.78270   0.00000  Uiso   1.00
Zn994  Zn    0.00000   0.79948   0.21730   0.00000  Uiso   1.00
Zn995  Zn    0.00000   0.70053   0.78270   0.00000  Uiso   1.00
Zn996  Zn    0.45053   0.75000   0.71730   0.00000  Uiso   1.00
C997   C     0.74945   0.50027   0.35618   0.00000  Uiso   1.00
C998   C     0.83003   0.91995   0.75000   0.00000  Uiso   1.00
C999   C     0.93590   0.70320   0.01905   0.00000  Uiso   1.00
C1000  C     0.82679   0.50738   0.97990   0.00000  Uiso   1.00
C1001  C     0.67334   0.99032   0.02044   0.00000  Uiso   1.00
C1002  C     0.94140   0.69735   0.97903   0.00000  Uiso   1.00
C1003  C     0.53225   0.82100   0.02017   0.00000  Uiso   1.00
C1004  C     0.56874   0.79428   0.40102   0.00000  Uiso   1.00
C1005  C     0.60078   0.75827   0.39953   0.00000  Uiso   1.00
C1006  C     0.96733   0.67872   0.59809   0.00000  Uiso   1.00
C1007  C     0.50764   0.65499   0.60866   0.00000  Uiso   1.00
C1008  C     0.70550   0.56856   0.40091   0.00000  Uiso   1.00
C1009  C     0.92000   0.66995   0.24998   0.00000  Uiso   1.00
C1010  C     0.74136   0.60080   0.39968   0.00000  Uiso   1.00
C1011  C     0.82142   0.96755   0.59850   0.00000  Uiso   1.00
C1012  C     0.84502   0.50794   0.60936   0.00000  Uiso   1.00
C1013  C     0.95931   0.68272   0.40028   0.00000  Uiso   1.00
C1014  C     0.99680   0.65553   0.38781   0.00000  Uiso   1.00
C1015  C     0.52520   0.82834   0.60564   0.00000  Uiso   1.00
C1016  C     0.98434   0.84811   0.62057   0.00000  Uiso   1.00
C1017  C     0.81761   0.95989   0.40051   0.00000  Uiso   1.00
C1018  C     0.84457   0.99756   0.38823   0.00000  Uiso   1.00
C1019  C     0.67151   0.52451   0.60520   0.00000  Uiso   1.00
C1020  C     0.58000   0.83005   0.75002   0.00000  Uiso   1.00
C1021  C     0.65193   0.98347   0.61974   0.00000  Uiso   1.00
C1022  C     0.81998   0.95880   0.90298   0.00000  Uiso   1.00
C1023  C     0.80079   0.91719   0.88897   0.00000  Uiso   1.00
C1024  C     0.68957   0.94605   0.09823   0.00000  Uiso   1.00
C1025  C     0.71647   0.90933   0.11271   0.00000  Uiso   1.00
C1026  C     0.92319   0.72059   0.89483   0.00000  Uiso   1.00
C1027  C     0.90147   0.76016   0.87941   0.00000  Uiso   1.00
C1028  C     0.56490   0.79575   0.09970   0.00000  Uiso   1.00
C1029  C     0.59444   0.76060   0.11326   0.00000  Uiso   1.00
C1030  C     0.68020   0.54143   0.90304   0.00000  Uiso   1.00
C1031  C     0.83002   0.92001   0.25000   0.00000  Uiso   1.00
C1032  C     0.69952   0.58298   0.88942   0.00000  Uiso   1.00
C1033  C     0.81008   0.55426   0.09884   0.00000  Uiso   1.00
C1034  C     0.78304   0.59089   0.11350   0.00000  Uiso   1.00
C1035  C     0.56923   0.78739   0.90185   0.00000  Uiso   1.00
C1036  C     0.59524   0.74863   0.89075   0.00000  Uiso   1.00
C1037  C     0.96541   0.67603   0.09747   0.00000  Uiso   1.00
C1038  C     0.50564   0.64959   0.10036   0.00000  Uiso   1.00
C1039  C     0.89165   0.70521   0.45799   0.00000  Uiso   1.00
C1040  C     0.58941   0.82739   0.53730   0.00000  Uiso   1.00
C1041  C     0.79557   0.89206   0.45791   0.00000  Uiso   1.00
C1042  C     0.66998   0.58000   0.75001   0.00000  Uiso   1.00
C1043  C     0.67225   0.58889   0.53711   0.00000  Uiso   1.00
C1044  C     0.54697   0.86166   0.46515   0.00000  Uiso   1.00
C1045  C     0.89472   0.69896   0.54326   0.00000  Uiso   1.00
C1046  C     0.63823   0.54638   0.46461   0.00000  Uiso   1.00
C1047  C     0.80161   0.89498   0.54322   0.00000  Uiso   1.00
C1048  C     0.63373   0.98288   0.95774   0.00000  Uiso   1.00
C1049  C     0.86729   0.50870   0.04235   0.00000  Uiso   1.00
C1050  C     0.54458   0.85862   0.95682   0.00000  Uiso   1.00
C1051  C     0.89416   0.69258   0.03633   0.00000  Uiso   1.00
C1052  C     0.86624   0.51734   0.95844   0.00000  Uiso   1.00
C1053  C     0.58005   0.82998   0.25001   0.00000  Uiso   1.00
C1054  C     0.63256   0.99163   0.04172   0.00000  Uiso   1.00
C1055  C     0.92922   0.65577   0.96204   0.00000  Uiso   1.00
C1056  C     0.53804   0.86127   0.04208   0.00000  Uiso   1.00
C1057  C     0.91996   0.67001   0.74998   0.00000  Uiso   1.00
C1058  C     0.66998   0.91997   0.74996   0.00000  Uiso   1.00
C1059  C     0.83000   0.58005   0.25002   0.00000  Uiso   1.00
C1060  C     0.91997   0.83004   0.75001   0.00000  Uiso   1.00
C1061  C     0.74993   0.99982   0.64407   0.00000  Uiso   1.00
C1062  C     0.58003   0.66995   0.24999   0.00000  Uiso   1.00
C1063  C     0.83004   0.57999   0.75002   0.00000  Uiso   1.00
C1064  C     0.66998   0.91999   0.24995   0.00000  Uiso   1.00
C1065  C     0.58002   0.67000   0.74999   0.00000  Uiso   1.00
C1066  C     0.91998   0.83000   0.25001   0.00000  Uiso   1.00
C1067  C     0.63833   0.88834   0.24993   0.00000  Uiso   1.00
C1068  C     0.86170   0.61163   0.75003   0.00000  Uiso   1.00
C1069  C     0.61166   0.63832   0.25000   0.00000  Uiso   1.00
C1070  C     0.88834   0.86168   0.75002   0.00000  Uiso   1.00
C1071  C     0.86164   0.61169   0.25003   0.00000  Uiso   1.00
C1072  C     0.50023   0.75057   0.35619   0.00000  Uiso   1.00
C1073  C     0.63835   0.88832   0.74995   0.00000  Uiso   1.00
C1074  C     0.88833   0.86166   0.25003   0.00000  Uiso   1.00
C1075  C     0.61168   0.63835   0.74999   0.00000  Uiso   1.00
C1076  C     0.63833   0.61165   0.75002   0.00000  Uiso   1.00
C1077  C     0.86168   0.88836   0.25000   0.00000  Uiso   1.00
C1078  C     0.61163   0.86171   0.75002   0.00000  Uiso   1.00
C1079  C     0.88836   0.63831   0.24996   0.00000  Uiso   1.00
C1080  C     0.86166   0.88832   0.75000   0.00000  Uiso   1.00
C1081  C     0.63834   0.61168   0.25002   0.00000  Uiso   1.00
C1082  C     0.88831   0.63837   0.74996   0.00000  Uiso   1.00
C1083  C     0.99987   0.75007   0.64407   0.00000  Uiso   1.00
C1084  C     0.61171   0.86162   0.25001   0.00000  Uiso   1.00
C1085  C     0.52747   0.77965   0.41965   0.00000  Uiso   1.00
C1086  C     0.97692   0.72163   0.58021   0.00000  Uiso   1.00
C1087  C     0.72033   0.52739   0.41954   0.00000  Uiso   1.00
C1088  C     0.77851   0.97698   0.58033   0.00000  Uiso   1.00
C1089  C     0.97337   0.72407   0.41954   0.00000  Uiso   1.00
C1090  C     0.51684   0.78769   0.58282   0.00000  Uiso   1.00
C1091  C     0.77619   0.97366   0.41960   0.00000  Uiso   1.00
C1092  C     0.71225   0.51650   0.58263   0.00000  Uiso   1.00
C1093  C     0.78676   0.98848   0.91998   0.00000  Uiso   1.00
C1094  C     0.99996   0.75019   0.85593   0.00000  Uiso   1.00
C1095  C     0.71632   0.98116   0.08052   0.00000  Uiso   1.00
C1096  C     0.96350   0.73124   0.91730   0.00000  Uiso   1.00
C1097  C     0.52477   0.77847   0.08047   0.00000  Uiso   1.00
C1098  C     0.71333   0.51164   0.91991   0.00000  Uiso   1.00
C1099  C     0.78346   0.51904   0.08080   0.00000  Uiso   1.00
C1100  C     0.52694   0.77519   0.91973   0.00000  Uiso   1.00
C1101  C     0.97469   0.71937   0.07996   0.00000  Uiso   1.00
C1102  C     0.50061   0.75140   0.39911   0.00000  Uiso   1.00
C1103  C     0.99902   0.75253   0.60170   0.00000  Uiso   1.00
C1104  C     0.74870   0.50071   0.39910   0.00000  Uiso   1.00
C1105  C     0.99976   0.74968   0.14377   0.00000  Uiso   1.00
C1106  C     0.74749   0.99888   0.60169   0.00000  Uiso   1.00
C1107  C     0.75006   0.50005   0.89895   0.00000  Uiso   1.00
C1108  C     0.74990   0.50008   0.10141   0.00000  Uiso   1.00
C1109  C     0.99744   0.75117   0.89829   0.00000  Uiso   1.00
C1110  C     0.99972   0.74901   0.10080   0.00000  Uiso   1.00
C1111  C     0.96615   0.73136   0.45962   0.00000  Uiso   1.00
C1112  C     0.52073   0.78613   0.54186   0.00000  Uiso   1.00
C1113  C     0.76896   0.96636   0.45962   0.00000  Uiso   1.00
C1114  C     0.71384   0.52047   0.54169   0.00000  Uiso   1.00
C1115  C     0.52053   0.78636   0.45984   0.00000  Uiso   1.00
C1116  C     0.75003   0.50001   0.85617   0.00000  Uiso   1.00
C1117  C     0.96751   0.73011   0.54084   0.00000  Uiso   1.00
C1118  C     0.71366   0.52039   0.45967   0.00000  Uiso   1.00
C1119  C     0.77013   0.96759   0.54087   0.00000  Uiso   1.00
C1120  C     0.71153   0.50049   0.95953   0.00000  Uiso   1.00
C1121  C     0.78747   0.50894   0.04098   0.00000  Uiso   1.00
C1122  C     0.51794   0.78404   0.95913   0.00000  Uiso   1.00
C1123  C     0.96660   0.72641   0.04010   0.00000  Uiso   1.00
C1124  C     0.78848   0.99960   0.95971   0.00000  Uiso   1.00
C1125  C     0.71238   0.99122   0.04075   0.00000  Uiso   1.00
C1126  C     0.96563   0.72717   0.95819   0.00000  Uiso   1.00
C1127  C     0.74996   0.50002   0.14397   0.00000  Uiso   1.00
C1128  C     0.51699   0.78513   0.04038   0.00000  Uiso   1.00
C1129  C     0.99323   0.75903   0.48002   0.00000  Uiso   1.00
C1130  C     0.99337   0.75895   0.52092   0.00000  Uiso   1.00
C1131  C     0.74113   0.99324   0.47994   0.00000  Uiso   1.00
C1132  C     0.74118   0.99332   0.52084   0.00000  Uiso   1.00
C1133  C     0.74999   0.50004   0.98002   0.00000  Uiso   1.00
C1134  C     0.74995   0.50005   0.02050   0.00000  Uiso   1.00
C1135  C     0.99102   0.75623   0.97910   0.00000  Uiso   1.00
C1136  C     0.99130   0.75611   0.01997   0.00000  Uiso   1.00
C1137  C     0.93147   0.71358   0.47985   0.00000  Uiso   1.00
C1138  C     0.66997   0.58004   0.25001   0.00000  Uiso   1.00
C1139  C     0.54843   0.81265   0.52093   0.00000  Uiso   1.00
C1140  C     0.78692   0.93177   0.47985   0.00000  Uiso   1.00
C1141  C     0.68720   0.54804   0.52069   0.00000  Uiso   1.00
C1142  C     0.54142   0.81845   0.48116   0.00000  Uiso   1.00
C1143  C     0.93262   0.71212   0.52098   0.00000  Uiso   1.00
C1144  C     0.68146   0.54106   0.48086   0.00000  Uiso   1.00
C1145  C     0.78832   0.93285   0.52100   0.00000  Uiso   1.00
C1146  C     0.67317   0.99278   0.97948   0.00000  Uiso   1.00
C1147  C     0.82654   0.50988   0.02088   0.00000  Uiso   1.00
C1148  C     0.53373   0.81998   0.97903   0.00000  Uiso   1.00
H1149  H     0.61097   0.75020   0.42944   0.00000  Uiso   1.00
H1150  H     0.95051   0.65776   0.57752   0.00000  Uiso   1.00
H1151  H     0.74944   0.61100   0.42965   0.00000  Uiso   1.00
H1152  H     0.77021   0.58778   0.38612   0.00000  Uiso   1.00
H1153  H     0.73118   0.62883   0.38295   0.00000  Uiso   1.00
H1154  H     0.69186   0.56287   0.37173   0.00000  Uiso   1.00
H1155  H     0.68017   0.58462   0.41693   0.00000  Uiso   1.00
H1156  H     0.84755   0.52887   0.58372   0.00000  Uiso   1.00
H1157  H     0.82911   0.52517   0.63318   0.00000  Uiso   1.00
H1158  H     0.87730   0.99991   0.61933   0.00000  Uiso   1.00
H1159  H     0.81781   0.94723   0.62441   0.00000  Uiso   1.00
H1160  H     0.58757   0.72946   0.38590   0.00000  Uiso   1.00
H1161  H     0.84248   0.95084   0.57804   0.00000  Uiso   1.00
H1162  H     0.51407   0.66961   0.36317   0.00000  Uiso   1.00
H1163  H     0.51884   0.65116   0.41254   0.00000  Uiso   1.00
H1164  H     0.98534   0.62408   0.37830   0.00000  Uiso   1.00
H1165  H     0.94155   0.66236   0.42038   0.00000  Uiso   1.00
H1166  H     0.93839   0.68891   0.37514   0.00000  Uiso   1.00
H1167  H     0.96176   0.85249   0.59626   0.00000  Uiso   1.00
H1168  H     0.96942   0.82858   0.64324   0.00000  Uiso   1.00
H1169  H     0.99129   0.87942   0.63357   0.00000  Uiso   1.00
H1170  H     0.54710   0.82241   0.63014   0.00000  Uiso   1.00
H1171  H     0.62885   0.76830   0.38276   0.00000  Uiso   1.00
H1172  H     0.53965   0.85308   0.58758   0.00000  Uiso   1.00
H1173  H     0.83036   0.51471   0.36356   0.00000  Uiso   1.00
H1174  H     0.84881   0.51964   0.41302   0.00000  Uiso   1.00
H1175  H     0.87608   0.98632   0.37887   0.00000  Uiso   1.00
H1176  H     0.83810   0.94228   0.42067   0.00000  Uiso   1.00
H1177  H     0.81151   0.93893   0.37530   0.00000  Uiso   1.00
H1178  H     0.64760   0.96103   0.59523   0.00000  Uiso   1.00
H1179  H     0.67158   0.96850   0.64236   0.00000  Uiso   1.00
H1180  H     0.62061   0.99017   0.63266   0.00000  Uiso   1.00
H1181  H     0.67730   0.54633   0.62988   0.00000  Uiso   1.00
H1182  H     0.56314   0.80796   0.37194   0.00000  Uiso   1.00
H1183  H     0.64673   0.53891   0.58706   0.00000  Uiso   1.00
H1184  H     0.78256   0.90231   0.91274   0.00000  Uiso   1.00
H1185  H     0.77984   0.92175   0.86360   0.00000  Uiso   1.00
H1186  H     0.82638   0.89534   0.88014   0.00000  Uiso   1.00
H1187  H     0.83807   0.97407   0.87944   0.00000  Uiso   1.00
H1188  H     0.84333   0.94961   0.92535   0.00000  Uiso   1.00
H1189  H     0.73547   0.91834   0.13844   0.00000  Uiso   1.00
H1190  H     0.69564   0.88285   0.12126   0.00000  Uiso   1.00
H1191  H     0.73782   0.89818   0.08933   0.00000  Uiso   1.00
H1192  H     0.66930   0.95824   0.12188   0.00000  Uiso   1.00
H1193  H     0.58495   0.81952   0.41715   0.00000  Uiso   1.00
H1194  H     0.66828   0.93186   0.07626   0.00000  Uiso   1.00
H1195  H     0.89628   0.78307   0.90338   0.00000  Uiso   1.00
H1196  H     0.92012   0.77542   0.85629   0.00000  Uiso   1.00
H1197  H     0.87039   0.75152   0.86684   0.00000  Uiso   1.00
H1198  H     0.93000   0.69849   0.87061   0.00000  Uiso   1.00
H1199  H     0.89927   0.70536   0.91334   0.00000  Uiso   1.00
H1200  H     0.58153   0.74352   0.13853   0.00000  Uiso   1.00
H1201  H     0.60019   0.73789   0.08924   0.00000  Uiso   1.00
H1202  H     0.62511   0.77442   0.12224   0.00000  Uiso   1.00
H1203  H     0.58428   0.81415   0.07924   0.00000  Uiso   1.00
H1204  H     0.52852   0.65242   0.58293   0.00000  Uiso   1.00
H1205  H     0.55708   0.81702   0.12424   0.00000  Uiso   1.00
H1206  H     0.71785   0.59778   0.91335   0.00000  Uiso   1.00
H1207  H     0.72041   0.57835   0.86406   0.00000  Uiso   1.00
H1208  H     0.67400   0.60492   0.88071   0.00000  Uiso   1.00
H1209  H     0.66204   0.52623   0.87934   0.00000  Uiso   1.00
H1210  H     0.65689   0.55069   0.92542   0.00000  Uiso   1.00
H1211  H     0.76166   0.60194   0.09011   0.00000  Uiso   1.00
H1212  H     0.76408   0.58182   0.13909   0.00000  Uiso   1.00
H1213  H     0.80377   0.61745   0.12231   0.00000  Uiso   1.00
H1214  H     0.83040   0.54218   0.12249   0.00000  Uiso   1.00
H1215  H     0.52497   0.67084   0.63253   0.00000  Uiso   1.00
H1216  H     0.83131   0.56851   0.07705   0.00000  Uiso   1.00
H1217  H     0.59888   0.72755   0.91618   0.00000  Uiso   1.00
H1218  H     0.58049   0.73080   0.86660   0.00000  Uiso   1.00
H1219  H     0.62703   0.75873   0.88113   0.00000  Uiso   1.00
H1220  H     0.56450   0.80777   0.87614   0.00000  Uiso   1.00
H1221  H     0.58920   0.80512   0.92261   0.00000  Uiso   1.00
H1222  H     0.53134   0.66640   0.11576   0.00000  Uiso   1.00
H1223  H     0.99882   0.61988   0.11604   0.00000  Uiso   1.00
H1224  H     0.51699   0.64153   0.07078   0.00000  Uiso   1.00
H1225  H     0.94921   0.67895   0.12581   0.00000  Uiso   1.00
H1226  H     0.99949   0.62273   0.61846   0.00000  Uiso   1.00
H1227  H     0.94400   0.65655   0.07969   0.00000  Uiso   1.00
H1228  H     0.88474   0.72345   0.43218   0.00000  Uiso   1.00
H1229  H     0.60732   0.85195   0.52313   0.00000  Uiso   1.00
H1230  H     0.77736   0.88503   0.43199   0.00000  Uiso   1.00
H1231  H     0.64763   0.60670   0.52284   0.00000  Uiso   1.00
H1232  H     0.56562   0.88502   0.48045   0.00000  Uiso   1.00
H1233  H     0.87712   0.67106   0.53516   0.00000  Uiso   1.00
H1234  H     0.61477   0.56489   0.47981   0.00000  Uiso   1.00
H1235  H     0.82960   0.87755   0.53524   0.00000  Uiso   1.00
H1236  H     0.60338   0.99344   0.96831   0.00000  Uiso   1.00
H1237  H     0.94705   0.68235   0.62408   0.00000  Uiso   1.00
H1238  H     0.89440   0.52610   0.03205   0.00000  Uiso   1.00
H1239  H     0.57132   0.87792   0.96496   0.00000  Uiso   1.00
H1240  H     0.87199   0.67254   0.02104   0.00000  Uiso   1.00
H1241  H     0.89658   0.50677   0.96905   0.00000  Uiso   1.00
H1242  H     0.60541   0.97431   0.03116   0.00000  Uiso   1.00
H1243  H     0.90607   0.63593   0.97603   0.00000  Uiso   1.00
H1244  H     0.51930   0.86705   0.06787   0.00000  Uiso   1.00
O1245  O     0.75000   0.50000   0.25000   0.00000  Uiso   1.00
O1246  O     0.75000   0.96539   0.66251   0.00000  Uiso   1.00
O1247  O     0.96539   0.75000   0.33749   0.00000  Uiso   1.00
O1248  O     0.53462   0.75000   0.66251   0.00000  Uiso   1.00
O1249  O     0.50000   0.71539   0.83749   0.00000  Uiso   1.00
O1250  O     0.50000   0.78462   0.16251   0.00000  Uiso   1.00
O1251  O     0.78462   0.50000   0.83749   0.00000  Uiso   1.00
O1252  O     0.71539   0.50000   0.16251   0.00000  Uiso   1.00
O1253  O     0.50000   0.78462   0.83749   0.00000  Uiso   1.00
O1254  O     0.50000   0.71539   0.16251   0.00000  Uiso   1.00
O1255  O     0.71539   0.50000   0.83749   0.00000  Uiso   1.00
O1256  O     0.75000   0.50000   0.75000   0.00000  Uiso   1.00
O1257  O     0.78462   0.50000   0.16251   0.00000  Uiso   1.00
O1258  O     0.70127   0.58332   0.27298   0.00000  Uiso   1.00
O1259  O     0.79874   0.91668   0.72702   0.00000  Uiso   1.00
O1260  O     0.91668   0.70127   0.27298   0.00000  Uiso   1.00
O1261  O     0.58332   0.79874   0.72702   0.00000  Uiso   1.00
O1262  O     0.79874   0.91668   0.27298   0.00000  Uiso   1.00
O1263  O     0.70127   0.58332   0.72702   0.00000  Uiso   1.00
O1264  O     0.58332   0.79874   0.27298   0.00000  Uiso   1.00
O1265  O     0.91668   0.70127   0.72702   0.00000  Uiso   1.00
O1266  O     0.70127   0.91668   0.72702   0.00000  Uiso   1.00
O1267  O     0.50000   0.75000   0.25000   0.00000  Uiso   1.00
O1268  O     0.79874   0.58332   0.27298   0.00000  Uiso   1.00
O1269  O     0.91668   0.79874   0.72702   0.00000  Uiso   1.00
O1270  O     0.58332   0.70127   0.27298   0.00000  Uiso   1.00
O1271  O     0.79874   0.58332   0.72702   0.00000  Uiso   1.00
O1272  O     0.70127   0.91668   0.27298   0.00000  Uiso   1.00
O1273  O     0.58332   0.70127   0.72702   0.00000  Uiso   1.00
O1274  O     0.91668   0.79874   0.27298   0.00000  Uiso   1.00
O1275  O     0.95127   0.83332   0.77298   0.00000  Uiso   1.00
O1276  O     0.54874   0.66668   0.22702   0.00000  Uiso   1.00
O1277  O     0.66668   0.95127   0.77298   0.00000  Uiso   1.00
O1278  O     0.50000   0.75000   0.75000   0.00000  Uiso   1.00
O1279  O     0.83332   0.54874   0.22702   0.00000  Uiso   1.00
O1280  O     0.54874   0.66668   0.77298   0.00000  Uiso   1.00
O1281  O     0.95127   0.83332   0.22702   0.00000  Uiso   1.00
O1282  O     0.83332   0.54874   0.77298   0.00000  Uiso   1.00
O1283  O     0.66668   0.95127   0.22702   0.00000  Uiso   1.00
O1284  O     0.95127   0.66668   0.22702   0.00000  Uiso   1.00
O1285  O     0.54874   0.83332   0.77298   0.00000  Uiso   1.00
O1286  O     0.66668   0.54874   0.22702   0.00000  Uiso   1.00
O1287  O     0.83332   0.95127   0.77298   0.00000  Uiso   1.00
O1288  O     0.54874   0.83332   0.22702   0.00000  Uiso   1.00
O1289  O     0.75000   0.96539   0.33749   0.00000  Uiso   1.00
O1290  O     0.95127   0.66668   0.77298   0.00000  Uiso   1.00
O1291  O     0.83332   0.95127   0.22702   0.00000  Uiso   1.00
O1292  O     0.66668   0.54874   0.77298   0.00000  Uiso   1.00
O1293  O     0.86749   0.67705   0.46703   0.00000  Uiso   1.00
O1294  O     0.60501   0.81036   0.56558   0.00000  Uiso   1.00
O1295  O     0.82391   0.86813   0.46702   0.00000  Uiso   1.00
O1296  O     0.68917   0.60453   0.56558   0.00000  Uiso   1.00
O1297  O     0.52870   0.87244   0.43560   0.00000  Uiso   1.00
O1298  O     0.88306   0.71931   0.57139   0.00000  Uiso   1.00
O1299  O     0.62754   0.52805   0.43495   0.00000  Uiso   1.00
O1300  O     0.75000   0.53462   0.66251   0.00000  Uiso   1.00
O1301  O     0.78127   0.88315   0.57117   0.00000  Uiso   1.00
O1302  O     0.63487   0.96203   0.92791   0.00000  Uiso   1.00
O1303  O     0.87101   0.98754   0.07165   0.00000  Uiso   1.00
O1304  O     0.52363   0.86899   0.92870   0.00000  Uiso   1.00
O1305  O     0.88299   0.70813   0.06710   0.00000  Uiso   1.00
O1306  O     0.86513   0.53824   0.92880   0.00000  Uiso   1.00
O1307  O     0.62884   0.51283   0.07115   0.00000  Uiso   1.00
O1308  O     0.94698   0.64187   0.93332   0.00000  Uiso   1.00
O1309  O     0.56467   0.88714   0.03311   0.00000  Uiso   1.00
O1310  O     0.53462   0.75000   0.33749   0.00000  Uiso   1.00
O1311  O     0.96539   0.75000   0.66251   0.00000  Uiso   1.00
O1312  O     0.75000   0.53462   0.33749   0.00000  Uiso   1.00
Zn1313 Zn    0.70053   0.50000   0.21730   0.00000  Uiso   1.00
Zn1314 Zn    0.54948   0.75000   0.28270   0.00000  Uiso   1.00
Zn1315 Zn    0.75000   0.95053   0.71730   0.00000  Uiso   1.00
Zn1316 Zn    0.75000   0.54948   0.28270   0.00000  Uiso   1.00
Zn1317 Zn    0.54948   0.75000   0.71730   0.00000  Uiso   1.00
Zn1318 Zn    0.95053   0.75000   0.28270   0.00000  Uiso   1.00
Zn1319 Zn    0.75000   0.54948   0.71730   0.00000  Uiso   1.00
Zn1320 Zn    0.75000   0.95053   0.28270   0.00000  Uiso   1.00
Zn1321 Zn    0.79948   0.50000   0.78270   0.00000  Uiso   1.00
Zn1322 Zn    0.50000   0.70053   0.21730   0.00000  Uiso   1.00
Zn1323 Zn    0.50000   0.79948   0.78270   0.00000  Uiso   1.00
Zn1324 Zn    0.79948   0.50000   0.21730   0.00000  Uiso   1.00
Zn1325 Zn    0.70053   0.50000   0.78270   0.00000  Uiso   1.00
Zn1326 Zn    0.50000   0.79948   0.21730   0.00000  Uiso   1.00
Zn1327 Zn    0.50000   0.70053   0.78270   0.00000  Uiso   1.00
Zn1328 Zn    0.95053   0.75000   0.71730   0.00000  Uiso   1.00
loop_
_geom_bond_atom_site_label_1
_geom_bond_atom_site_label_2
_geom_bond_distance
_geom_bond_site_symmetry_2
_ccdc_geom_bond_type
C1     O316    1.269   .     A
C1     C108    1.480   .     S
C1     O957    1.279   1_545 S
C2     C84     1.421   .     S
C2     O263    1.273   .     A
C2     O291    1.273   .     A
C3     C127    1.418   .     A
C3     C55     1.493   .     S
C3     C6      1.403   1_554 S
C4     C56     1.491   .     S
C4     C792    1.421   1_545 S
C4     C151    1.415   1_556 S
C5     C58     1.490   .     S
C5     C129    1.423   .     A
C5     C150    1.415   1_554 S
C6     C130    1.418   .     A
C6     C59     1.493   .     S
C6     C3      1.403   1_556 S
C7     C132    1.423   .     A
C7     C60     1.494   .     S
C7     C152    1.419   1_554 S
C8     H186    1.108   .     S
C8     C89     1.533   .     S
C8     C9      1.532   .     S
C8     H197    1.101   .     S
C9     H164    1.109   .     S
C9     H153    1.111   .     S
C9     H175    1.110   .     S
C10    H154    1.107   .     S
C10    H241    1.110   .     S
C10    C90     1.529   .     S
C10    C343    1.530   .     S
C11    H219    1.108   .     S
C11    H208    1.111   .     S
C11    C342    1.530   1_455 S
C11    H562    1.111   1_455 S
C12    C91     1.533   .     S
C12    H159    1.101   .     S
C12    H158    1.108   .     S
C12    C14     1.532   .     S
C13    C83     1.421   .     S
C13    O264    1.274   .     A
C13    O288    1.275   .     A
C14    H156    1.109   .     S
C14    H157    1.110   .     S
C14    H155    1.111   .     S
C15    H163    1.110   .     S
C15    H165    1.107   .     S
C15    C92     1.529   .     S
C15    C680    1.530   .     S
C16    H160    1.111   .     S
C16    H161    1.108   .     S
C16    C679    1.530   1_545 S
C16    H826    1.111   1_545 S
C17    H170    1.109   .     S
C17    C18     1.532   .     S
C17    C93     1.535   .     S
C17    H169    1.105   .     S
C18    H168    1.111   .     S
C18    H498    1.108   .     S
C18    H499    1.111   .     S
C19    H176    1.105   .     S
C19    C94     1.532   .     S
C19    H174    1.110   .     S
C19    C352    1.530   1_455 S
C20    H172    1.107   .     S
C20    H171    1.111   .     S
C20    H173    1.111   .     S
C20    C351    1.530   .     S
C21    C22     1.532   .     S
C21    C95     1.535   .     S
C21    H181    1.109   .     S
C21    H180    1.105   .     S
C22    H179    1.111   .     S
C22    H841    1.108   .     S
C22    H842    1.111   .     S
C23    H185    1.110   .     S
C23    H187    1.105   .     S
C23    C96     1.532   .     S
C23    C689    1.530   1_545 S
C24    O265    1.274   .     A
C24    O289    1.275   .     A
C24    C82     1.421   .     S
C25    H182    1.111   .     S
C25    H184    1.111   .     S
C25    H183    1.107   .     S
C25    C687    1.530   .     S
C26    H191    1.108   .     S
C26    C97     1.531   .     S
C26    C27     1.531   .     S
C26    H192    1.109   .     S
C27    H190    1.111   .     S
C27    H188    1.111   .     S
C27    H189    1.108   .     S
C28    H198    1.108   .     S
C28    C99     1.531   .     S
C28    H196    1.109   .     S
C28    C29     1.531   .     S
C29    H193    1.108   .     S
C29    H195    1.111   .     S
C29    H194    1.111   .     S
C30    H202    1.110   .     S
C30    C100    1.532   .     S
C30    H203    1.105   .     S
C30    C31     1.531   .     S
C31    H200    1.107   .     S
C31    H199    1.111   .     S
C31    H201    1.111   .     S
C32    H209    1.109   .     S
C32    C101    1.535   .     S
C32    C33     1.532   .     S
C32    H207    1.106   .     S
C33    H205    1.111   .     S
C33    H204    1.108   .     S
C33    H206    1.111   .     S
C34    C102    1.531   .     S
C34    H213    1.108   .     S
C34    C36     1.531   .     S
C34    H214    1.109   .     S
C35    O295    1.277   .     A
C35    C81     1.422   .     S
C35    O266    1.276   .     A
C36    H211    1.108   .     S
C36    H212    1.111   .     S
C36    H210    1.111   .     S
C37    H218    1.109   .     S
C37    C38     1.531   .     S
C37    H220    1.108   .     S
C37    C103    1.531   .     S
C38    H215    1.111   .     S
C38    H217    1.111   .     S
C38    H216    1.108   .     S
C39    H224    1.110   .     S
C39    C104    1.529   .     S
C39    C40     1.530   .     S
C39    H225    1.107   .     S
C40    H221    1.111   .     S
C40    H223    1.111   .     S
C40    H222    1.108   .     S
C41    C105    1.534   .     S
C41    H231    1.103   .     S
C41    H229    1.108   .     S
C41    C374    1.532   .     S
C42    H228    1.111   .     S
C42    H226    1.108   .     S
C42    C373    1.532   1_455 S
C42    H559    1.110   1_455 S
C43    O297    1.220   .     D
C43    H232    1.086   .     S
C43    C141    1.494   .     S
C44    O298    1.221   .     D
C44    H233    1.084   .     S
C44    C143    1.492   .     S
C45    H234    1.086   .     S
C45    C144    1.494   .     S
C45    O299    1.220   .     D
C46    O267    1.277   .     A
C46    O296    1.277   .     A
C46    C80     1.422   .     S
C47    H235    1.084   .     S
C47    O300    1.221   .     D
C47    C145    1.492   .     S
C48    O301    1.222   .     D
C48    C146    1.492   .     S
C48    H236    1.084   .     S
C49    O302    1.221   .     D
C49    H237    1.082   .     S
C49    C147    1.489   .     S
C50    C148    1.492   .     S
C50    H238    1.084   .     S
C50    O303    1.222   .     D
C51    O305    1.221   .     D
C51    H239    1.082   .     S
C51    C149    1.489   .     S
C52    H240    1.084   .     S
C52    C150    1.491   .     S
C52    O306    1.221   .     D
C53    C151    1.490   .     S
C53    H242    1.084   .     S
C53    O971    1.221   1_545 S
C54    C152    1.490   .     S
C54    H243    1.083   .     S
C54    O308    1.221   .     D
C55    H244    1.083   .     S
C55    O309    1.222   .     D
C56    O310    1.221   .     D
C56    H245    1.084   .     S
C57    O292    1.275   .     A
C57    O268    1.276   .     A
C57    C88     1.421   .     S
C58    H246    1.084   .     S
C58    O975    1.221   .     S
C59    O312    1.221   .     D
C59    H247    1.083   .     S
C60    O313    1.220   .     D
C60    H248    1.086   .     S
C61    O294    1.275   .     A
C61    O269    1.276   .     A
C61    C86     1.421   .     S
C62    C77     1.421   .     S
C62    O270    1.275   .     A
C62    O281    1.274   .     A
C63    C75     1.421   .     S
C63    O283    1.274   .     A
C63    O272    1.275   .     A
C64    O279    1.273   .     A
C64    O273    1.273   .     A
C64    C74     1.421   .     S
C65    C110    1.463   .     S
C65    O250    1.267   .     A
C65    O968    1.272   .     S
C66    O274    1.273   .     A
C66    O280    1.273   .     A
C66    C73     1.421   .     S
C67    C72     1.421   .     S
C67    O286    1.276   .     A
C67    O275    1.275   .     A
C68    C71     1.421   .     S
C68    O287    1.276   .     A
C68    O276    1.275   .     A
C69    C79     1.422   .     S
C69    O284    1.277   .     A
C69    O277    1.277   .     A
C70    O278    1.277   .     A
C70    O285    1.277   .     A
C70    C78     1.422   .     S
C71    C88     1.197   .     T
C72    C86     1.197   .     T
C73    C85     1.197   .     T
C74    C84     1.198   .     T
C75    C83     1.197   .     T
C76    C106    1.480   .     S
C76    O314    1.269   .     A
C76    O583    1.280   1_455 S
C77    C82     1.197   .     T
C78    C81     1.198   .     T
C79    C80     1.198   .     T
C85    C142    1.421   .     S
C87    O315    1.267   .     A
C87    C107    1.463   .     S
C87    O584    1.272   .     S
C89    C106    1.423   .     A
C89    C119    1.419   .     A
C90    C107    1.412   .     A
C90    C121    1.416   .     A
C91    C122    1.419   .     A
C91    C108    1.423   .     A
C92    C123    1.416   .     A
C92    C110    1.412   .     A
C93    C115    1.419   .     A
C93    C438    1.415   .     S
C94    C116    1.419   .     A
C94    C439    1.413   1_455 S
C95    C117    1.419   .     A
C95    C772    1.415   .     S
C96    C118    1.419   .     A
C96    C774    1.413   1_545 S
C97    C128    1.414   .     A
C97    C775    1.421   .     S
C98    C113    1.463   .     S
C98    O585    1.273   .     S
C98    O589    1.267   .     S
C99    C129    1.414   .     A
C99    C776    1.417   .     S
C100   C130    1.418   .     A
C100   C113    1.413   .     A
C101   C132    1.420   .     A
C101   C446    1.416   1_455 S
C102   C111    1.421   .     A
C102   C124    1.414   .     A
C103   C112    1.417   .     A
C103   C125    1.414   .     A
C104   C126    1.416   .     A
C104   C445    1.413   1_455 S
C105   C127    1.416   .     A
C105   C114    1.423   .     A
C106   C425    1.415   1_455 S
C107   C426    1.413   .     S
C108   C759    1.415   1_545 S
C109   C114    1.481   .     S
C109   O586    1.281   .     S
C109   O590    1.269   .     S
C110   C760    1.413   .     S
C111   C120    1.475   .     S
C111   C761    1.421   1_545 S
C112   C131    1.467   .     S
C112   C763    1.417   1_545 S
C113   C436    1.413   .     S
C114   C433    1.416   .     S
C115   C141    1.422   .     A
C115   C133    1.414   .     A
C116   C143    1.418   .     A
C116   C466    1.418   1_455 S
C117   C135    1.414   .     A
C117   C144    1.422   .     A
C118   C145    1.418   .     A
C118   C800    1.418   1_545 S
C119   C146    1.418   .     A
C119   C465    1.412   1_455 S
C120   O255    1.274   .     A
C120   O259    1.274   .     A
C121   C147    1.420   .     A
C121   C134    1.411   .     A
C122   C148    1.418   .     A
C122   C799    1.413   1_545 S
C123   C149    1.420   .     A
C123   C136    1.411   .     A
C124   C137    1.410   .     A
C124   C814    1.421   1_545 S
C125   C138    1.412   .     A
C125   C151    1.423   .     A
C126   C152    1.420   .     A
C126   C471    1.411   1_455 S
C127   C140    1.412   .     A
C128   C668    1.421   .     S
C128   C801    1.410   .     S
C129   C802    1.412   .     S
C130   C139    1.419   .     A
C131   O256    1.272   .     S
C131   O261    1.271   .     S
C132   C472    1.415   1_455 S
C133   C134    1.410   .     A
C133   C451    1.412   .     S
C134   C448    1.418   .     S
C135   C136    1.410   .     A
C135   C786    1.413   .     S
C136   C782    1.418   .     S
C137   C792    1.410   1_545 S
C137   C138    1.395   1_556 S
C138   C793    1.412   1_545 S
C138   C137    1.395   1_554 S
C139   C458    1.411   .     S
C139   C140    1.409   1_556 S
C140   C464    1.415   .     S
C140   C139    1.409   1_554 S
C141   C147    1.419   .     A
C142   O290    1.273   .     A
C142   O262    1.273   .     A
C143   C146    1.401   .     A
C144   C149    1.419   .     A
C145   C148    1.402   .     A
C150   C5      1.415   1_556 S
C150   C788    1.421   .     S
C151   C4      1.415   1_554 S
C152   C7      1.419   1_556 S
H162   C680    1.111   .     S
H166   C350    1.108   1_455 S
H167   C350    1.111   1_455 S
H177   C686    1.108   1_545 S
H178   C686    1.111   1_545 S
H227   C374    1.110   .     S
H230   C343    1.111   .     S
O249   Zn988   1.938   1_545 S
O249   Zn317   1.932   .     S
O249   Zn320   1.930   .     S
O249   Zn328   1.935   .     S
O250   Zn319   1.949   .     S
O251   Zn322   1.946   .     S
O251   C408    1.280   .     S
O252   Zn321   1.946   .     S
O252   C419    1.272   1_455 S
O253   Zn331   1.945   .     S
O253   C430    1.273   1_455 S
O254   Zn330   1.945   .     S
O254   C441    1.281   1_455 S
O255   Zn325   1.948   .     S
O256   Zn317   1.948   .     S
O257   Zn327   1.949   .     S
O257   C430    1.267   1_455 S
O258   Zn326   1.949   .     S
O258   C441    1.269   1_455 S
O259   Zn329   1.946   .     S
O260   Zn325   1.932   .     S
O260   Zn983   1.930   1_545 S
O260   Zn329   1.935   .     S
O260   Zn323   1.938   .     S
O261   Zn328   1.946   .     S
O262   Zn320   1.914   .     S
O263   Zn319   1.914   .     S
O264   Zn322   1.912   .     S
O265   Zn321   1.912   .     S
O266   Zn324   1.914   .     S
O267   Zn323   1.914   .     S
O268   Zn318   1.915   .     S
O269   Zn332   1.915   .     S
O270   Zn319   1.914   .     S
O271   Zn326   1.930   .     S
O271   Zn318   1.932   .     S
O271   Zn330   1.938   .     S
O271   Zn654   1.935   1_455 S
O272   Zn320   1.914   .     S
O273   Zn332   1.913   .     S
O274   Zn318   1.913   .     S
O275   Zn323   1.912   .     S
O276   Zn324   1.912   .     S
O277   Zn321   1.915   .     S
O278   Zn322   1.915   .     S
O279   Zn659   1.914   .     S
O280   Zn326   1.914   .     S
O281   Zn993   1.912   .     S
O282   Zn321   1.935   .     S
O282   Zn327   1.930   .     S
O282   Zn331   1.938   .     S
O282   Zn664   1.932   1_455 S
O283   Zn328   1.912   .     S
O284   Zn331   1.914   .     S
O285   Zn662   1.914   .     S
O286   Zn325   1.915   .     S
O287   Zn981   1.915   .     S
O288   Zn658   1.914   .     S
O289   Zn327   1.914   .     S
O290   Zn317   1.913   .     S
O291   Zn989   1.913   .     S
O292   Zn330   1.912   .     S
O293   Zn324   1.945   .     S
O293   C665    1.279   .     S
O294   Zn663   1.912   .     S
O295   Zn992   1.915   .     S
O296   Zn329   1.915   .     S
O304   Zn323   1.945   .     S
O304   C729    1.272   1_545 S
O307   C717    1.221   .     S
O311   C722    1.221   1_545 S
O314   Zn318   1.948   .     S
O315   Zn332   1.948   .     S
O316   Zn320   1.949   .     S
Zn317  O951    1.915   1_545 S
Zn319  O924    1.930   .     S
Zn322  O603    1.935   .     S
Zn324  O913    1.938   .     S
Zn325  O955    1.913   1_545 S
Zn326  O620    1.914   1_455 S
Zn327  O611    1.914   1_455 S
Zn328  O959    1.915   1_545 S
Zn329  O945    1.912   1_545 S
Zn330  O617    1.914   1_455 S
Zn331  O626    1.912   1_455 S
Zn332  O614    1.932   .     S
C333   O648    1.269   .     A
C333   C440    1.480   .     S
C333   O1289   1.279   1_545 S
C334   C416    1.421   .     S
C334   O595    1.273   .     A
C334   O623    1.273   .     A
C335   C459    1.418   .     A
C335   C387    1.493   .     S
C335   C338    1.403   1_554 S
C336   C388    1.491   .     S
C336   C1124   1.421   1_545 S
C336   C483    1.415   1_556 S
C337   C390    1.490   .     S
C337   C461    1.423   .     A
C337   C482    1.415   1_554 S
C338   C462    1.418   .     A
C338   C391    1.493   .     S
C338   C335    1.403   1_556 S
C339   C464    1.423   .     A
C339   C392    1.494   .     S
C339   C484    1.419   1_554 S
C340   H518    1.108   .     S
C340   C421    1.533   .     S
C340   C341    1.532   .     S
C340   H529    1.101   .     S
C341   H496    1.109   .     S
C341   H485    1.111   .     S
C341   H507    1.110   .     S
C342   H486    1.107   .     S
C342   H573    1.110   .     S
C342   C422    1.529   .     S
C342   C11     1.530   1_655 S
C343   H551    1.108   .     S
C343   H540    1.111   .     S
C344   C423    1.533   .     S
C344   H491    1.101   .     S
C344   H490    1.108   .     S
C344   C346    1.532   .     S
C345   C415    1.421   .     S
C345   O596    1.274   .     A
C345   O620    1.275   .     A
C346   H488    1.109   .     S
C346   H489    1.110   .     S
C346   H487    1.111   .     S
C347   H495    1.110   .     S
C347   H497    1.107   .     S
C347   C424    1.529   .     S
C347   C1012   1.530   .     S
C348   H492    1.111   .     S
C348   H493    1.108   .     S
C348   C1011   1.530   1_545 S
C348   H1158   1.111   1_545 S
C349   H502    1.109   .     S
C349   C350    1.532   .     S
C349   C425    1.535   .     S
C349   H501    1.105   .     S
C350   H500    1.111   .     S
C350   H166    1.108   1_655 S
C350   H167    1.111   1_655 S
C351   H508    1.105   .     S
C351   C426    1.532   .     S
C351   H506    1.110   .     S
C352   H504    1.107   .     S
C352   H503    1.111   .     S
C352   H505    1.111   .     S
C352   C19     1.530   1_655 S
C353   C354    1.532   .     S
C353   C427    1.535   .     S
C353   H513    1.109   .     S
C353   H512    1.105   .     S
C354   H511    1.111   .     S
C354   H1173   1.108   .     S
C354   H1174   1.111   .     S
C355   H517    1.110   .     S
C355   H519    1.105   .     S
C355   C428    1.532   .     S
C355   C1021   1.530   1_545 S
C356   O597    1.274   .     A
C356   O621    1.275   .     A
C356   C414    1.421   .     S
C357   H514    1.111   .     S
C357   H516    1.111   .     S
C357   H515    1.107   .     S
C357   C1019   1.530   .     S
C358   H523    1.108   .     S
C358   C429    1.531   .     S
C358   C359    1.531   .     S
C358   H524    1.109   .     S
C359   H522    1.111   .     S
C359   H520    1.111   .     S
C359   H521    1.108   .     S
C360   H530    1.108   .     S
C360   C431    1.531   .     S
C360   H528    1.109   .     S
C360   C361    1.531   .     S
C361   H525    1.108   .     S
C361   H527    1.111   .     S
C361   H526    1.111   .     S
C362   H534    1.110   .     S
C362   C432    1.532   .     S
C362   H535    1.105   .     S
C362   C363    1.531   .     S
C363   H532    1.107   .     S
C363   H531    1.111   .     S
C363   H533    1.111   .     S
C364   H541    1.109   .     S
C364   C433    1.535   .     S
C364   C365    1.532   .     S
C364   H539    1.106   .     S
C365   H537    1.111   .     S
C365   H536    1.108   .     S
C365   H538    1.111   .     S
C366   C434    1.531   .     S
C366   H545    1.108   .     S
C366   C368    1.531   .     S
C366   H546    1.109   .     S
C367   O627    1.277   .     A
C367   C413    1.422   .     S
C367   O598    1.276   .     A
C368   H543    1.108   .     S
C368   H544    1.111   .     S
C368   H542    1.111   .     S
C369   H550    1.109   .     S
C369   C370    1.531   .     S
C369   H552    1.108   .     S
C369   C435    1.531   .     S
C370   H547    1.111   .     S
C370   H549    1.111   .     S
C370   H548    1.108   .     S
C371   H556    1.110   .     S
C371   C436    1.529   .     S
C371   C372    1.530   .     S
C371   H557    1.107   .     S
C372   H553    1.111   .     S
C372   H555    1.111   .     S
C372   H554    1.108   .     S
C373   C437    1.534   .     S
C373   H563    1.103   .     S
C373   H561    1.108   .     S
C373   C42     1.532   1_655 S
C374   H560    1.111   .     S
C374   H558    1.108   .     S
C375   O629    1.220   .     D
C375   H564    1.086   .     S
C375   C473    1.494   .     S
C376   O630    1.221   .     D
C376   H565    1.084   .     S
C376   C475    1.492   .     S
C377   H566    1.086   .     S
C377   C476    1.494   .     S
C377   O631    1.220   .     D
C378   O599    1.277   .     A
C378   O628    1.277   .     A
C378   C412    1.422   .     S
C379   H567    1.084   .     S
C379   O632    1.221   .     D
C379   C477    1.492   .     S
C380   O633    1.222   .     D
C380   C478    1.492   .     S
C380   H568    1.084   .     S
C381   O634    1.221   .     D
C381   H569    1.082   .     S
C381   C479    1.489   .     S
C382   C480    1.492   .     S
C382   H570    1.084   .     S
C382   O635    1.222   .     D
C383   O637    1.221   .     D
C383   H571    1.082   .     S
C383   C481    1.489   .     S
C384   H572    1.084   .     S
C384   C482    1.491   .     S
C384   O638    1.221   .     D
C385   C483    1.490   .     S
C385   H574    1.084   .     S
C385   O1303   1.221   1_545 S
C386   C484    1.490   .     S
C386   H575    1.083   .     S
C386   O640    1.221   .     D
C387   H576    1.083   .     S
C387   O641    1.222   .     D
C388   O642    1.221   .     D
C388   H577    1.084   .     S
C389   O624    1.275   .     A
C389   O600    1.276   .     A
C389   C420    1.421   .     S
C390   H578    1.084   .     S
C390   O1307   1.221   .     S
C391   O644    1.221   .     D
C391   H579    1.083   .     S
C392   O645    1.220   .     D
C392   H580    1.086   .     S
C393   O626    1.275   .     A
C393   O601    1.276   .     A
C393   C418    1.421   .     S
C394   C409    1.421   .     S
C394   O602    1.275   .     A
C394   O613    1.274   .     A
C395   C407    1.421   .     S
C395   O615    1.274   .     A
C395   O604    1.275   .     A
C396   O611    1.273   .     A
C396   O605    1.273   .     A
C396   C406    1.421   .     S
C397   C442    1.463   .     S
C397   O582    1.267   .     A
C397   O1300   1.272   .     S
C398   O606    1.273   .     A
C398   O612    1.273   .     A
C398   C405    1.421   .     S
C399   C404    1.421   .     S
C399   O618    1.276   .     A
C399   O607    1.275   .     A
C400   C403    1.421   .     S
C400   O619    1.276   .     A
C400   O608    1.275   .     A
C401   C411    1.422   .     S
C401   O616    1.277   .     A
C401   O609    1.277   .     A
C402   O610    1.277   .     A
C402   O617    1.277   .     A
C402   C410    1.422   .     S
C403   C420    1.197   .     T
C404   C418    1.197   .     T
C405   C417    1.197   .     T
C406   C416    1.198   .     T
C407   C415    1.197   .     T
C408   C438    1.480   .     S
C408   O646    1.269   .     A
C409   C414    1.197   .     T
C410   C413    1.198   .     T
C411   C412    1.198   .     T
C417   C474    1.421   .     S
C419   O647    1.267   .     A
C419   C439    1.463   .     S
C419   O252    1.272   1_655 S
C421   C438    1.423   .     A
C421   C451    1.419   .     A
C422   C439    1.412   .     A
C422   C453    1.416   .     A
C423   C454    1.419   .     A
C423   C440    1.423   .     A
C424   C455    1.416   .     A
C424   C442    1.412   .     A
C425   C447    1.419   .     A
C425   C106    1.415   1_655 S
C426   C448    1.419   .     A
C427   C449    1.419   .     A
C427   C1104   1.415   .     S
C428   C450    1.419   .     A
C428   C1106   1.413   1_545 S
C429   C460    1.414   .     A
C429   C1107   1.421   .     S
C430   C445    1.463   .     S
C430   O253    1.273   1_655 S
C430   O257    1.267   1_655 S
C431   C461    1.414   .     A
C431   C1108   1.417   .     S
C432   C462    1.418   .     A
C432   C445    1.413   .     A
C433   C464    1.420   .     A
C434   C443    1.421   .     A
C434   C456    1.414   .     A
C435   C444    1.417   .     A
C435   C457    1.414   .     A
C436   C458    1.416   .     A
C437   C459    1.416   .     A
C437   C446    1.423   .     A
C439   C94     1.413   1_655 S
C440   C1091   1.415   1_545 S
C441   C446    1.481   .     S
C441   O254    1.281   1_655 S
C441   O258    1.269   1_655 S
C442   C1092   1.413   .     S
C443   C452    1.475   .     S
C443   C1093   1.421   1_545 S
C444   C463    1.467   .     S
C444   C1095   1.417   1_545 S
C445   C104    1.413   1_655 S
C446   C101    1.416   1_655 S
C447   C473    1.422   .     A
C447   C465    1.414   .     A
C448   C475    1.418   .     A
C449   C467    1.414   .     A
C449   C476    1.422   .     A
C450   C477    1.418   .     A
C450   C1132   1.418   1_545 S
C451   C478    1.418   .     A
C452   O587    1.274   .     A
C452   O591    1.274   .     A
C453   C479    1.420   .     A
C453   C466    1.411   .     A
C454   C480    1.418   .     A
C454   C1131   1.413   1_545 S
C455   C481    1.420   .     A
C455   C468    1.411   .     A
C456   C469    1.410   .     A
C456   C1146   1.421   1_545 S
C457   C470    1.412   .     A
C457   C483    1.423   .     A
C458   C484    1.420   .     A
C459   C472    1.412   .     A
C460   C1000   1.421   .     S
C460   C1133   1.410   .     S
C461   C1134   1.412   .     S
C462   C471    1.419   .     A
C463   O588    1.272   .     S
C463   O593    1.271   .     S
C465   C466    1.410   .     A
C465   C119    1.412   1_655 S
C466   C116    1.418   1_655 S
C467   C468    1.410   .     A
C467   C1118   1.413   .     S
C468   C1114   1.418   .     S
C469   C1124   1.410   1_545 S
C469   C470    1.395   1_556 S
C470   C1125   1.412   1_545 S
C470   C469    1.395   1_554 S
C471   C126    1.411   1_655 S
C471   C472    1.409   1_556 S
C472   C132    1.415   1_655 S
C472   C471    1.409   1_554 S
C473   C479    1.419   .     A
C474   O622    1.273   .     A
C474   O594    1.273   .     A
C475   C478    1.401   .     A
C476   C481    1.419   .     A
C477   C480    1.402   .     A
C482   C337    1.415   1_556 S
C482   C1120   1.421   .     S
C483   C336    1.415   1_554 S
C484   C339    1.419   1_556 S
H494   C1012   1.111   .     S
H509   C1018   1.108   1_545 S
H510   C1018   1.111   1_545 S
H559   C42     1.110   1_655 S
H562   C11     1.111   1_655 S
O581   Zn1320  1.938   1_545 S
O581   Zn649   1.932   .     S
O581   Zn652   1.930   .     S
O581   Zn660   1.935   .     S
O582   Zn651   1.949   .     S
O583   Zn654   1.946   .     S
O583   C76     1.280   1_655 S
O584   Zn653   1.946   .     S
O585   Zn663   1.945   .     S
O586   Zn662   1.945   .     S
O587   Zn657   1.948   .     S
O588   Zn649   1.948   .     S
O589   Zn659   1.949   .     S
O590   Zn658   1.949   .     S
O591   Zn661   1.946   .     S
O592   Zn657   1.932   .     S
O592   Zn1315  1.930   1_545 S
O592   Zn661   1.935   .     S
O592   Zn655   1.938   .     S
O593   Zn660   1.946   .     S
O594   Zn652   1.914   .     S
O595   Zn651   1.914   .     S
O596   Zn654   1.912   .     S
O597   Zn653   1.912   .     S
O598   Zn656   1.914   .     S
O599   Zn655   1.914   .     S
O600   Zn650   1.915   .     S
O601   Zn664   1.915   .     S
O602   Zn651   1.914   .     S
O603   Zn658   1.930   .     S
O603   Zn650   1.932   .     S
O603   Zn662   1.938   .     S
O604   Zn652   1.914   .     S
O605   Zn664   1.913   .     S
O606   Zn650   1.913   .     S
O607   Zn655   1.912   .     S
O608   Zn656   1.912   .     S
O609   Zn653   1.915   .     S
O610   Zn654   1.915   .     S
O611   Zn327   1.914   1_655 S
O612   Zn658   1.914   .     S
O613   Zn1325  1.912   .     S
O614   Zn653   1.935   .     S
O614   Zn659   1.930   .     S
O614   Zn663   1.938   .     S
O615   Zn660   1.912   .     S
O616   Zn663   1.914   .     S
O617   Zn330   1.914   1_655 S
O618   Zn657   1.915   .     S
O619   Zn1313  1.915   .     S
O620   Zn326   1.914   1_655 S
O621   Zn659   1.914   .     S
O622   Zn649   1.913   .     S
O623   Zn1321  1.913   .     S
O624   Zn662   1.912   .     S
O625   Zn656   1.945   .     S
O625   C997    1.279   .     S
O626   Zn331   1.912   1_655 S
O627   Zn1324  1.915   .     S
O628   Zn661   1.915   .     S
O636   Zn655   1.945   .     S
O636   C1061   1.272   1_545 S
O639   C1049   1.221   .     S
O643   C1054   1.221   1_545 S
O646   Zn650   1.948   .     S
O647   Zn664   1.948   .     S
O648   Zn652   1.949   .     S
Zn649  O1283   1.915   1_545 S
Zn651  O1256   1.930   .     S
Zn654  O271    1.935   1_655 S
Zn656  O1245   1.938   .     S
Zn657  O1287   1.913   1_545 S
Zn660  O1291   1.915   1_545 S
Zn661  O1277   1.912   1_545 S
Zn664  O282    1.932   1_655 S
C665   O980    1.269   .     A
C665   C772    1.480   .     S
C666   C748    1.421   .     S
C666   O927    1.273   .     A
C666   O955    1.273   .     A
C667   C791    1.418   .     A
C667   C719    1.493   .     S
C667   C670    1.403   1_554 S
C668   C720    1.491   .     S
C668   C815    1.415   1_556 S
C669   C722    1.490   .     S
C669   C793    1.423   .     A
C669   C814    1.415   1_554 S
C670   C794    1.418   .     A
C670   C723    1.493   .     S
C670   C667    1.403   1_556 S
C671   C796    1.423   .     A
C671   C724    1.494   .     S
C671   C816    1.419   1_554 S
C672   H850    1.108   .     S
C672   C753    1.533   .     S
C672   C673    1.532   .     S
C672   H861    1.101   .     S
C673   H828    1.109   .     S
C673   H817    1.111   .     S
C673   H839    1.110   .     S
C674   H818    1.107   .     S
C674   H905    1.110   .     S
C674   C754    1.529   .     S
C674   C1007   1.530   .     S
C675   H883    1.108   .     S
C675   H872    1.111   .     S
C675   C1006   1.530   1_455 S
C675   H1226   1.111   1_455 S
C676   C755    1.533   .     S
C676   H823    1.101   .     S
C676   H822    1.108   .     S
C676   C678    1.532   .     S
C677   C747    1.421   .     S
C677   O928    1.274   .     A
C677   O952    1.275   .     A
C678   H820    1.109   .     S
C678   H821    1.110   .     S
C678   H819    1.111   .     S
C679   H827    1.110   .     S
C679   H829    1.107   .     S
C679   C756    1.529   .     S
C679   C16     1.530   1_565 S
C680   H824    1.111   .     S
C680   H825    1.108   .     S
C681   H834    1.109   .     S
C681   C682    1.532   .     S
C681   C757    1.535   .     S
C681   H833    1.105   .     S
C682   H832    1.111   .     S
C682   H1162   1.108   .     S
C682   H1163   1.111   .     S
C683   H840    1.105   .     S
C683   C758    1.532   .     S
C683   H838    1.110   .     S
C683   C1016   1.530   1_455 S
C684   H836    1.107   .     S
C684   H835    1.111   .     S
C684   H837    1.111   .     S
C684   C1015   1.530   .     S
C685   C686    1.532   .     S
C685   C759    1.535   .     S
C685   H845    1.109   .     S
C685   H844    1.105   .     S
C686   H843    1.111   .     S
C686   H177    1.108   1_565 S
C686   H178    1.111   1_565 S
C687   H849    1.110   .     S
C687   H851    1.105   .     S
C687   C760    1.532   .     S
C688   O929    1.274   .     A
C688   O953    1.275   .     A
C688   C746    1.421   .     S
C689   H846    1.111   .     S
C689   H848    1.111   .     S
C689   H847    1.107   .     S
C689   C23     1.530   1_565 S
C690   H855    1.108   .     S
C690   C761    1.531   .     S
C690   C691    1.531   .     S
C690   H856    1.109   .     S
C691   H854    1.111   .     S
C691   H852    1.111   .     S
C691   H853    1.108   .     S
C692   H862    1.108   .     S
C692   C763    1.531   .     S
C692   H860    1.109   .     S
C692   C693    1.531   .     S
C693   H857    1.108   .     S
C693   H859    1.111   .     S
C693   H858    1.111   .     S
C694   H866    1.110   .     S
C694   C764    1.532   .     S
C694   H867    1.105   .     S
C694   C695    1.531   .     S
C695   H864    1.107   .     S
C695   H863    1.111   .     S
C695   H865    1.111   .     S
C696   H873    1.109   .     S
C696   C765    1.535   .     S
C696   C697    1.532   .     S
C696   H871    1.106   .     S
C697   H869    1.111   .     S
C697   H868    1.108   .     S
C697   H870    1.111   .     S
C698   C766    1.531   .     S
C698   H877    1.108   .     S
C698   C700    1.531   .     S
C698   H878    1.109   .     S
C699   O959    1.277   .     A
C699   C745    1.422   .     S
C699   O930    1.276   .     A
C700   H875    1.108   .     S
C700   H876    1.111   .     S
C700   H874    1.111   .     S
C701   H882    1.109   .     S
C701   C702    1.531   .     S
C701   H884    1.108   .     S
C701   C767    1.531   .     S
C702   H879    1.111   .     S
C702   H881    1.111   .     S
C702   H880    1.108   .     S
C703   H888    1.110   .     S
C703   C768    1.529   .     S
C703   C704    1.530   .     S
C703   H889    1.107   .     S
C704   H885    1.111   .     S
C704   H887    1.111   .     S
C704   H886    1.108   .     S
C705   C769    1.534   .     S
C705   H895    1.103   .     S
C705   H893    1.108   .     S
C705   C1038   1.532   .     S
C706   H892    1.111   .     S
C706   H890    1.108   .     S
C706   C1037   1.532   1_455 S
C706   H1223   1.110   1_455 S
C707   O961    1.220   .     D
C707   H896    1.086   .     S
C707   C805    1.494   .     S
C708   O962    1.221   .     D
C708   H897    1.084   .     S
C708   C807    1.492   .     S
C709   H898    1.086   .     S
C709   C808    1.494   .     S
C709   O963    1.220   .     D
C710   O931    1.277   .     A
C710   O960    1.277   .     A
C710   C744    1.422   .     S
C711   H899    1.084   .     S
C711   O964    1.221   .     D
C711   C809    1.492   .     S
C712   O965    1.222   .     D
C712   C810    1.492   .     S
C712   H900    1.084   .     S
C713   O966    1.221   .     D
C713   H901    1.082   .     S
C713   C811    1.489   .     S
C714   C812    1.492   .     S
C714   H902    1.084   .     S
C714   O967    1.222   .     D
C715   O969    1.221   .     D
C715   H903    1.082   .     S
C715   C813    1.489   .     S
C716   H904    1.084   .     S
C716   C814    1.491   .     S
C716   O970    1.221   .     D
C717   C815    1.490   .     S
C717   H906    1.084   .     S
C718   C816    1.490   .     S
C718   H907    1.083   .     S
C718   O972    1.221   .     D
C719   H908    1.083   .     S
C719   O973    1.222   .     D
C720   O974    1.221   .     D
C720   H909    1.084   .     S
C721   O956    1.275   .     A
C721   O932    1.276   .     A
C721   C752    1.421   .     S
C722   H910    1.084   .     S
C722   O311    1.221   1_565 S
C723   O976    1.221   .     D
C723   H911    1.083   .     S
C724   O977    1.220   .     D
C724   H912    1.086   .     S
C725   O958    1.275   .     A
C725   O933    1.276   .     A
C725   C750    1.421   .     S
C726   C741    1.421   .     S
C726   O934    1.275   .     A
C726   O945    1.274   .     A
C727   C739    1.421   .     S
C727   O947    1.274   .     A
C727   O936    1.275   .     A
C728   O943    1.273   .     A
C728   O937    1.273   .     A
C728   C738    1.421   .     S
C729   C774    1.463   .     S
C729   O914    1.267   .     A
C729   O304    1.272   1_565 S
C730   O938    1.273   .     A
C730   O944    1.273   .     A
C730   C737    1.421   .     S
C731   C736    1.421   .     S
C731   O950    1.276   .     A
C731   O939    1.275   .     A
C732   C735    1.421   .     S
C732   O951    1.276   .     A
C732   O940    1.275   .     A
C733   C743    1.422   .     S
C733   O948    1.277   .     A
C733   O941    1.277   .     A
C734   O942    1.277   .     A
C734   O949    1.277   .     A
C734   C742    1.422   .     S
C735   C752    1.197   .     T
C736   C750    1.197   .     T
C737   C749    1.197   .     T
C738   C748    1.198   .     T
C739   C747    1.197   .     T
C740   C770    1.480   .     S
C740   O978    1.269   .     A
C740   O1247   1.280   1_455 S
C741   C746    1.197   .     T
C742   C745    1.198   .     T
C743   C744    1.198   .     T
C749   C806    1.421   .     S
C751   O979    1.267   .     A
C751   C771    1.463   .     S
C751   O1248   1.272   .     S
C753   C770    1.423   .     A
C753   C783    1.419   .     A
C754   C771    1.412   .     A
C754   C785    1.416   .     A
C755   C786    1.419   .     A
C755   C772    1.423   .     A
C756   C787    1.416   .     A
C756   C774    1.412   .     A
C757   C779    1.419   .     A
C757   C1102   1.415   .     S
C758   C780    1.419   .     A
C758   C1103   1.413   1_455 S
C759   C781    1.419   .     A
C759   C108    1.415   1_565 S
C760   C782    1.419   .     A
C761   C792    1.414   .     A
C761   C111    1.421   1_565 S
C762   C777    1.463   .     S
C762   O1249   1.273   .     S
C762   O1253   1.267   .     S
C763   C793    1.414   .     A
C763   C112    1.417   1_565 S
C764   C794    1.418   .     A
C764   C777    1.413   .     A
C765   C796    1.420   .     A
C765   C1110   1.416   1_455 S
C766   C775    1.421   .     A
C766   C788    1.414   .     A
C767   C776    1.417   .     A
C767   C789    1.414   .     A
C768   C790    1.416   .     A
C768   C1109   1.413   1_455 S
C769   C791    1.416   .     A
C769   C778    1.423   .     A
C770   C1089   1.415   1_455 S
C771   C1090   1.413   .     S
C773   C778    1.481   .     S
C773   O1250   1.281   .     S
C773   O1254   1.269   .     S
C774   C96     1.413   1_565 S
C775   C784    1.475   .     S
C776   C795    1.467   .     S
C777   C1100   1.413   .     S
C778   C1097   1.416   .     S
C779   C805    1.422   .     A
C779   C797    1.414   .     A
C780   C807    1.418   .     A
C780   C1130   1.418   1_455 S
C781   C799    1.414   .     A
C781   C808    1.422   .     A
C782   C809    1.418   .     A
C783   C810    1.418   .     A
C783   C1129   1.412   1_455 S
C784   O919    1.274   .     A
C784   O923    1.274   .     A
C785   C811    1.420   .     A
C785   C798    1.411   .     A
C786   C812    1.418   .     A
C787   C813    1.420   .     A
C787   C800    1.411   .     A
C788   C801    1.410   .     A
C789   C802    1.412   .     A
C789   C815    1.423   .     A
C790   C816    1.420   .     A
C790   C1135   1.411   1_455 S
C791   C804    1.412   .     A
C792   C4      1.421   1_565 S
C792   C137    1.410   1_565 S
C793   C138    1.412   1_565 S
C794   C803    1.419   .     A
C795   O920    1.272   .     S
C795   O925    1.271   .     S
C796   C1136   1.415   1_455 S
C797   C798    1.410   .     A
C797   C1115   1.412   .     S
C798   C1112   1.418   .     S
C799   C800    1.410   .     A
C799   C122    1.413   1_565 S
C800   C118    1.418   1_565 S
C801   C802    1.395   1_556 S
C802   C801    1.395   1_554 S
C803   C1122   1.411   .     S
C803   C804    1.409   1_556 S
C804   C1128   1.415   .     S
C804   C803    1.409   1_554 S
C805   C811    1.419   .     A
C806   O954    1.273   .     A
C806   O926    1.273   .     A
C807   C810    1.401   .     A
C808   C813    1.419   .     A
C809   C812    1.402   .     A
C814   C669    1.415   1_556 S
C814   C124    1.421   1_565 S
C815   C668    1.415   1_554 S
C816   C671    1.419   1_556 S
H826   C16     1.111   1_565 S
H830   C1014   1.108   1_455 S
H831   C1014   1.111   1_455 S
H891   C1038   1.110   .     S
H894   C1007   1.111   .     S
O913   Zn981   1.932   .     S
O913   Zn984   1.930   .     S
O913   Zn992   1.935   .     S
O914   Zn983   1.949   .     S
O915   Zn986   1.946   .     S
O915   C1072   1.280   .     S
O916   Zn985   1.946   .     S
O916   C1083   1.272   1_455 S
O917   Zn995   1.945   .     S
O917   C1094   1.273   1_455 S
O918   Zn994   1.945   .     S
O918   C1105   1.281   1_455 S
O919   Zn989   1.948   .     S
O920   Zn981   1.948   .     S
O921   Zn991   1.949   .     S
O921   C1094   1.267   1_455 S
O922   Zn990   1.949   .     S
O922   C1105   1.269   1_455 S
O923   Zn993   1.946   .     S
O924   Zn989   1.932   .     S
O924   Zn993   1.935   .     S
O924   Zn987   1.938   .     S
O925   Zn992   1.946   .     S
O926   Zn984   1.914   .     S
O927   Zn983   1.914   .     S
O928   Zn986   1.912   .     S
O929   Zn985   1.912   .     S
O930   Zn988   1.914   .     S
O931   Zn987   1.914   .     S
O932   Zn982   1.915   .     S
O933   Zn996   1.915   .     S
O934   Zn983   1.914   .     S
O935   Zn990   1.930   .     S
O935   Zn982   1.932   .     S
O935   Zn994   1.938   .     S
O935   Zn1318  1.935   1_455 S
O936   Zn984   1.914   .     S
O937   Zn996   1.913   .     S
O938   Zn982   1.913   .     S
O939   Zn987   1.912   .     S
O940   Zn988   1.912   .     S
O941   Zn985   1.915   .     S
O942   Zn986   1.915   .     S
O943   Zn1323  1.914   .     S
O944   Zn990   1.914   .     S
O945   Zn329   1.912   1_565 S
O946   Zn985   1.935   .     S
O946   Zn991   1.930   .     S
O946   Zn995   1.938   .     S
O946   Zn1328  1.932   1_455 S
O947   Zn992   1.912   .     S
O948   Zn995   1.914   .     S
O949   Zn1326  1.914   .     S
O950   Zn989   1.915   .     S
O951   Zn317   1.915   1_565 S
O952   Zn1322  1.914   .     S
O953   Zn991   1.914   .     S
O954   Zn981   1.913   .     S
O955   Zn325   1.913   1_565 S
O956   Zn994   1.912   .     S
O957   Zn988   1.945   .     S
O957   C1      1.279   1_565 S
O958   Zn1327  1.912   .     S
O959   Zn328   1.915   1_565 S
O960   Zn993   1.915   .     S
O968   Zn987   1.945   .     S
O971   C53     1.221   1_565 S
O978   Zn982   1.948   .     S
O979   Zn996   1.948   .     S
O980   Zn984   1.949   .     S
Zn983  O260    1.930   1_565 S
Zn986  O1267   1.935   .     S
Zn988  O249    1.938   1_565 S
Zn990  O1284   1.914   1_455 S
Zn991  O1275   1.914   1_455 S
Zn994  O1281   1.914   1_455 S
Zn995  O1290   1.912   1_455 S
Zn996  O1278   1.932   .     S
C997   O1312   1.269   .     A
C997   C1104   1.480   .     S
C998   C1080   1.421   .     S
C998   O1259   1.273   .     A
C998   O1287   1.273   .     A
C999   C1123   1.418   .     A
C999   C1051   1.493   .     S
C999   C1002   1.403   1_554 S
C1000  C1052   1.491   .     S
C1000  C1147   1.415   1_556 S
C1001  C1054   1.490   .     S
C1001  C1125   1.423   .     A
C1001  C1146   1.415   1_554 S
C1002  C1126   1.418   .     A
C1002  C1055   1.493   .     S
C1002  C999    1.403   1_556 S
C1003  C1128   1.423   .     A
C1003  C1056   1.494   .     S
C1003  C1148   1.419   1_554 S
C1004  H1182   1.108   .     S
C1004  C1085   1.533   .     S
C1004  C1005   1.532   .     S
C1004  H1193   1.101   .     S
C1005  H1160   1.109   .     S
C1005  H1149   1.111   .     S
C1005  H1171   1.110   .     S
C1006  H1150   1.107   .     S
C1006  H1237   1.110   .     S
C1006  C1086   1.529   .     S
C1006  C675    1.530   1_655 S
C1007  H1215   1.108   .     S
C1007  H1204   1.111   .     S
C1008  C1087   1.533   .     S
C1008  H1155   1.101   .     S
C1008  H1154   1.108   .     S
C1008  C1010   1.532   .     S
C1009  C1079   1.421   .     S
C1009  O1260   1.274   .     A
C1009  O1284   1.275   .     A
C1010  H1152   1.109   .     S
C1010  H1153   1.110   .     S
C1010  H1151   1.111   .     S
C1011  H1159   1.110   .     S
C1011  H1161   1.107   .     S
C1011  C1088   1.529   .     S
C1011  C348    1.530   1_565 S
C1012  H1156   1.111   .     S
C1012  H1157   1.108   .     S
C1013  H1166   1.109   .     S
C1013  C1014   1.532   .     S
C1013  C1089   1.535   .     S
C1013  H1165   1.105   .     S
C1014  H1164   1.111   .     S
C1014  H830    1.108   1_655 S
C1014  H831    1.111   1_655 S
C1015  H1172   1.105   .     S
C1015  C1090   1.532   .     S
C1015  H1170   1.110   .     S
C1016  H1168   1.107   .     S
C1016  H1167   1.111   .     S
C1016  H1169   1.111   .     S
C1016  C683    1.530   1_655 S
C1017  C1018   1.532   .     S
C1017  C1091   1.535   .     S
C1017  H1177   1.109   .     S
C1017  H1176   1.105   .     S
C1018  H1175   1.111   .     S
C1018  H509    1.108   1_565 S
C1018  H510    1.111   1_565 S
C1019  H1181   1.110   .     S
C1019  H1183   1.105   .     S
C1019  C1092   1.532   .     S
C1020  O1261   1.274   .     A
C1020  O1285   1.275   .     A
C1020  C1078   1.421   .     S
C1021  H1178   1.111   .     S
C1021  H1180   1.111   .     S
C1021  H1179   1.107   .     S
C1021  C355    1.530   1_565 S
C1022  H1187   1.108   .     S
C1022  C1093   1.531   .     S
C1022  C1023   1.531   .     S
C1022  H1188   1.109   .     S
C1023  H1186   1.111   .     S
C1023  H1184   1.111   .     S
C1023  H1185   1.108   .     S
C1024  H1194   1.108   .     S
C1024  C1095   1.531   .     S
C1024  H1192   1.109   .     S
C1024  C1025   1.531   .     S
C1025  H1189   1.108   .     S
C1025  H1191   1.111   .     S
C1025  H1190   1.111   .     S
C1026  H1198   1.110   .     S
C1026  C1096   1.532   .     S
C1026  H1199   1.105   .     S
C1026  C1027   1.531   .     S
C1027  H1196   1.107   .     S
C1027  H1195   1.111   .     S
C1027  H1197   1.111   .     S
C1028  H1205   1.109   .     S
C1028  C1097   1.535   .     S
C1028  C1029   1.532   .     S
C1028  H1203   1.106   .     S
C1029  H1201   1.111   .     S
C1029  H1200   1.108   .     S
C1029  H1202   1.111   .     S
C1030  C1098   1.531   .     S
C1030  H1209   1.108   .     S
C1030  C1032   1.531   .     S
C1030  H1210   1.109   .     S
C1031  O1291   1.277   .     A
C1031  C1077   1.422   .     S
C1031  O1262   1.276   .     A
C1032  H1207   1.108   .     S
C1032  H1208   1.111   .     S
C1032  H1206   1.111   .     S
C1033  H1214   1.109   .     S
C1033  C1034   1.531   .     S
C1033  H1216   1.108   .     S
C1033  C1099   1.531   .     S
C1034  H1211   1.111   .     S
C1034  H1213   1.111   .     S
C1034  H1212   1.108   .     S
C1035  H1220   1.110   .     S
C1035  C1100   1.529   .     S
C1035  C1036   1.530   .     S
C1035  H1221   1.107   .     S
C1036  H1217   1.111   .     S
C1036  H1219   1.111   .     S
C1036  H1218   1.108   .     S
C1037  C1101   1.534   .     S
C1037  H1227   1.103   .     S
C1037  H1225   1.108   .     S
C1037  C706    1.532   1_655 S
C1038  H1224   1.111   .     S
C1038  H1222   1.108   .     S
C1039  O1293   1.220   .     D
C1039  H1228   1.086   .     S
C1039  C1137   1.494   .     S
C1040  O1294   1.221   .     D
C1040  H1229   1.084   .     S
C1040  C1139   1.492   .     S
C1041  H1230   1.086   .     S
C1041  C1140   1.494   .     S
C1041  O1295   1.220   .     D
C1042  O1263   1.277   .     A
C1042  O1292   1.277   .     A
C1042  C1076   1.422   .     S
C1043  H1231   1.084   .     S
C1043  O1296   1.221   .     D
C1043  C1141   1.492   .     S
C1044  O1297   1.222   .     D
C1044  C1142   1.492   .     S
C1044  H1232   1.084   .     S
C1045  O1298   1.221   .     D
C1045  H1233   1.082   .     S
C1045  C1143   1.489   .     S
C1046  C1144   1.492   .     S
C1046  H1234   1.084   .     S
C1046  O1299   1.222   .     D
C1047  O1301   1.221   .     D
C1047  H1235   1.082   .     S
C1047  C1145   1.489   .     S
C1048  H1236   1.084   .     S
C1048  C1146   1.491   .     S
C1048  O1302   1.221   .     D
C1049  C1147   1.490   .     S
C1049  H1238   1.084   .     S
C1050  C1148   1.490   .     S
C1050  H1239   1.083   .     S
C1050  O1304   1.221   .     D
C1051  H1240   1.083   .     S
C1051  O1305   1.222   .     D
C1052  O1306   1.221   .     D
C1052  H1241   1.084   .     S
C1053  O1288   1.275   .     A
C1053  O1264   1.276   .     A
C1053  C1084   1.421   .     S
C1054  H1242   1.084   .     S
C1054  O643    1.221   1_565 S
C1055  O1308   1.221   .     D
C1055  H1243   1.083   .     S
C1056  O1309   1.220   .     D
C1056  H1244   1.086   .     S
C1057  O1290   1.275   .     A
C1057  O1265   1.276   .     A
C1057  C1082   1.421   .     S
C1058  C1073   1.421   .     S
C1058  O1266   1.275   .     A
C1058  O1277   1.274   .     A
C1059  C1071   1.421   .     S
C1059  O1279   1.274   .     A
C1059  O1268   1.275   .     A
C1060  O1275   1.273   .     A
C1060  O1269   1.273   .     A
C1060  C1070   1.421   .     S
C1061  C1106   1.463   .     S
C1061  O1246   1.267   .     A
C1061  O636    1.272   1_565 S
C1062  O1270   1.273   .     A
C1062  O1276   1.273   .     A
C1062  C1069   1.421   .     S
C1063  C1068   1.421   .     S
C1063  O1282   1.276   .     A
C1063  O1271   1.275   .     A
C1064  C1067   1.421   .     S
C1064  O1283   1.276   .     A
C1064  O1272   1.275   .     A
C1065  C1075   1.422   .     S
C1065  O1280   1.277   .     A
C1065  O1273   1.277   .     A
C1066  O1274   1.277   .     A
C1066  O1281   1.277   .     A
C1066  C1074   1.422   .     S
C1067  C1084   1.197   .     T
C1068  C1082   1.197   .     T
C1069  C1081   1.197   .     T
C1070  C1080   1.198   .     T
C1071  C1079   1.197   .     T
C1072  C1102   1.480   .     S
C1072  O1310   1.269   .     A
C1073  C1078   1.197   .     T
C1074  C1077   1.198   .     T
C1075  C1076   1.198   .     T
C1081  C1138   1.421   .     S
C1083  O1311   1.267   .     A
C1083  C1103   1.463   .     S
C1083  O916    1.272   1_655 S
C1085  C1102   1.423   .     A
C1085  C1115   1.419   .     A
C1086  C1103   1.412   .     A
C1086  C1117   1.416   .     A
C1087  C1118   1.419   .     A
C1087  C1104   1.423   .     A
C1088  C1119   1.416   .     A
C1088  C1106   1.412   .     A
C1089  C1111   1.419   .     A
C1089  C770    1.415   1_655 S
C1090  C1112   1.419   .     A
C1091  C1113   1.419   .     A
C1091  C440    1.415   1_565 S
C1092  C1114   1.419   .     A
C1093  C1124   1.414   .     A
C1093  C443    1.421   1_565 S
C1094  C1109   1.463   .     S
C1094  O917    1.273   1_655 S
C1094  O921    1.267   1_655 S
C1095  C1125   1.414   .     A
C1095  C444    1.417   1_565 S
C1096  C1126   1.418   .     A
C1096  C1109   1.413   .     A
C1097  C1128   1.420   .     A
C1098  C1107   1.421   .     A
C1098  C1120   1.414   .     A
C1099  C1108   1.417   .     A
C1099  C1121   1.414   .     A
C1100  C1122   1.416   .     A
C1101  C1123   1.416   .     A
C1101  C1110   1.423   .     A
C1103  C758    1.413   1_655 S
C1105  C1110   1.481   .     S
C1105  O918    1.281   1_655 S
C1105  O922    1.269   1_655 S
C1106  C428    1.413   1_565 S
C1107  C1116   1.475   .     S
C1108  C1127   1.467   .     S
C1109  C768    1.413   1_655 S
C1110  C765    1.416   1_655 S
C1111  C1137   1.422   .     A
C1111  C1129   1.414   .     A
C1112  C1139   1.418   .     A
C1113  C1131   1.414   .     A
C1113  C1140   1.422   .     A
C1114  C1141   1.418   .     A
C1115  C1142   1.418   .     A
C1116  O1251   1.274   .     A
C1116  O1255   1.274   .     A
C1117  C1143   1.420   .     A
C1117  C1130   1.411   .     A
C1118  C1144   1.418   .     A
C1119  C1145   1.420   .     A
C1119  C1132   1.411   .     A
C1120  C1133   1.410   .     A
C1121  C1134   1.412   .     A
C1121  C1147   1.423   .     A
C1122  C1148   1.420   .     A
C1123  C1136   1.412   .     A
C1124  C336    1.421   1_565 S
C1124  C469    1.410   1_565 S
C1125  C470    1.412   1_565 S
C1126  C1135   1.419   .     A
C1127  O1252   1.272   .     S
C1127  O1257   1.271   .     S
C1129  C1130   1.410   .     A
C1129  C783    1.412   1_655 S
C1130  C780    1.418   1_655 S
C1131  C1132   1.410   .     A
C1131  C454    1.413   1_565 S
C1132  C450    1.418   1_565 S
C1133  C1134   1.395   1_556 S
C1134  C1133   1.395   1_554 S
C1135  C790    1.411   1_655 S
C1135  C1136   1.409   1_556 S
C1136  C796    1.415   1_655 S
C1136  C1135   1.409   1_554 S
C1137  C1143   1.419   .     A
C1138  O1286   1.273   .     A
C1138  O1258   1.273   .     A
C1139  C1142   1.401   .     A
C1140  C1145   1.419   .     A
C1141  C1144   1.402   .     A
C1146  C1001   1.415   1_556 S
C1146  C456    1.421   1_565 S
C1147  C1000   1.415   1_554 S
C1148  C1003   1.419   1_556 S
H1158  C348    1.111   1_565 S
H1223  C706    1.110   1_655 S
H1226  C675    1.111   1_655 S
O1245  Zn1313  1.932   .     S
O1245  Zn1316  1.930   .     S
O1245  Zn1324  1.935   .     S
O1246  Zn1315  1.949   .     S
O1247  Zn1318  1.946   .     S
O1247  C740    1.280   1_655 S
O1248  Zn1317  1.946   .     S
O1249  Zn1327  1.945   .     S
O1250  Zn1326  1.945   .     S
O1251  Zn1321  1.948   .     S
O1252  Zn1313  1.948   .     S
O1253  Zn1323  1.949   .     S
O1254  Zn1322  1.949   .     S
O1255  Zn1325  1.946   .     S
O1256  Zn1321  1.932   .     S
O1256  Zn1325  1.935   .     S
O1256  Zn1319  1.938   .     S
O1257  Zn1324  1.946   .     S
O1258  Zn1316  1.914   .     S
O1259  Zn1315  1.914   .     S
O1260  Zn1318  1.912   .     S
O1261  Zn1317  1.912   .     S
O1262  Zn1320  1.914   .     S
O1263  Zn1319  1.914   .     S
O1264  Zn1314  1.915   .     S
O1265  Zn1328  1.915   .     S
O1266  Zn1315  1.914   .     S
O1267  Zn1322  1.930   .     S
O1267  Zn1314  1.932   .     S
O1267  Zn1326  1.938   .     S
O1268  Zn1316  1.914   .     S
O1269  Zn1328  1.913   .     S
O1270  Zn1314  1.913   .     S
O1271  Zn1319  1.912   .     S
O1272  Zn1320  1.912   .     S
O1273  Zn1317  1.915   .     S
O1274  Zn1318  1.915   .     S
O1275  Zn991   1.914   1_655 S
O1276  Zn1322  1.914   .     S
O1277  Zn661   1.912   1_565 S
O1278  Zn1317  1.935   .     S
O1278  Zn1323  1.930   .     S
O1278  Zn1327  1.938   .     S
O1279  Zn1324  1.912   .     S
O1280  Zn1327  1.914   .     S
O1281  Zn994   1.914   1_655 S
O1282  Zn1321  1.915   .     S
O1283  Zn649   1.915   1_565 S
O1284  Zn990   1.914   1_655 S
O1285  Zn1323  1.914   .     S
O1286  Zn1313  1.913   .     S
O1287  Zn657   1.913   1_565 S
O1288  Zn1326  1.912   .     S
O1289  Zn1320  1.945   .     S
O1289  C333    1.279   1_565 S
O1290  Zn995   1.912   1_655 S
O1291  Zn660   1.915   1_565 S
O1292  Zn1325  1.915   .     S
O1300  Zn1319  1.945   .     S
O1303  C385    1.221   1_565 S
O1310  Zn1314  1.948   .     S
O1311  Zn1328  1.948   .     S
O1312  Zn1316  1.949   .     S
Zn1315 O592    1.930   1_565 S
Zn1318 O935    1.935   1_655 S
Zn1320 O581    1.938   1_565 S
Zn1328 O946    1.932   1_655 S
