data_str_m1_o10_o18_pcu_sym.200
_audit_creation_date              2020-01-03
_audit_creation_method            'Materials Studio'
_symmetry_space_group_name_H-M    'P1'
_symmetry_Int_Tables_number       1
_symmetry_cell_setting            triclinic
loop_
_symmetry_equiv_pos_as_xyz
  x,y,z
_cell_length_a                    32.6669
_cell_length_b                    32.4771
_cell_length_c                    35.8598
_cell_angle_alpha                 98.1102
_cell_angle_beta                  73.0620
_cell_angle_gamma                 98.2862
loop_
_atom_site_label
_atom_site_type_symbol
_atom_site_fract_x
_atom_site_fract_y
_atom_site_fract_z
_atom_site_U_iso_or_equiv
_atom_site_adp_type
_atom_site_occupancy
C1     C     0.05280   0.16047   0.25836   0.00000  Uiso   1.00
C2     C     0.19726   0.13043   0.46092   0.00000  Uiso   1.00
C3     C     0.21807   0.11101   0.48101   0.00000  Uiso   1.00
C4     C     0.28094   0.17337   0.24140   0.00000  Uiso   1.00
C5     C     0.21059   0.11990   0.02131   0.00000  Uiso   1.00
C6     C     0.18066   0.14841   0.04247   0.00000  Uiso   1.00
C7     C     0.23277   0.10024   0.04072   0.00000  Uiso   1.00
C8     C     0.22577   0.10858   0.08104   0.00000  Uiso   1.00
C9     C     0.17461   0.15656   0.08327   0.00000  Uiso   1.00
C10    C     0.32670   0.17388   0.23768   0.00000  Uiso   1.00
C11    C     0.00681   0.15757   0.26404   0.00000  Uiso   1.00
C12    C     0.10394   0.22145   0.42027   0.00000  Uiso   1.00
C13    C     0.18071   0.32215   0.23825   0.00000  Uiso   1.00
C14    C     0.15157   0.01217   0.26230   0.00000  Uiso   1.00
C15    C     0.15587   0.05619   0.25900   0.00000  Uiso   1.00
C16    C     0.17680   0.27764   0.24141   0.00000  Uiso   1.00
C17    C     0.18835   0.14509   0.14425   0.00000  Uiso   1.00
C18    C     0.14548   0.18781   0.35608   0.00000  Uiso   1.00
C19    C     0.13558   0.19578   0.39898   0.00000  Uiso   1.00
C20    C     0.19673   0.13672   0.10210   0.00000  Uiso   1.00
C21    C     0.09455   0.22847   0.46109   0.00000  Uiso   1.00
C22    C     0.32666   0.11609   0.31532   0.00000  Uiso   1.00
C23    C     0.15750   0.17663   0.41870   0.00000  Uiso   1.00
C24    C     0.07952   0.29562   0.47934   0.00000  Uiso   1.00
C25    C     0.14727   0.18099   0.45989   0.00000  Uiso   1.00
C26    C     0.11557   0.20775   0.48106   0.00000  Uiso   1.00
C27    C     0.16791   0.15983   0.48049   0.00000  Uiso   1.00
C28    C     0.15834   0.16782   0.02209   0.00000  Uiso   1.00
C29    C     0.12643   0.19451   0.04196   0.00000  Uiso   1.00
C30    C     0.10544   0.21374   0.02185   0.00000  Uiso   1.00
H31    H     0.08119   0.23378   0.03867   0.00000  Uiso   1.00
H32    H     0.18280   0.15874   0.40091   0.00000  Uiso   1.00
H33    H     0.11613   0.20090   0.07335   0.00000  Uiso   1.00
H34    H     0.20453   0.12078   0.42996   0.00000  Uiso   1.00
H35    H     0.01921   0.13146   0.32857   0.00000  Uiso   1.00
H36    H     0.00474   0.08940   0.29336   0.00000  Uiso   1.00
H37    H     0.29994   0.10317   0.33918   0.00000  Uiso   1.00
H38    H     0.08789   0.30395   0.44876   0.00000  Uiso   1.00
H39    H     0.10808   0.30299   0.49109   0.00000  Uiso   1.00
H40    H     0.05458   0.31551   0.49757   0.00000  Uiso   1.00
H41    H     0.25549   0.07836   0.02467   0.00000  Uiso   1.00
H42    H     0.01654   0.18694   0.21253   0.00000  Uiso   1.00
H43    H     0.20759   0.00270   0.21615   0.00000  Uiso   1.00
H44    H     0.12433   0.33244   0.28452   0.00000  Uiso   1.00
H45    H     0.15331   0.17838   0.10147   0.00000  Uiso   1.00
H46    H     0.24285   0.09310   0.09583   0.00000  Uiso   1.00
H47    H     0.24038   0.08880   0.46474   0.00000  Uiso   1.00
H48    H     0.08638   0.23615   0.40535   0.00000  Uiso   1.00
O49    O     0.16667   0.16667   0.25000   0.00000  Uiso   1.00
O50    O     0.15693   0.12393   0.16625   0.00000  Uiso   1.00
O51    O     0.12687   0.20646   0.33749   0.00000  Uiso   1.00
O52    O     0.21088   0.17493   0.15877   0.00000  Uiso   1.00
O53    O     0.17198   0.16135   0.33749   0.00000  Uiso   1.00
O54    O     0.31096   0.14534   0.29878   0.00000  Uiso   1.00
O55    O     0.06255   0.25331   0.48168   0.00000  Uiso   1.00
O56    O     0.17849   0.08101   0.27821   0.00000  Uiso   1.00
O57    O     0.14581   0.26136   0.26767   0.00000  Uiso   1.00
O58    O     0.07452   0.13251   0.23607   0.00000  Uiso   1.00
O59    O     0.26785   0.19179   0.21806   0.00000  Uiso   1.00
O60    O     0.06990   0.18960   0.27820   0.00000  Uiso   1.00
O61    O     0.25440   0.15277   0.26768   0.00000  Uiso   1.00
O62    O     0.13800   0.06903   0.23607   0.00000  Uiso   1.00
O63    O     0.20437   0.25527   0.21806   0.00000  Uiso   1.00
Zn64   Zn    0.19244   0.14090   0.28278   0.00000  Uiso   1.00
Zn65   Zn    0.13459   0.12378   0.22258   0.00000  Uiso   1.00
Zn66   Zn    0.21166   0.19664   0.21188   0.00000  Uiso   1.00
Zn67   Zn    0.12798   0.20535   0.28277   0.00000  Uiso   1.00
C68    C     0.38613   0.16047   0.25836   0.00000  Uiso   1.00
C69    C     0.53059   0.13043   0.46092   0.00000  Uiso   1.00
C70    C     0.55141   0.11101   0.48101   0.00000  Uiso   1.00
C71    C     0.61427   0.17337   0.24140   0.00000  Uiso   1.00
C72    C     0.54392   0.11990   0.02131   0.00000  Uiso   1.00
C73    C     0.51400   0.14841   0.04247   0.00000  Uiso   1.00
C74    C     0.56610   0.10024   0.04072   0.00000  Uiso   1.00
C75    C     0.55910   0.10858   0.08104   0.00000  Uiso   1.00
C76    C     0.50794   0.15656   0.08327   0.00000  Uiso   1.00
C77    C     0.66003   0.17388   0.23768   0.00000  Uiso   1.00
C78    C     0.34014   0.15757   0.26404   0.00000  Uiso   1.00
C79    C     0.43728   0.22145   0.42027   0.00000  Uiso   1.00
C80    C     0.51405   0.32215   0.23825   0.00000  Uiso   1.00
C81    C     0.48490   0.01217   0.26230   0.00000  Uiso   1.00
C82    C     0.48920   0.05619   0.25900   0.00000  Uiso   1.00
C83    C     0.51013   0.27764   0.24141   0.00000  Uiso   1.00
C84    C     0.52168   0.14509   0.14425   0.00000  Uiso   1.00
C85    C     0.47881   0.18781   0.35608   0.00000  Uiso   1.00
C86    C     0.46891   0.19578   0.39898   0.00000  Uiso   1.00
C87    C     0.53007   0.13672   0.10210   0.00000  Uiso   1.00
C88    C     0.42788   0.22847   0.46109   0.00000  Uiso   1.00
C89    C     0.65999   0.11609   0.31532   0.00000  Uiso   1.00
C90    C     0.49083   0.17663   0.41870   0.00000  Uiso   1.00
C91    C     0.41285   0.29562   0.47934   0.00000  Uiso   1.00
C92    C     0.48060   0.18099   0.45989   0.00000  Uiso   1.00
C93    C     0.44891   0.20775   0.48106   0.00000  Uiso   1.00
C94    C     0.50124   0.15983   0.48049   0.00000  Uiso   1.00
C95    C     0.49167   0.16782   0.02209   0.00000  Uiso   1.00
C96    C     0.45976   0.19451   0.04196   0.00000  Uiso   1.00
C97    C     0.43877   0.21374   0.02185   0.00000  Uiso   1.00
H98    H     0.41453   0.23378   0.03867   0.00000  Uiso   1.00
H99    H     0.51613   0.15874   0.40091   0.00000  Uiso   1.00
H100   H     0.44947   0.20090   0.07335   0.00000  Uiso   1.00
H101   H     0.53786   0.12078   0.42996   0.00000  Uiso   1.00
H102   H     0.35255   0.13146   0.32857   0.00000  Uiso   1.00
H103   H     0.33808   0.08940   0.29336   0.00000  Uiso   1.00
H104   H     0.63327   0.10317   0.33918   0.00000  Uiso   1.00
H105   H     0.42123   0.30395   0.44876   0.00000  Uiso   1.00
H106   H     0.44141   0.30299   0.49109   0.00000  Uiso   1.00
H107   H     0.38792   0.31551   0.49757   0.00000  Uiso   1.00
H108   H     0.58883   0.07836   0.02467   0.00000  Uiso   1.00
H109   H     0.34987   0.18694   0.21253   0.00000  Uiso   1.00
H110   H     0.54092   0.00270   0.21615   0.00000  Uiso   1.00
H111   H     0.45766   0.33244   0.28452   0.00000  Uiso   1.00
H112   H     0.48664   0.17838   0.10147   0.00000  Uiso   1.00
H113   H     0.57618   0.09310   0.09583   0.00000  Uiso   1.00
H114   H     0.57371   0.08880   0.46474   0.00000  Uiso   1.00
H115   H     0.41971   0.23615   0.40535   0.00000  Uiso   1.00
O116   O     0.50000   0.16667   0.25000   0.00000  Uiso   1.00
O117   O     0.49027   0.12393   0.16625   0.00000  Uiso   1.00
O118   O     0.46020   0.20646   0.33749   0.00000  Uiso   1.00
O119   O     0.54421   0.17493   0.15877   0.00000  Uiso   1.00
O120   O     0.50532   0.16135   0.33749   0.00000  Uiso   1.00
O121   O     0.64430   0.14534   0.29878   0.00000  Uiso   1.00
O122   O     0.39588   0.25331   0.48168   0.00000  Uiso   1.00
O123   O     0.51182   0.08101   0.27821   0.00000  Uiso   1.00
O124   O     0.47914   0.26136   0.26767   0.00000  Uiso   1.00
O125   O     0.40785   0.13251   0.23607   0.00000  Uiso   1.00
O126   O     0.60119   0.19179   0.21806   0.00000  Uiso   1.00
O127   O     0.40323   0.18960   0.27820   0.00000  Uiso   1.00
O128   O     0.58773   0.15277   0.26768   0.00000  Uiso   1.00
O129   O     0.47133   0.06903   0.23607   0.00000  Uiso   1.00
O130   O     0.53771   0.25527   0.21806   0.00000  Uiso   1.00
Zn131  Zn    0.52577   0.14090   0.28278   0.00000  Uiso   1.00
Zn132  Zn    0.46792   0.12378   0.22258   0.00000  Uiso   1.00
Zn133  Zn    0.54500   0.19664   0.21188   0.00000  Uiso   1.00
Zn134  Zn    0.46131   0.20535   0.28277   0.00000  Uiso   1.00
C135   C     0.71946   0.16047   0.25836   0.00000  Uiso   1.00
C136   C     0.86393   0.13043   0.46092   0.00000  Uiso   1.00
C137   C     0.88474   0.11101   0.48101   0.00000  Uiso   1.00
C138   C     0.94761   0.17337   0.24140   0.00000  Uiso   1.00
C139   C     0.87725   0.11990   0.02131   0.00000  Uiso   1.00
C140   C     0.84733   0.14841   0.04247   0.00000  Uiso   1.00
C141   C     0.89944   0.10024   0.04072   0.00000  Uiso   1.00
C142   C     0.89243   0.10858   0.08104   0.00000  Uiso   1.00
C143   C     0.84127   0.15656   0.08327   0.00000  Uiso   1.00
C144   C     0.99336   0.17388   0.23768   0.00000  Uiso   1.00
C145   C     0.67347   0.15757   0.26404   0.00000  Uiso   1.00
C146   C     0.77061   0.22145   0.42027   0.00000  Uiso   1.00
C147   C     0.84738   0.32215   0.23825   0.00000  Uiso   1.00
C148   C     0.81823   0.01217   0.26230   0.00000  Uiso   1.00
C149   C     0.82254   0.05619   0.25900   0.00000  Uiso   1.00
C150   C     0.84346   0.27764   0.24141   0.00000  Uiso   1.00
C151   C     0.85501   0.14509   0.14425   0.00000  Uiso   1.00
C152   C     0.81215   0.18781   0.35608   0.00000  Uiso   1.00
C153   C     0.80224   0.19578   0.39898   0.00000  Uiso   1.00
C154   C     0.86340   0.13672   0.10210   0.00000  Uiso   1.00
C155   C     0.76121   0.22847   0.46109   0.00000  Uiso   1.00
C156   C     0.99333   0.11609   0.31532   0.00000  Uiso   1.00
C157   C     0.82417   0.17663   0.41870   0.00000  Uiso   1.00
C158   C     0.74619   0.29562   0.47934   0.00000  Uiso   1.00
C159   C     0.81394   0.18099   0.45989   0.00000  Uiso   1.00
C160   C     0.78224   0.20775   0.48106   0.00000  Uiso   1.00
C161   C     0.83457   0.15983   0.48049   0.00000  Uiso   1.00
C162   C     0.82500   0.16782   0.02209   0.00000  Uiso   1.00
C163   C     0.79310   0.19451   0.04196   0.00000  Uiso   1.00
C164   C     0.77210   0.21374   0.02185   0.00000  Uiso   1.00
H165   H     0.74786   0.23378   0.03867   0.00000  Uiso   1.00
H166   H     0.84946   0.15874   0.40091   0.00000  Uiso   1.00
H167   H     0.78280   0.20090   0.07335   0.00000  Uiso   1.00
H168   H     0.87119   0.12078   0.42996   0.00000  Uiso   1.00
H169   H     0.68588   0.13146   0.32857   0.00000  Uiso   1.00
H170   H     0.67141   0.08940   0.29336   0.00000  Uiso   1.00
H171   H     0.96661   0.10317   0.33918   0.00000  Uiso   1.00
H172   H     0.75456   0.30395   0.44876   0.00000  Uiso   1.00
H173   H     0.77474   0.30299   0.49109   0.00000  Uiso   1.00
H174   H     0.72125   0.31551   0.49757   0.00000  Uiso   1.00
H175   H     0.92216   0.07836   0.02467   0.00000  Uiso   1.00
H176   H     0.68321   0.18694   0.21253   0.00000  Uiso   1.00
H177   H     0.87426   0.00270   0.21615   0.00000  Uiso   1.00
H178   H     0.79100   0.33244   0.28452   0.00000  Uiso   1.00
H179   H     0.81998   0.17838   0.10147   0.00000  Uiso   1.00
H180   H     0.90951   0.09310   0.09583   0.00000  Uiso   1.00
H181   H     0.90704   0.08880   0.46474   0.00000  Uiso   1.00
H182   H     0.75304   0.23615   0.40535   0.00000  Uiso   1.00
O183   O     0.83333   0.16667   0.25000   0.00000  Uiso   1.00
O184   O     0.82360   0.12393   0.16625   0.00000  Uiso   1.00
O185   O     0.79354   0.20646   0.33749   0.00000  Uiso   1.00
O186   O     0.87755   0.17493   0.15877   0.00000  Uiso   1.00
O187   O     0.83865   0.16135   0.33749   0.00000  Uiso   1.00
O188   O     0.97763   0.14534   0.29878   0.00000  Uiso   1.00
O189   O     0.72921   0.25331   0.48168   0.00000  Uiso   1.00
O190   O     0.84515   0.08101   0.27821   0.00000  Uiso   1.00
O191   O     0.81247   0.26136   0.26767   0.00000  Uiso   1.00
O192   O     0.74119   0.13251   0.23607   0.00000  Uiso   1.00
O193   O     0.93452   0.19179   0.21806   0.00000  Uiso   1.00
O194   O     0.73656   0.18960   0.27820   0.00000  Uiso   1.00
O195   O     0.92106   0.15277   0.26768   0.00000  Uiso   1.00
O196   O     0.80467   0.06903   0.23607   0.00000  Uiso   1.00
O197   O     0.87104   0.25527   0.21806   0.00000  Uiso   1.00
Zn198  Zn    0.85910   0.14090   0.28278   0.00000  Uiso   1.00
Zn199  Zn    0.80125   0.12378   0.22258   0.00000  Uiso   1.00
Zn200  Zn    0.87833   0.19664   0.21188   0.00000  Uiso   1.00
Zn201  Zn    0.79465   0.20535   0.28277   0.00000  Uiso   1.00
C202   C     0.05280   0.49380   0.25836   0.00000  Uiso   1.00
C203   C     0.19726   0.46376   0.46092   0.00000  Uiso   1.00
C204   C     0.21807   0.44434   0.48101   0.00000  Uiso   1.00
C205   C     0.28094   0.50671   0.24140   0.00000  Uiso   1.00
C206   C     0.21059   0.45323   0.02131   0.00000  Uiso   1.00
C207   C     0.18066   0.48174   0.04247   0.00000  Uiso   1.00
C208   C     0.23277   0.43358   0.04072   0.00000  Uiso   1.00
C209   C     0.22577   0.44192   0.08104   0.00000  Uiso   1.00
C210   C     0.17461   0.48989   0.08327   0.00000  Uiso   1.00
C211   C     0.32670   0.50721   0.23768   0.00000  Uiso   1.00
C212   C     0.00681   0.49091   0.26404   0.00000  Uiso   1.00
C213   C     0.10394   0.55478   0.42027   0.00000  Uiso   1.00
C214   C     0.18071   0.65548   0.23825   0.00000  Uiso   1.00
C215   C     0.15157   0.34551   0.26230   0.00000  Uiso   1.00
C216   C     0.15587   0.38953   0.25900   0.00000  Uiso   1.00
C217   C     0.17680   0.61097   0.24141   0.00000  Uiso   1.00
C218   C     0.18835   0.47842   0.14425   0.00000  Uiso   1.00
C219   C     0.14548   0.52114   0.35608   0.00000  Uiso   1.00
C220   C     0.13558   0.52911   0.39898   0.00000  Uiso   1.00
C221   C     0.19673   0.47005   0.10210   0.00000  Uiso   1.00
C222   C     0.09455   0.56180   0.46109   0.00000  Uiso   1.00
C223   C     0.32666   0.44943   0.31532   0.00000  Uiso   1.00
C224   C     0.15750   0.50996   0.41870   0.00000  Uiso   1.00
C225   C     0.07952   0.62896   0.47934   0.00000  Uiso   1.00
C226   C     0.14727   0.51432   0.45989   0.00000  Uiso   1.00
C227   C     0.11557   0.54108   0.48106   0.00000  Uiso   1.00
C228   C     0.16791   0.49317   0.48049   0.00000  Uiso   1.00
C229   C     0.15834   0.50115   0.02209   0.00000  Uiso   1.00
C230   C     0.12643   0.52784   0.04196   0.00000  Uiso   1.00
C231   C     0.10544   0.54707   0.02185   0.00000  Uiso   1.00
H232   H     0.08119   0.56712   0.03867   0.00000  Uiso   1.00
H233   H     0.18280   0.49208   0.40091   0.00000  Uiso   1.00
H234   H     0.11613   0.53423   0.07335   0.00000  Uiso   1.00
H235   H     0.20453   0.45411   0.42996   0.00000  Uiso   1.00
H236   H     0.01921   0.46479   0.32857   0.00000  Uiso   1.00
H237   H     0.00474   0.42274   0.29336   0.00000  Uiso   1.00
H238   H     0.29994   0.43650   0.33918   0.00000  Uiso   1.00
H239   H     0.08789   0.63728   0.44876   0.00000  Uiso   1.00
H240   H     0.10808   0.63633   0.49109   0.00000  Uiso   1.00
H241   H     0.05458   0.64885   0.49757   0.00000  Uiso   1.00
H242   H     0.25549   0.41169   0.02467   0.00000  Uiso   1.00
H243   H     0.01654   0.52028   0.21253   0.00000  Uiso   1.00
H244   H     0.20759   0.33603   0.21615   0.00000  Uiso   1.00
H245   H     0.12433   0.66577   0.28452   0.00000  Uiso   1.00
H246   H     0.15331   0.51172   0.10147   0.00000  Uiso   1.00
H247   H     0.24285   0.42644   0.09583   0.00000  Uiso   1.00
H248   H     0.24038   0.42214   0.46474   0.00000  Uiso   1.00
H249   H     0.08638   0.56949   0.40535   0.00000  Uiso   1.00
O250   O     0.16667   0.50000   0.25000   0.00000  Uiso   1.00
O251   O     0.15693   0.45726   0.16625   0.00000  Uiso   1.00
O252   O     0.12687   0.53979   0.33749   0.00000  Uiso   1.00
O253   O     0.21088   0.50826   0.15877   0.00000  Uiso   1.00
O254   O     0.17198   0.49468   0.33749   0.00000  Uiso   1.00
O255   O     0.31096   0.47868   0.29878   0.00000  Uiso   1.00
O256   O     0.06255   0.58665   0.48168   0.00000  Uiso   1.00
O257   O     0.17849   0.41434   0.27821   0.00000  Uiso   1.00
O258   O     0.14581   0.59469   0.26767   0.00000  Uiso   1.00
O259   O     0.07452   0.46584   0.23607   0.00000  Uiso   1.00
O260   O     0.26785   0.52512   0.21806   0.00000  Uiso   1.00
O261   O     0.06990   0.52293   0.27820   0.00000  Uiso   1.00
O262   O     0.25440   0.48610   0.26768   0.00000  Uiso   1.00
O263   O     0.13800   0.40236   0.23607   0.00000  Uiso   1.00
O264   O     0.20437   0.58860   0.21806   0.00000  Uiso   1.00
Zn265  Zn    0.19244   0.47423   0.28278   0.00000  Uiso   1.00
Zn266  Zn    0.13459   0.45711   0.22258   0.00000  Uiso   1.00
Zn267  Zn    0.21166   0.52997   0.21188   0.00000  Uiso   1.00
Zn268  Zn    0.12798   0.53868   0.28277   0.00000  Uiso   1.00
C269   C     0.38613   0.49380   0.25836   0.00000  Uiso   1.00
C270   C     0.53059   0.46376   0.46092   0.00000  Uiso   1.00
C271   C     0.55141   0.44434   0.48101   0.00000  Uiso   1.00
C272   C     0.61427   0.50671   0.24140   0.00000  Uiso   1.00
C273   C     0.54392   0.45323   0.02131   0.00000  Uiso   1.00
C274   C     0.51400   0.48174   0.04247   0.00000  Uiso   1.00
C275   C     0.56610   0.43358   0.04072   0.00000  Uiso   1.00
C276   C     0.55910   0.44192   0.08104   0.00000  Uiso   1.00
C277   C     0.50794   0.48989   0.08327   0.00000  Uiso   1.00
C278   C     0.66003   0.50721   0.23768   0.00000  Uiso   1.00
C279   C     0.34014   0.49091   0.26404   0.00000  Uiso   1.00
C280   C     0.43728   0.55478   0.42027   0.00000  Uiso   1.00
C281   C     0.51405   0.65548   0.23825   0.00000  Uiso   1.00
C282   C     0.48490   0.34551   0.26230   0.00000  Uiso   1.00
C283   C     0.48920   0.38953   0.25900   0.00000  Uiso   1.00
C284   C     0.51013   0.61097   0.24141   0.00000  Uiso   1.00
C285   C     0.52168   0.47842   0.14425   0.00000  Uiso   1.00
C286   C     0.47881   0.52114   0.35608   0.00000  Uiso   1.00
C287   C     0.46891   0.52911   0.39898   0.00000  Uiso   1.00
C288   C     0.53007   0.47005   0.10210   0.00000  Uiso   1.00
C289   C     0.42788   0.56180   0.46109   0.00000  Uiso   1.00
C290   C     0.65999   0.44943   0.31532   0.00000  Uiso   1.00
C291   C     0.49083   0.50996   0.41870   0.00000  Uiso   1.00
C292   C     0.41285   0.62896   0.47934   0.00000  Uiso   1.00
C293   C     0.48060   0.51432   0.45989   0.00000  Uiso   1.00
C294   C     0.44891   0.54108   0.48106   0.00000  Uiso   1.00
C295   C     0.50124   0.49317   0.48049   0.00000  Uiso   1.00
C296   C     0.49167   0.50115   0.02209   0.00000  Uiso   1.00
C297   C     0.45976   0.52784   0.04196   0.00000  Uiso   1.00
C298   C     0.43877   0.54707   0.02185   0.00000  Uiso   1.00
H299   H     0.41453   0.56712   0.03867   0.00000  Uiso   1.00
H300   H     0.51613   0.49208   0.40091   0.00000  Uiso   1.00
H301   H     0.44947   0.53423   0.07335   0.00000  Uiso   1.00
H302   H     0.53786   0.45411   0.42996   0.00000  Uiso   1.00
H303   H     0.35255   0.46479   0.32857   0.00000  Uiso   1.00
H304   H     0.33808   0.42274   0.29336   0.00000  Uiso   1.00
H305   H     0.63327   0.43650   0.33918   0.00000  Uiso   1.00
H306   H     0.42123   0.63728   0.44876   0.00000  Uiso   1.00
H307   H     0.44141   0.63633   0.49109   0.00000  Uiso   1.00
H308   H     0.38792   0.64885   0.49757   0.00000  Uiso   1.00
H309   H     0.58883   0.41169   0.02467   0.00000  Uiso   1.00
H310   H     0.34987   0.52028   0.21253   0.00000  Uiso   1.00
H311   H     0.54092   0.33603   0.21615   0.00000  Uiso   1.00
H312   H     0.45766   0.66577   0.28452   0.00000  Uiso   1.00
H313   H     0.48664   0.51172   0.10147   0.00000  Uiso   1.00
H314   H     0.57618   0.42644   0.09583   0.00000  Uiso   1.00
H315   H     0.57371   0.42214   0.46474   0.00000  Uiso   1.00
H316   H     0.41971   0.56949   0.40535   0.00000  Uiso   1.00
O317   O     0.50000   0.50000   0.25000   0.00000  Uiso   1.00
O318   O     0.49027   0.45726   0.16625   0.00000  Uiso   1.00
O319   O     0.46020   0.53979   0.33749   0.00000  Uiso   1.00
O320   O     0.54421   0.50826   0.15877   0.00000  Uiso   1.00
O321   O     0.50532   0.49468   0.33749   0.00000  Uiso   1.00
O322   O     0.64430   0.47868   0.29878   0.00000  Uiso   1.00
O323   O     0.39588   0.58665   0.48168   0.00000  Uiso   1.00
O324   O     0.51182   0.41434   0.27821   0.00000  Uiso   1.00
O325   O     0.47914   0.59469   0.26767   0.00000  Uiso   1.00
O326   O     0.40785   0.46584   0.23607   0.00000  Uiso   1.00
O327   O     0.60119   0.52512   0.21806   0.00000  Uiso   1.00
O328   O     0.40323   0.52293   0.27820   0.00000  Uiso   1.00
O329   O     0.58773   0.48610   0.26768   0.00000  Uiso   1.00
O330   O     0.47133   0.40236   0.23607   0.00000  Uiso   1.00
O331   O     0.53771   0.58860   0.21806   0.00000  Uiso   1.00
Zn332  Zn    0.52577   0.47423   0.28278   0.00000  Uiso   1.00
Zn333  Zn    0.46792   0.45711   0.22258   0.00000  Uiso   1.00
Zn334  Zn    0.54500   0.52997   0.21188   0.00000  Uiso   1.00
Zn335  Zn    0.46131   0.53868   0.28277   0.00000  Uiso   1.00
C336   C     0.71946   0.49380   0.25836   0.00000  Uiso   1.00
C337   C     0.86393   0.46376   0.46092   0.00000  Uiso   1.00
C338   C     0.88474   0.44434   0.48101   0.00000  Uiso   1.00
C339   C     0.94761   0.50671   0.24140   0.00000  Uiso   1.00
C340   C     0.87725   0.45323   0.02131   0.00000  Uiso   1.00
C341   C     0.84733   0.48174   0.04247   0.00000  Uiso   1.00
C342   C     0.89944   0.43358   0.04072   0.00000  Uiso   1.00
C343   C     0.89243   0.44192   0.08104   0.00000  Uiso   1.00
C344   C     0.84127   0.48989   0.08327   0.00000  Uiso   1.00
C345   C     0.99336   0.50721   0.23768   0.00000  Uiso   1.00
C346   C     0.67347   0.49091   0.26404   0.00000  Uiso   1.00
C347   C     0.77061   0.55478   0.42027   0.00000  Uiso   1.00
C348   C     0.84738   0.65548   0.23825   0.00000  Uiso   1.00
C349   C     0.81823   0.34551   0.26230   0.00000  Uiso   1.00
C350   C     0.82254   0.38953   0.25900   0.00000  Uiso   1.00
C351   C     0.84346   0.61097   0.24141   0.00000  Uiso   1.00
C352   C     0.85501   0.47842   0.14425   0.00000  Uiso   1.00
C353   C     0.81215   0.52114   0.35608   0.00000  Uiso   1.00
C354   C     0.80224   0.52911   0.39898   0.00000  Uiso   1.00
C355   C     0.86340   0.47005   0.10210   0.00000  Uiso   1.00
C356   C     0.76121   0.56180   0.46109   0.00000  Uiso   1.00
C357   C     0.99333   0.44943   0.31532   0.00000  Uiso   1.00
C358   C     0.82417   0.50996   0.41870   0.00000  Uiso   1.00
C359   C     0.74619   0.62896   0.47934   0.00000  Uiso   1.00
C360   C     0.81394   0.51432   0.45989   0.00000  Uiso   1.00
C361   C     0.78224   0.54108   0.48106   0.00000  Uiso   1.00
C362   C     0.83457   0.49317   0.48049   0.00000  Uiso   1.00
C363   C     0.82500   0.50115   0.02209   0.00000  Uiso   1.00
C364   C     0.79310   0.52784   0.04196   0.00000  Uiso   1.00
C365   C     0.77210   0.54707   0.02185   0.00000  Uiso   1.00
H366   H     0.74786   0.56712   0.03867   0.00000  Uiso   1.00
H367   H     0.84946   0.49208   0.40091   0.00000  Uiso   1.00
H368   H     0.78280   0.53423   0.07335   0.00000  Uiso   1.00
H369   H     0.87119   0.45411   0.42996   0.00000  Uiso   1.00
H370   H     0.68588   0.46479   0.32857   0.00000  Uiso   1.00
H371   H     0.67141   0.42274   0.29336   0.00000  Uiso   1.00
H372   H     0.96661   0.43650   0.33918   0.00000  Uiso   1.00
H373   H     0.75456   0.63728   0.44876   0.00000  Uiso   1.00
H374   H     0.77474   0.63633   0.49109   0.00000  Uiso   1.00
H375   H     0.72125   0.64885   0.49757   0.00000  Uiso   1.00
H376   H     0.92216   0.41169   0.02467   0.00000  Uiso   1.00
H377   H     0.68321   0.52028   0.21253   0.00000  Uiso   1.00
H378   H     0.87426   0.33603   0.21615   0.00000  Uiso   1.00
H379   H     0.79100   0.66577   0.28452   0.00000  Uiso   1.00
H380   H     0.81998   0.51172   0.10147   0.00000  Uiso   1.00
H381   H     0.90951   0.42644   0.09583   0.00000  Uiso   1.00
H382   H     0.90704   0.42214   0.46474   0.00000  Uiso   1.00
H383   H     0.75304   0.56949   0.40535   0.00000  Uiso   1.00
O384   O     0.83333   0.50000   0.25000   0.00000  Uiso   1.00
O385   O     0.82360   0.45726   0.16625   0.00000  Uiso   1.00
O386   O     0.79354   0.53979   0.33749   0.00000  Uiso   1.00
O387   O     0.87755   0.50826   0.15877   0.00000  Uiso   1.00
O388   O     0.83865   0.49468   0.33749   0.00000  Uiso   1.00
O389   O     0.97763   0.47868   0.29878   0.00000  Uiso   1.00
O390   O     0.72921   0.58665   0.48168   0.00000  Uiso   1.00
O391   O     0.84515   0.41434   0.27821   0.00000  Uiso   1.00
O392   O     0.81247   0.59469   0.26767   0.00000  Uiso   1.00
O393   O     0.74119   0.46584   0.23607   0.00000  Uiso   1.00
O394   O     0.93452   0.52512   0.21806   0.00000  Uiso   1.00
O395   O     0.73656   0.52293   0.27820   0.00000  Uiso   1.00
O396   O     0.92106   0.48610   0.26768   0.00000  Uiso   1.00
O397   O     0.80467   0.40236   0.23607   0.00000  Uiso   1.00
O398   O     0.87104   0.58860   0.21806   0.00000  Uiso   1.00
Zn399  Zn    0.85910   0.47423   0.28278   0.00000  Uiso   1.00
Zn400  Zn    0.80125   0.45711   0.22258   0.00000  Uiso   1.00
Zn401  Zn    0.87833   0.52997   0.21188   0.00000  Uiso   1.00
Zn402  Zn    0.79465   0.53868   0.28277   0.00000  Uiso   1.00
C403   C     0.05280   0.82713   0.25836   0.00000  Uiso   1.00
C404   C     0.19726   0.79709   0.46092   0.00000  Uiso   1.00
C405   C     0.21807   0.77767   0.48101   0.00000  Uiso   1.00
C406   C     0.28094   0.84004   0.24140   0.00000  Uiso   1.00
C407   C     0.21059   0.78657   0.02131   0.00000  Uiso   1.00
C408   C     0.18066   0.81507   0.04247   0.00000  Uiso   1.00
C409   C     0.23277   0.76691   0.04072   0.00000  Uiso   1.00
C410   C     0.22577   0.77525   0.08104   0.00000  Uiso   1.00
C411   C     0.17461   0.82323   0.08327   0.00000  Uiso   1.00
C412   C     0.32670   0.84055   0.23768   0.00000  Uiso   1.00
C413   C     0.00681   0.82424   0.26404   0.00000  Uiso   1.00
C414   C     0.10394   0.88811   0.42027   0.00000  Uiso   1.00
C415   C     0.18071   0.98881   0.23825   0.00000  Uiso   1.00
C416   C     0.15157   0.67884   0.26230   0.00000  Uiso   1.00
C417   C     0.15587   0.72286   0.25900   0.00000  Uiso   1.00
C418   C     0.17680   0.94431   0.24141   0.00000  Uiso   1.00
C419   C     0.18835   0.81175   0.14425   0.00000  Uiso   1.00
C420   C     0.14548   0.85447   0.35608   0.00000  Uiso   1.00
C421   C     0.13558   0.86245   0.39898   0.00000  Uiso   1.00
C422   C     0.19673   0.80338   0.10210   0.00000  Uiso   1.00
C423   C     0.09455   0.89514   0.46109   0.00000  Uiso   1.00
C424   C     0.32666   0.78276   0.31532   0.00000  Uiso   1.00
C425   C     0.15750   0.84329   0.41870   0.00000  Uiso   1.00
C426   C     0.07952   0.96229   0.47934   0.00000  Uiso   1.00
C427   C     0.14727   0.84766   0.45989   0.00000  Uiso   1.00
C428   C     0.11557   0.87441   0.48106   0.00000  Uiso   1.00
C429   C     0.16791   0.82650   0.48049   0.00000  Uiso   1.00
C430   C     0.15834   0.83448   0.02209   0.00000  Uiso   1.00
C431   C     0.12643   0.86118   0.04196   0.00000  Uiso   1.00
C432   C     0.10544   0.88040   0.02185   0.00000  Uiso   1.00
H433   H     0.08119   0.90045   0.03867   0.00000  Uiso   1.00
H434   H     0.18280   0.82541   0.40091   0.00000  Uiso   1.00
H435   H     0.11613   0.86757   0.07335   0.00000  Uiso   1.00
H436   H     0.20453   0.78745   0.42996   0.00000  Uiso   1.00
H437   H     0.01921   0.79813   0.32857   0.00000  Uiso   1.00
H438   H     0.00474   0.75607   0.29336   0.00000  Uiso   1.00
H439   H     0.29994   0.76984   0.33918   0.00000  Uiso   1.00
H440   H     0.08789   0.97061   0.44876   0.00000  Uiso   1.00
H441   H     0.10808   0.96966   0.49109   0.00000  Uiso   1.00
H442   H     0.05458   0.98218   0.49757   0.00000  Uiso   1.00
H443   H     0.25549   0.74503   0.02467   0.00000  Uiso   1.00
H444   H     0.01654   0.85361   0.21253   0.00000  Uiso   1.00
H445   H     0.20759   0.66936   0.21615   0.00000  Uiso   1.00
H446   H     0.12433   0.99910   0.28452   0.00000  Uiso   1.00
H447   H     0.15331   0.84505   0.10147   0.00000  Uiso   1.00
H448   H     0.24285   0.75977   0.09583   0.00000  Uiso   1.00
H449   H     0.24038   0.75547   0.46474   0.00000  Uiso   1.00
H450   H     0.08638   0.90282   0.40535   0.00000  Uiso   1.00
O451   O     0.16667   0.83333   0.25000   0.00000  Uiso   1.00
O452   O     0.15693   0.79060   0.16625   0.00000  Uiso   1.00
O453   O     0.12687   0.87313   0.33749   0.00000  Uiso   1.00
O454   O     0.21088   0.84159   0.15877   0.00000  Uiso   1.00
O455   O     0.17198   0.82802   0.33749   0.00000  Uiso   1.00
O456   O     0.31096   0.81201   0.29878   0.00000  Uiso   1.00
O457   O     0.06255   0.91998   0.48168   0.00000  Uiso   1.00
O458   O     0.17849   0.74768   0.27821   0.00000  Uiso   1.00
O459   O     0.14581   0.92803   0.26767   0.00000  Uiso   1.00
O460   O     0.07452   0.79917   0.23607   0.00000  Uiso   1.00
O461   O     0.26785   0.85845   0.21806   0.00000  Uiso   1.00
O462   O     0.06990   0.85627   0.27820   0.00000  Uiso   1.00
O463   O     0.25440   0.81944   0.26768   0.00000  Uiso   1.00
O464   O     0.13800   0.73570   0.23607   0.00000  Uiso   1.00
O465   O     0.20437   0.92193   0.21806   0.00000  Uiso   1.00
Zn466  Zn    0.19244   0.80756   0.28278   0.00000  Uiso   1.00
Zn467  Zn    0.13459   0.79044   0.22258   0.00000  Uiso   1.00
Zn468  Zn    0.21166   0.86331   0.21188   0.00000  Uiso   1.00
Zn469  Zn    0.12798   0.87202   0.28277   0.00000  Uiso   1.00
C470   C     0.38613   0.82713   0.25836   0.00000  Uiso   1.00
C471   C     0.53059   0.79709   0.46092   0.00000  Uiso   1.00
C472   C     0.55141   0.77767   0.48101   0.00000  Uiso   1.00
C473   C     0.61427   0.84004   0.24140   0.00000  Uiso   1.00
C474   C     0.54392   0.78657   0.02131   0.00000  Uiso   1.00
C475   C     0.51400   0.81507   0.04247   0.00000  Uiso   1.00
C476   C     0.56610   0.76691   0.04072   0.00000  Uiso   1.00
C477   C     0.55910   0.77525   0.08104   0.00000  Uiso   1.00
C478   C     0.50794   0.82323   0.08327   0.00000  Uiso   1.00
C479   C     0.66003   0.84055   0.23768   0.00000  Uiso   1.00
C480   C     0.34014   0.82424   0.26404   0.00000  Uiso   1.00
C481   C     0.43728   0.88811   0.42027   0.00000  Uiso   1.00
C482   C     0.51405   0.98881   0.23825   0.00000  Uiso   1.00
C483   C     0.48490   0.67884   0.26230   0.00000  Uiso   1.00
C484   C     0.48920   0.72286   0.25900   0.00000  Uiso   1.00
C485   C     0.51013   0.94431   0.24141   0.00000  Uiso   1.00
C486   C     0.52168   0.81175   0.14425   0.00000  Uiso   1.00
C487   C     0.47881   0.85447   0.35608   0.00000  Uiso   1.00
C488   C     0.46891   0.86245   0.39898   0.00000  Uiso   1.00
C489   C     0.53007   0.80338   0.10210   0.00000  Uiso   1.00
C490   C     0.42788   0.89514   0.46109   0.00000  Uiso   1.00
C491   C     0.65999   0.78276   0.31532   0.00000  Uiso   1.00
C492   C     0.49083   0.84329   0.41870   0.00000  Uiso   1.00
C493   C     0.41285   0.96229   0.47934   0.00000  Uiso   1.00
C494   C     0.48060   0.84766   0.45989   0.00000  Uiso   1.00
C495   C     0.44891   0.87441   0.48106   0.00000  Uiso   1.00
C496   C     0.50124   0.82650   0.48049   0.00000  Uiso   1.00
C497   C     0.49167   0.83448   0.02209   0.00000  Uiso   1.00
C498   C     0.45976   0.86118   0.04196   0.00000  Uiso   1.00
C499   C     0.43877   0.88040   0.02185   0.00000  Uiso   1.00
H500   H     0.41453   0.90045   0.03867   0.00000  Uiso   1.00
H501   H     0.51613   0.82541   0.40091   0.00000  Uiso   1.00
H502   H     0.44947   0.86757   0.07335   0.00000  Uiso   1.00
H503   H     0.53786   0.78745   0.42996   0.00000  Uiso   1.00
H504   H     0.35255   0.79813   0.32857   0.00000  Uiso   1.00
H505   H     0.33808   0.75607   0.29336   0.00000  Uiso   1.00
H506   H     0.63327   0.76984   0.33918   0.00000  Uiso   1.00
H507   H     0.42123   0.97061   0.44876   0.00000  Uiso   1.00
H508   H     0.44141   0.96966   0.49109   0.00000  Uiso   1.00
H509   H     0.38792   0.98218   0.49757   0.00000  Uiso   1.00
H510   H     0.58883   0.74503   0.02467   0.00000  Uiso   1.00
H511   H     0.34987   0.85361   0.21253   0.00000  Uiso   1.00
H512   H     0.54092   0.66936   0.21615   0.00000  Uiso   1.00
H513   H     0.45766   0.99910   0.28452   0.00000  Uiso   1.00
H514   H     0.48664   0.84505   0.10147   0.00000  Uiso   1.00
H515   H     0.57618   0.75977   0.09583   0.00000  Uiso   1.00
H516   H     0.57371   0.75547   0.46474   0.00000  Uiso   1.00
H517   H     0.41971   0.90282   0.40535   0.00000  Uiso   1.00
O518   O     0.50000   0.83333   0.25000   0.00000  Uiso   1.00
O519   O     0.49027   0.79060   0.16625   0.00000  Uiso   1.00
O520   O     0.46020   0.87313   0.33749   0.00000  Uiso   1.00
O521   O     0.54421   0.84159   0.15877   0.00000  Uiso   1.00
O522   O     0.50532   0.82802   0.33749   0.00000  Uiso   1.00
O523   O     0.64430   0.81201   0.29878   0.00000  Uiso   1.00
O524   O     0.39588   0.91998   0.48168   0.00000  Uiso   1.00
O525   O     0.51182   0.74768   0.27821   0.00000  Uiso   1.00
O526   O     0.47914   0.92803   0.26767   0.00000  Uiso   1.00
O527   O     0.40785   0.79917   0.23607   0.00000  Uiso   1.00
O528   O     0.60119   0.85845   0.21806   0.00000  Uiso   1.00
O529   O     0.40323   0.85627   0.27820   0.00000  Uiso   1.00
O530   O     0.58773   0.81944   0.26768   0.00000  Uiso   1.00
O531   O     0.47133   0.73570   0.23607   0.00000  Uiso   1.00
O532   O     0.53771   0.92193   0.21806   0.00000  Uiso   1.00
Zn533  Zn    0.52577   0.80756   0.28278   0.00000  Uiso   1.00
Zn534  Zn    0.46792   0.79044   0.22258   0.00000  Uiso   1.00
Zn535  Zn    0.54500   0.86331   0.21188   0.00000  Uiso   1.00
Zn536  Zn    0.46131   0.87202   0.28277   0.00000  Uiso   1.00
C537   C     0.71946   0.82713   0.25836   0.00000  Uiso   1.00
C538   C     0.86393   0.79709   0.46092   0.00000  Uiso   1.00
C539   C     0.88474   0.77767   0.48101   0.00000  Uiso   1.00
C540   C     0.94761   0.84004   0.24140   0.00000  Uiso   1.00
C541   C     0.87725   0.78657   0.02131   0.00000  Uiso   1.00
C542   C     0.84733   0.81507   0.04247   0.00000  Uiso   1.00
C543   C     0.89944   0.76691   0.04072   0.00000  Uiso   1.00
C544   C     0.89243   0.77525   0.08104   0.00000  Uiso   1.00
C545   C     0.84127   0.82323   0.08327   0.00000  Uiso   1.00
C546   C     0.99336   0.84055   0.23768   0.00000  Uiso   1.00
C547   C     0.67347   0.82424   0.26404   0.00000  Uiso   1.00
C548   C     0.77061   0.88811   0.42027   0.00000  Uiso   1.00
C549   C     0.84738   0.98881   0.23825   0.00000  Uiso   1.00
C550   C     0.81823   0.67884   0.26230   0.00000  Uiso   1.00
C551   C     0.82254   0.72286   0.25900   0.00000  Uiso   1.00
C552   C     0.84346   0.94431   0.24141   0.00000  Uiso   1.00
C553   C     0.85501   0.81175   0.14425   0.00000  Uiso   1.00
C554   C     0.81215   0.85447   0.35608   0.00000  Uiso   1.00
C555   C     0.80224   0.86245   0.39898   0.00000  Uiso   1.00
C556   C     0.86340   0.80338   0.10210   0.00000  Uiso   1.00
C557   C     0.76121   0.89514   0.46109   0.00000  Uiso   1.00
C558   C     0.99333   0.78276   0.31532   0.00000  Uiso   1.00
C559   C     0.82417   0.84329   0.41870   0.00000  Uiso   1.00
C560   C     0.74619   0.96229   0.47934   0.00000  Uiso   1.00
C561   C     0.81394   0.84766   0.45989   0.00000  Uiso   1.00
C562   C     0.78224   0.87441   0.48106   0.00000  Uiso   1.00
C563   C     0.83457   0.82650   0.48049   0.00000  Uiso   1.00
C564   C     0.82500   0.83448   0.02209   0.00000  Uiso   1.00
C565   C     0.79310   0.86118   0.04196   0.00000  Uiso   1.00
C566   C     0.77210   0.88040   0.02185   0.00000  Uiso   1.00
H567   H     0.74786   0.90045   0.03867   0.00000  Uiso   1.00
H568   H     0.84946   0.82541   0.40091   0.00000  Uiso   1.00
H569   H     0.78280   0.86757   0.07335   0.00000  Uiso   1.00
H570   H     0.87119   0.78745   0.42996   0.00000  Uiso   1.00
H571   H     0.68588   0.79813   0.32857   0.00000  Uiso   1.00
H572   H     0.67141   0.75607   0.29336   0.00000  Uiso   1.00
H573   H     0.96661   0.76984   0.33918   0.00000  Uiso   1.00
H574   H     0.75456   0.97061   0.44876   0.00000  Uiso   1.00
H575   H     0.77474   0.96966   0.49109   0.00000  Uiso   1.00
H576   H     0.72125   0.98218   0.49757   0.00000  Uiso   1.00
H577   H     0.92216   0.74503   0.02467   0.00000  Uiso   1.00
H578   H     0.68321   0.85361   0.21253   0.00000  Uiso   1.00
H579   H     0.87426   0.66936   0.21615   0.00000  Uiso   1.00
H580   H     0.79100   0.99910   0.28452   0.00000  Uiso   1.00
H581   H     0.81998   0.84505   0.10147   0.00000  Uiso   1.00
H582   H     0.90951   0.75977   0.09583   0.00000  Uiso   1.00
H583   H     0.90704   0.75547   0.46474   0.00000  Uiso   1.00
H584   H     0.75304   0.90282   0.40535   0.00000  Uiso   1.00
O585   O     0.83333   0.83333   0.25000   0.00000  Uiso   1.00
O586   O     0.82360   0.79060   0.16625   0.00000  Uiso   1.00
O587   O     0.79354   0.87313   0.33749   0.00000  Uiso   1.00
O588   O     0.87755   0.84159   0.15877   0.00000  Uiso   1.00
O589   O     0.83865   0.82802   0.33749   0.00000  Uiso   1.00
O590   O     0.97763   0.81201   0.29878   0.00000  Uiso   1.00
O591   O     0.72921   0.91998   0.48168   0.00000  Uiso   1.00
O592   O     0.84515   0.74768   0.27821   0.00000  Uiso   1.00
O593   O     0.81247   0.92803   0.26767   0.00000  Uiso   1.00
O594   O     0.74119   0.79917   0.23607   0.00000  Uiso   1.00
O595   O     0.93452   0.85845   0.21806   0.00000  Uiso   1.00
O596   O     0.73656   0.85627   0.27820   0.00000  Uiso   1.00
O597   O     0.92106   0.81944   0.26768   0.00000  Uiso   1.00
O598   O     0.80467   0.73570   0.23607   0.00000  Uiso   1.00
O599   O     0.87104   0.92193   0.21806   0.00000  Uiso   1.00
Zn600  Zn    0.85910   0.80756   0.28278   0.00000  Uiso   1.00
Zn601  Zn    0.80125   0.79044   0.22258   0.00000  Uiso   1.00
Zn602  Zn    0.87833   0.86331   0.21188   0.00000  Uiso   1.00
Zn603  Zn    0.79465   0.87202   0.28277   0.00000  Uiso   1.00
C604   C     0.05280   0.16047   0.75836   0.00000  Uiso   1.00
C605   C     0.19726   0.13043   0.96092   0.00000  Uiso   1.00
C606   C     0.21807   0.11101   0.98101   0.00000  Uiso   1.00
C607   C     0.28094   0.17337   0.74140   0.00000  Uiso   1.00
C608   C     0.21059   0.11990   0.52131   0.00000  Uiso   1.00
C609   C     0.18066   0.14841   0.54247   0.00000  Uiso   1.00
C610   C     0.23277   0.10024   0.54072   0.00000  Uiso   1.00
C611   C     0.22577   0.10858   0.58104   0.00000  Uiso   1.00
C612   C     0.17461   0.15656   0.58327   0.00000  Uiso   1.00
C613   C     0.32670   0.17388   0.73768   0.00000  Uiso   1.00
C614   C     0.00681   0.15757   0.76404   0.00000  Uiso   1.00
C615   C     0.10394   0.22145   0.92027   0.00000  Uiso   1.00
C616   C     0.18071   0.32215   0.73825   0.00000  Uiso   1.00
C617   C     0.15157   0.01217   0.76230   0.00000  Uiso   1.00
C618   C     0.15587   0.05619   0.75900   0.00000  Uiso   1.00
C619   C     0.17680   0.27764   0.74141   0.00000  Uiso   1.00
C620   C     0.18835   0.14509   0.64425   0.00000  Uiso   1.00
C621   C     0.14548   0.18781   0.85608   0.00000  Uiso   1.00
C622   C     0.13558   0.19578   0.89898   0.00000  Uiso   1.00
C623   C     0.19673   0.13672   0.60210   0.00000  Uiso   1.00
C624   C     0.09455   0.22847   0.96109   0.00000  Uiso   1.00
C625   C     0.32666   0.11609   0.81532   0.00000  Uiso   1.00
C626   C     0.15750   0.17663   0.91870   0.00000  Uiso   1.00
C627   C     0.07952   0.29562   0.97934   0.00000  Uiso   1.00
C628   C     0.14727   0.18099   0.95989   0.00000  Uiso   1.00
C629   C     0.11557   0.20775   0.98106   0.00000  Uiso   1.00
C630   C     0.16791   0.15983   0.98049   0.00000  Uiso   1.00
C631   C     0.15834   0.16782   0.52209   0.00000  Uiso   1.00
C632   C     0.12643   0.19451   0.54196   0.00000  Uiso   1.00
C633   C     0.10544   0.21374   0.52185   0.00000  Uiso   1.00
H634   H     0.08119   0.23378   0.53867   0.00000  Uiso   1.00
H635   H     0.18280   0.15874   0.90091   0.00000  Uiso   1.00
H636   H     0.11613   0.20090   0.57335   0.00000  Uiso   1.00
H637   H     0.20453   0.12078   0.92996   0.00000  Uiso   1.00
H638   H     0.01921   0.13146   0.82857   0.00000  Uiso   1.00
H639   H     0.00474   0.08940   0.79336   0.00000  Uiso   1.00
H640   H     0.29994   0.10317   0.83918   0.00000  Uiso   1.00
H641   H     0.08789   0.30395   0.94876   0.00000  Uiso   1.00
H642   H     0.10808   0.30299   0.99109   0.00000  Uiso   1.00
H643   H     0.05458   0.31551   0.99757   0.00000  Uiso   1.00
H644   H     0.25549   0.07836   0.52467   0.00000  Uiso   1.00
H645   H     0.01654   0.18694   0.71253   0.00000  Uiso   1.00
H646   H     0.20759   0.00270   0.71615   0.00000  Uiso   1.00
H647   H     0.12433   0.33244   0.78452   0.00000  Uiso   1.00
H648   H     0.15331   0.17838   0.60147   0.00000  Uiso   1.00
H649   H     0.24285   0.09310   0.59583   0.00000  Uiso   1.00
H650   H     0.24038   0.08880   0.96474   0.00000  Uiso   1.00
H651   H     0.08638   0.23615   0.90535   0.00000  Uiso   1.00
O652   O     0.16667   0.16667   0.75000   0.00000  Uiso   1.00
O653   O     0.15693   0.12393   0.66625   0.00000  Uiso   1.00
O654   O     0.12687   0.20646   0.83749   0.00000  Uiso   1.00
O655   O     0.21088   0.17493   0.65877   0.00000  Uiso   1.00
O656   O     0.17198   0.16135   0.83749   0.00000  Uiso   1.00
O657   O     0.31096   0.14534   0.79878   0.00000  Uiso   1.00
O658   O     0.06255   0.25331   0.98168   0.00000  Uiso   1.00
O659   O     0.17849   0.08101   0.77821   0.00000  Uiso   1.00
O660   O     0.14581   0.26136   0.76767   0.00000  Uiso   1.00
O661   O     0.07452   0.13251   0.73607   0.00000  Uiso   1.00
O662   O     0.26785   0.19179   0.71806   0.00000  Uiso   1.00
O663   O     0.06990   0.18960   0.77820   0.00000  Uiso   1.00
O664   O     0.25440   0.15277   0.76768   0.00000  Uiso   1.00
O665   O     0.13800   0.06903   0.73607   0.00000  Uiso   1.00
O666   O     0.20437   0.25527   0.71806   0.00000  Uiso   1.00
Zn667  Zn    0.19244   0.14090   0.78278   0.00000  Uiso   1.00
Zn668  Zn    0.13459   0.12378   0.72258   0.00000  Uiso   1.00
Zn669  Zn    0.21166   0.19664   0.71188   0.00000  Uiso   1.00
Zn670  Zn    0.12798   0.20535   0.78277   0.00000  Uiso   1.00
C671   C     0.38613   0.16047   0.75836   0.00000  Uiso   1.00
C672   C     0.53059   0.13043   0.96092   0.00000  Uiso   1.00
C673   C     0.55141   0.11101   0.98101   0.00000  Uiso   1.00
C674   C     0.61427   0.17337   0.74140   0.00000  Uiso   1.00
C675   C     0.54392   0.11990   0.52131   0.00000  Uiso   1.00
C676   C     0.51400   0.14841   0.54247   0.00000  Uiso   1.00
C677   C     0.56610   0.10024   0.54072   0.00000  Uiso   1.00
C678   C     0.55910   0.10858   0.58104   0.00000  Uiso   1.00
C679   C     0.50794   0.15656   0.58327   0.00000  Uiso   1.00
C680   C     0.66003   0.17388   0.73768   0.00000  Uiso   1.00
C681   C     0.34014   0.15757   0.76404   0.00000  Uiso   1.00
C682   C     0.43728   0.22145   0.92027   0.00000  Uiso   1.00
C683   C     0.51405   0.32215   0.73825   0.00000  Uiso   1.00
C684   C     0.48490   0.01217   0.76230   0.00000  Uiso   1.00
C685   C     0.48920   0.05619   0.75900   0.00000  Uiso   1.00
C686   C     0.51013   0.27764   0.74141   0.00000  Uiso   1.00
C687   C     0.52168   0.14509   0.64425   0.00000  Uiso   1.00
C688   C     0.47881   0.18781   0.85608   0.00000  Uiso   1.00
C689   C     0.46891   0.19578   0.89898   0.00000  Uiso   1.00
C690   C     0.53007   0.13672   0.60210   0.00000  Uiso   1.00
C691   C     0.42788   0.22847   0.96109   0.00000  Uiso   1.00
C692   C     0.65999   0.11609   0.81532   0.00000  Uiso   1.00
C693   C     0.49083   0.17663   0.91870   0.00000  Uiso   1.00
C694   C     0.41285   0.29562   0.97934   0.00000  Uiso   1.00
C695   C     0.48060   0.18099   0.95989   0.00000  Uiso   1.00
C696   C     0.44891   0.20775   0.98106   0.00000  Uiso   1.00
C697   C     0.50124   0.15983   0.98049   0.00000  Uiso   1.00
C698   C     0.49167   0.16782   0.52209   0.00000  Uiso   1.00
C699   C     0.45976   0.19451   0.54196   0.00000  Uiso   1.00
C700   C     0.43877   0.21374   0.52185   0.00000  Uiso   1.00
H701   H     0.41453   0.23378   0.53867   0.00000  Uiso   1.00
H702   H     0.51613   0.15874   0.90091   0.00000  Uiso   1.00
H703   H     0.44947   0.20090   0.57335   0.00000  Uiso   1.00
H704   H     0.53786   0.12078   0.92996   0.00000  Uiso   1.00
H705   H     0.35255   0.13146   0.82857   0.00000  Uiso   1.00
H706   H     0.33808   0.08940   0.79336   0.00000  Uiso   1.00
H707   H     0.63327   0.10317   0.83918   0.00000  Uiso   1.00
H708   H     0.42123   0.30395   0.94876   0.00000  Uiso   1.00
H709   H     0.44141   0.30299   0.99109   0.00000  Uiso   1.00
H710   H     0.38792   0.31551   0.99757   0.00000  Uiso   1.00
H711   H     0.58883   0.07836   0.52467   0.00000  Uiso   1.00
H712   H     0.34987   0.18694   0.71253   0.00000  Uiso   1.00
H713   H     0.54092   0.00270   0.71615   0.00000  Uiso   1.00
H714   H     0.45766   0.33244   0.78452   0.00000  Uiso   1.00
H715   H     0.48664   0.17838   0.60147   0.00000  Uiso   1.00
H716   H     0.57618   0.09310   0.59583   0.00000  Uiso   1.00
H717   H     0.57371   0.08880   0.96474   0.00000  Uiso   1.00
H718   H     0.41971   0.23615   0.90535   0.00000  Uiso   1.00
O719   O     0.50000   0.16667   0.75000   0.00000  Uiso   1.00
O720   O     0.49027   0.12393   0.66625   0.00000  Uiso   1.00
O721   O     0.46020   0.20646   0.83749   0.00000  Uiso   1.00
O722   O     0.54421   0.17493   0.65877   0.00000  Uiso   1.00
O723   O     0.50532   0.16135   0.83749   0.00000  Uiso   1.00
O724   O     0.64430   0.14534   0.79878   0.00000  Uiso   1.00
O725   O     0.39588   0.25331   0.98168   0.00000  Uiso   1.00
O726   O     0.51182   0.08101   0.77821   0.00000  Uiso   1.00
O727   O     0.47914   0.26136   0.76767   0.00000  Uiso   1.00
O728   O     0.40785   0.13251   0.73607   0.00000  Uiso   1.00
O729   O     0.60119   0.19179   0.71806   0.00000  Uiso   1.00
O730   O     0.40323   0.18960   0.77820   0.00000  Uiso   1.00
O731   O     0.58773   0.15277   0.76768   0.00000  Uiso   1.00
O732   O     0.47133   0.06903   0.73607   0.00000  Uiso   1.00
O733   O     0.53771   0.25527   0.71806   0.00000  Uiso   1.00
Zn734  Zn    0.52577   0.14090   0.78278   0.00000  Uiso   1.00
Zn735  Zn    0.46792   0.12378   0.72258   0.00000  Uiso   1.00
Zn736  Zn    0.54500   0.19664   0.71188   0.00000  Uiso   1.00
Zn737  Zn    0.46131   0.20535   0.78277   0.00000  Uiso   1.00
C738   C     0.71946   0.16047   0.75836   0.00000  Uiso   1.00
C739   C     0.86393   0.13043   0.96092   0.00000  Uiso   1.00
C740   C     0.88474   0.11101   0.98101   0.00000  Uiso   1.00
C741   C     0.94761   0.17337   0.74140   0.00000  Uiso   1.00
C742   C     0.87725   0.11990   0.52131   0.00000  Uiso   1.00
C743   C     0.84733   0.14841   0.54247   0.00000  Uiso   1.00
C744   C     0.89944   0.10024   0.54072   0.00000  Uiso   1.00
C745   C     0.89243   0.10858   0.58104   0.00000  Uiso   1.00
C746   C     0.84127   0.15656   0.58327   0.00000  Uiso   1.00
C747   C     0.99336   0.17388   0.73768   0.00000  Uiso   1.00
C748   C     0.67347   0.15757   0.76404   0.00000  Uiso   1.00
C749   C     0.77061   0.22145   0.92027   0.00000  Uiso   1.00
C750   C     0.84738   0.32215   0.73825   0.00000  Uiso   1.00
C751   C     0.81823   0.01217   0.76230   0.00000  Uiso   1.00
C752   C     0.82254   0.05619   0.75900   0.00000  Uiso   1.00
C753   C     0.84346   0.27764   0.74141   0.00000  Uiso   1.00
C754   C     0.85501   0.14509   0.64425   0.00000  Uiso   1.00
C755   C     0.81215   0.18781   0.85608   0.00000  Uiso   1.00
C756   C     0.80224   0.19578   0.89898   0.00000  Uiso   1.00
C757   C     0.86340   0.13672   0.60210   0.00000  Uiso   1.00
C758   C     0.76121   0.22847   0.96109   0.00000  Uiso   1.00
C759   C     0.99333   0.11609   0.81532   0.00000  Uiso   1.00
C760   C     0.82417   0.17663   0.91870   0.00000  Uiso   1.00
C761   C     0.74619   0.29562   0.97934   0.00000  Uiso   1.00
C762   C     0.81394   0.18099   0.95989   0.00000  Uiso   1.00
C763   C     0.78224   0.20775   0.98106   0.00000  Uiso   1.00
C764   C     0.83457   0.15983   0.98049   0.00000  Uiso   1.00
C765   C     0.82500   0.16782   0.52209   0.00000  Uiso   1.00
C766   C     0.79310   0.19451   0.54196   0.00000  Uiso   1.00
C767   C     0.77210   0.21374   0.52185   0.00000  Uiso   1.00
H768   H     0.74786   0.23378   0.53867   0.00000  Uiso   1.00
H769   H     0.84946   0.15874   0.90091   0.00000  Uiso   1.00
H770   H     0.78280   0.20090   0.57335   0.00000  Uiso   1.00
H771   H     0.87119   0.12078   0.92996   0.00000  Uiso   1.00
H772   H     0.68588   0.13146   0.82857   0.00000  Uiso   1.00
H773   H     0.67141   0.08940   0.79336   0.00000  Uiso   1.00
H774   H     0.96661   0.10317   0.83918   0.00000  Uiso   1.00
H775   H     0.75456   0.30395   0.94876   0.00000  Uiso   1.00
H776   H     0.77474   0.30299   0.99109   0.00000  Uiso   1.00
H777   H     0.72125   0.31551   0.99757   0.00000  Uiso   1.00
H778   H     0.92216   0.07836   0.52467   0.00000  Uiso   1.00
H779   H     0.68321   0.18694   0.71253   0.00000  Uiso   1.00
H780   H     0.87426   0.00270   0.71615   0.00000  Uiso   1.00
H781   H     0.79100   0.33244   0.78452   0.00000  Uiso   1.00
H782   H     0.81998   0.17838   0.60147   0.00000  Uiso   1.00
H783   H     0.90951   0.09310   0.59583   0.00000  Uiso   1.00
H784   H     0.90704   0.08880   0.96474   0.00000  Uiso   1.00
H785   H     0.75304   0.23615   0.90535   0.00000  Uiso   1.00
O786   O     0.83333   0.16667   0.75000   0.00000  Uiso   1.00
O787   O     0.82360   0.12393   0.66625   0.00000  Uiso   1.00
O788   O     0.79354   0.20646   0.83749   0.00000  Uiso   1.00
O789   O     0.87755   0.17493   0.65877   0.00000  Uiso   1.00
O790   O     0.83865   0.16135   0.83749   0.00000  Uiso   1.00
O791   O     0.97763   0.14534   0.79878   0.00000  Uiso   1.00
O792   O     0.72921   0.25331   0.98168   0.00000  Uiso   1.00
O793   O     0.84515   0.08101   0.77821   0.00000  Uiso   1.00
O794   O     0.81247   0.26136   0.76767   0.00000  Uiso   1.00
O795   O     0.74119   0.13251   0.73607   0.00000  Uiso   1.00
O796   O     0.93452   0.19179   0.71806   0.00000  Uiso   1.00
O797   O     0.73656   0.18960   0.77820   0.00000  Uiso   1.00
O798   O     0.92106   0.15277   0.76768   0.00000  Uiso   1.00
O799   O     0.80467   0.06903   0.73607   0.00000  Uiso   1.00
O800   O     0.87104   0.25527   0.71806   0.00000  Uiso   1.00
Zn801  Zn    0.85910   0.14090   0.78278   0.00000  Uiso   1.00
Zn802  Zn    0.80125   0.12378   0.72258   0.00000  Uiso   1.00
Zn803  Zn    0.87833   0.19664   0.71188   0.00000  Uiso   1.00
Zn804  Zn    0.79465   0.20535   0.78277   0.00000  Uiso   1.00
C805   C     0.05280   0.49380   0.75836   0.00000  Uiso   1.00
C806   C     0.19726   0.46376   0.96092   0.00000  Uiso   1.00
C807   C     0.21807   0.44434   0.98101   0.00000  Uiso   1.00
C808   C     0.28094   0.50671   0.74140   0.00000  Uiso   1.00
C809   C     0.21059   0.45323   0.52131   0.00000  Uiso   1.00
C810   C     0.18066   0.48174   0.54247   0.00000  Uiso   1.00
C811   C     0.23277   0.43358   0.54072   0.00000  Uiso   1.00
C812   C     0.22577   0.44192   0.58104   0.00000  Uiso   1.00
C813   C     0.17461   0.48989   0.58327   0.00000  Uiso   1.00
C814   C     0.32670   0.50721   0.73768   0.00000  Uiso   1.00
C815   C     0.00681   0.49091   0.76404   0.00000  Uiso   1.00
C816   C     0.10394   0.55478   0.92027   0.00000  Uiso   1.00
C817   C     0.18071   0.65548   0.73825   0.00000  Uiso   1.00
C818   C     0.15157   0.34551   0.76230   0.00000  Uiso   1.00
C819   C     0.15587   0.38953   0.75900   0.00000  Uiso   1.00
C820   C     0.17680   0.61097   0.74141   0.00000  Uiso   1.00
C821   C     0.18835   0.47842   0.64425   0.00000  Uiso   1.00
C822   C     0.14548   0.52114   0.85608   0.00000  Uiso   1.00
C823   C     0.13558   0.52911   0.89898   0.00000  Uiso   1.00
C824   C     0.19673   0.47005   0.60210   0.00000  Uiso   1.00
C825   C     0.09455   0.56180   0.96109   0.00000  Uiso   1.00
C826   C     0.32666   0.44943   0.81532   0.00000  Uiso   1.00
C827   C     0.15750   0.50996   0.91870   0.00000  Uiso   1.00
C828   C     0.07952   0.62896   0.97934   0.00000  Uiso   1.00
C829   C     0.14727   0.51432   0.95989   0.00000  Uiso   1.00
C830   C     0.11557   0.54108   0.98106   0.00000  Uiso   1.00
C831   C     0.16791   0.49317   0.98049   0.00000  Uiso   1.00
C832   C     0.15834   0.50115   0.52209   0.00000  Uiso   1.00
C833   C     0.12643   0.52784   0.54196   0.00000  Uiso   1.00
C834   C     0.10544   0.54707   0.52185   0.00000  Uiso   1.00
H835   H     0.08119   0.56712   0.53867   0.00000  Uiso   1.00
H836   H     0.18280   0.49208   0.90091   0.00000  Uiso   1.00
H837   H     0.11613   0.53423   0.57335   0.00000  Uiso   1.00
H838   H     0.20453   0.45411   0.92996   0.00000  Uiso   1.00
H839   H     0.01921   0.46479   0.82857   0.00000  Uiso   1.00
H840   H     0.00474   0.42274   0.79336   0.00000  Uiso   1.00
H841   H     0.29994   0.43650   0.83918   0.00000  Uiso   1.00
H842   H     0.08789   0.63728   0.94876   0.00000  Uiso   1.00
H843   H     0.10808   0.63633   0.99109   0.00000  Uiso   1.00
H844   H     0.05458   0.64885   0.99757   0.00000  Uiso   1.00
H845   H     0.25549   0.41169   0.52467   0.00000  Uiso   1.00
H846   H     0.01654   0.52028   0.71253   0.00000  Uiso   1.00
H847   H     0.20759   0.33603   0.71615   0.00000  Uiso   1.00
H848   H     0.12433   0.66577   0.78452   0.00000  Uiso   1.00
H849   H     0.15331   0.51172   0.60147   0.00000  Uiso   1.00
H850   H     0.24285   0.42644   0.59583   0.00000  Uiso   1.00
H851   H     0.24038   0.42214   0.96474   0.00000  Uiso   1.00
H852   H     0.08638   0.56949   0.90535   0.00000  Uiso   1.00
O853   O     0.16667   0.50000   0.75000   0.00000  Uiso   1.00
O854   O     0.15693   0.45726   0.66625   0.00000  Uiso   1.00
O855   O     0.12687   0.53979   0.83749   0.00000  Uiso   1.00
O856   O     0.21088   0.50826   0.65877   0.00000  Uiso   1.00
O857   O     0.17198   0.49468   0.83749   0.00000  Uiso   1.00
O858   O     0.31096   0.47868   0.79878   0.00000  Uiso   1.00
O859   O     0.06255   0.58665   0.98168   0.00000  Uiso   1.00
O860   O     0.17849   0.41434   0.77821   0.00000  Uiso   1.00
O861   O     0.14581   0.59469   0.76767   0.00000  Uiso   1.00
O862   O     0.07452   0.46584   0.73607   0.00000  Uiso   1.00
O863   O     0.26785   0.52512   0.71806   0.00000  Uiso   1.00
O864   O     0.06990   0.52293   0.77820   0.00000  Uiso   1.00
O865   O     0.25440   0.48610   0.76768   0.00000  Uiso   1.00
O866   O     0.13800   0.40236   0.73607   0.00000  Uiso   1.00
O867   O     0.20437   0.58860   0.71806   0.00000  Uiso   1.00
Zn868  Zn    0.19244   0.47423   0.78278   0.00000  Uiso   1.00
Zn869  Zn    0.13459   0.45711   0.72258   0.00000  Uiso   1.00
Zn870  Zn    0.21166   0.52997   0.71188   0.00000  Uiso   1.00
Zn871  Zn    0.12798   0.53868   0.78277   0.00000  Uiso   1.00
C872   C     0.38613   0.49380   0.75836   0.00000  Uiso   1.00
C873   C     0.53059   0.46376   0.96092   0.00000  Uiso   1.00
C874   C     0.55141   0.44434   0.98101   0.00000  Uiso   1.00
C875   C     0.61427   0.50671   0.74140   0.00000  Uiso   1.00
C876   C     0.54392   0.45323   0.52131   0.00000  Uiso   1.00
C877   C     0.51400   0.48174   0.54247   0.00000  Uiso   1.00
C878   C     0.56610   0.43358   0.54072   0.00000  Uiso   1.00
C879   C     0.55910   0.44192   0.58104   0.00000  Uiso   1.00
C880   C     0.50794   0.48989   0.58327   0.00000  Uiso   1.00
C881   C     0.66003   0.50721   0.73768   0.00000  Uiso   1.00
C882   C     0.34014   0.49091   0.76404   0.00000  Uiso   1.00
C883   C     0.43728   0.55478   0.92027   0.00000  Uiso   1.00
C884   C     0.51405   0.65548   0.73825   0.00000  Uiso   1.00
C885   C     0.48490   0.34551   0.76230   0.00000  Uiso   1.00
C886   C     0.48920   0.38953   0.75900   0.00000  Uiso   1.00
C887   C     0.51013   0.61097   0.74141   0.00000  Uiso   1.00
C888   C     0.52168   0.47842   0.64425   0.00000  Uiso   1.00
C889   C     0.47881   0.52114   0.85608   0.00000  Uiso   1.00
C890   C     0.46891   0.52911   0.89898   0.00000  Uiso   1.00
C891   C     0.53007   0.47005   0.60210   0.00000  Uiso   1.00
C892   C     0.42788   0.56180   0.96109   0.00000  Uiso   1.00
C893   C     0.65999   0.44943   0.81532   0.00000  Uiso   1.00
C894   C     0.49083   0.50996   0.91870   0.00000  Uiso   1.00
C895   C     0.41285   0.62896   0.97934   0.00000  Uiso   1.00
C896   C     0.48060   0.51432   0.95989   0.00000  Uiso   1.00
C897   C     0.44891   0.54108   0.98106   0.00000  Uiso   1.00
C898   C     0.50124   0.49317   0.98049   0.00000  Uiso   1.00
C899   C     0.49167   0.50115   0.52209   0.00000  Uiso   1.00
C900   C     0.45976   0.52784   0.54196   0.00000  Uiso   1.00
C901   C     0.43877   0.54707   0.52185   0.00000  Uiso   1.00
H902   H     0.41453   0.56712   0.53867   0.00000  Uiso   1.00
H903   H     0.51613   0.49208   0.90091   0.00000  Uiso   1.00
H904   H     0.44947   0.53423   0.57335   0.00000  Uiso   1.00
H905   H     0.53786   0.45411   0.92996   0.00000  Uiso   1.00
H906   H     0.35255   0.46479   0.82857   0.00000  Uiso   1.00
H907   H     0.33808   0.42274   0.79336   0.00000  Uiso   1.00
H908   H     0.63327   0.43650   0.83918   0.00000  Uiso   1.00
H909   H     0.42123   0.63728   0.94876   0.00000  Uiso   1.00
H910   H     0.44141   0.63633   0.99109   0.00000  Uiso   1.00
H911   H     0.38792   0.64885   0.99757   0.00000  Uiso   1.00
H912   H     0.58883   0.41169   0.52467   0.00000  Uiso   1.00
H913   H     0.34987   0.52028   0.71253   0.00000  Uiso   1.00
H914   H     0.54092   0.33603   0.71615   0.00000  Uiso   1.00
H915   H     0.45766   0.66577   0.78452   0.00000  Uiso   1.00
H916   H     0.48664   0.51172   0.60147   0.00000  Uiso   1.00
H917   H     0.57618   0.42644   0.59583   0.00000  Uiso   1.00
H918   H     0.57371   0.42214   0.96474   0.00000  Uiso   1.00
H919   H     0.41971   0.56949   0.90535   0.00000  Uiso   1.00
O920   O     0.50000   0.50000   0.75000   0.00000  Uiso   1.00
O921   O     0.49027   0.45726   0.66625   0.00000  Uiso   1.00
O922   O     0.46020   0.53979   0.83749   0.00000  Uiso   1.00
O923   O     0.54421   0.50826   0.65877   0.00000  Uiso   1.00
O924   O     0.50532   0.49468   0.83749   0.00000  Uiso   1.00
O925   O     0.64430   0.47868   0.79878   0.00000  Uiso   1.00
O926   O     0.39588   0.58665   0.98168   0.00000  Uiso   1.00
O927   O     0.51182   0.41434   0.77821   0.00000  Uiso   1.00
O928   O     0.47914   0.59469   0.76767   0.00000  Uiso   1.00
O929   O     0.40785   0.46584   0.73607   0.00000  Uiso   1.00
O930   O     0.60119   0.52512   0.71806   0.00000  Uiso   1.00
O931   O     0.40323   0.52293   0.77820   0.00000  Uiso   1.00
O932   O     0.58773   0.48610   0.76768   0.00000  Uiso   1.00
O933   O     0.47133   0.40236   0.73607   0.00000  Uiso   1.00
O934   O     0.53771   0.58860   0.71806   0.00000  Uiso   1.00
Zn935  Zn    0.52577   0.47423   0.78278   0.00000  Uiso   1.00
Zn936  Zn    0.46792   0.45711   0.72258   0.00000  Uiso   1.00
Zn937  Zn    0.54500   0.52997   0.71188   0.00000  Uiso   1.00
Zn938  Zn    0.46131   0.53868   0.78277   0.00000  Uiso   1.00
C939   C     0.71946   0.49380   0.75836   0.00000  Uiso   1.00
C940   C     0.86393   0.46376   0.96092   0.00000  Uiso   1.00
C941   C     0.88474   0.44434   0.98101   0.00000  Uiso   1.00
C942   C     0.94761   0.50671   0.74140   0.00000  Uiso   1.00
C943   C     0.87725   0.45323   0.52131   0.00000  Uiso   1.00
C944   C     0.84733   0.48174   0.54247   0.00000  Uiso   1.00
C945   C     0.89944   0.43358   0.54072   0.00000  Uiso   1.00
C946   C     0.89243   0.44192   0.58104   0.00000  Uiso   1.00
C947   C     0.84127   0.48989   0.58327   0.00000  Uiso   1.00
C948   C     0.99336   0.50721   0.73768   0.00000  Uiso   1.00
C949   C     0.67347   0.49091   0.76404   0.00000  Uiso   1.00
C950   C     0.77061   0.55478   0.92027   0.00000  Uiso   1.00
C951   C     0.84738   0.65548   0.73825   0.00000  Uiso   1.00
C952   C     0.81823   0.34551   0.76230   0.00000  Uiso   1.00
C953   C     0.82254   0.38953   0.75900   0.00000  Uiso   1.00
C954   C     0.84346   0.61097   0.74141   0.00000  Uiso   1.00
C955   C     0.85501   0.47842   0.64425   0.00000  Uiso   1.00
C956   C     0.81215   0.52114   0.85608   0.00000  Uiso   1.00
C957   C     0.80224   0.52911   0.89898   0.00000  Uiso   1.00
C958   C     0.86340   0.47005   0.60210   0.00000  Uiso   1.00
C959   C     0.76121   0.56180   0.96109   0.00000  Uiso   1.00
C960   C     0.99333   0.44943   0.81532   0.00000  Uiso   1.00
C961   C     0.82417   0.50996   0.91870   0.00000  Uiso   1.00
C962   C     0.74619   0.62896   0.97934   0.00000  Uiso   1.00
C963   C     0.81394   0.51432   0.95989   0.00000  Uiso   1.00
C964   C     0.78224   0.54108   0.98106   0.00000  Uiso   1.00
C965   C     0.83457   0.49317   0.98049   0.00000  Uiso   1.00
C966   C     0.82500   0.50115   0.52209   0.00000  Uiso   1.00
C967   C     0.79310   0.52784   0.54196   0.00000  Uiso   1.00
C968   C     0.77210   0.54707   0.52185   0.00000  Uiso   1.00
H969   H     0.74786   0.56712   0.53867   0.00000  Uiso   1.00
H970   H     0.84946   0.49208   0.90091   0.00000  Uiso   1.00
H971   H     0.78280   0.53423   0.57335   0.00000  Uiso   1.00
H972   H     0.87119   0.45411   0.92996   0.00000  Uiso   1.00
H973   H     0.68588   0.46479   0.82857   0.00000  Uiso   1.00
H974   H     0.67141   0.42274   0.79336   0.00000  Uiso   1.00
H975   H     0.96661   0.43650   0.83918   0.00000  Uiso   1.00
H976   H     0.75456   0.63728   0.94876   0.00000  Uiso   1.00
H977   H     0.77474   0.63633   0.99109   0.00000  Uiso   1.00
H978   H     0.72125   0.64885   0.99757   0.00000  Uiso   1.00
H979   H     0.92216   0.41169   0.52467   0.00000  Uiso   1.00
H980   H     0.68321   0.52028   0.71253   0.00000  Uiso   1.00
H981   H     0.87426   0.33603   0.71615   0.00000  Uiso   1.00
H982   H     0.79100   0.66577   0.78452   0.00000  Uiso   1.00
H983   H     0.81998   0.51172   0.60147   0.00000  Uiso   1.00
H984   H     0.90951   0.42644   0.59583   0.00000  Uiso   1.00
H985   H     0.90704   0.42214   0.96474   0.00000  Uiso   1.00
H986   H     0.75304   0.56949   0.90535   0.00000  Uiso   1.00
O987   O     0.83333   0.50000   0.75000   0.00000  Uiso   1.00
O988   O     0.82360   0.45726   0.66625   0.00000  Uiso   1.00
O989   O     0.79354   0.53979   0.83749   0.00000  Uiso   1.00
O990   O     0.87755   0.50826   0.65877   0.00000  Uiso   1.00
O991   O     0.83865   0.49468   0.83749   0.00000  Uiso   1.00
O992   O     0.97763   0.47868   0.79878   0.00000  Uiso   1.00
O993   O     0.72921   0.58665   0.98168   0.00000  Uiso   1.00
O994   O     0.84515   0.41434   0.77821   0.00000  Uiso   1.00
O995   O     0.81247   0.59469   0.76767   0.00000  Uiso   1.00
O996   O     0.74119   0.46584   0.73607   0.00000  Uiso   1.00
O997   O     0.93452   0.52512   0.71806   0.00000  Uiso   1.00
O998   O     0.73656   0.52293   0.77820   0.00000  Uiso   1.00
O999   O     0.92106   0.48610   0.76768   0.00000  Uiso   1.00
O1000  O     0.80467   0.40236   0.73607   0.00000  Uiso   1.00
O1001  O     0.87104   0.58860   0.71806   0.00000  Uiso   1.00
Zn1002 Zn    0.85910   0.47423   0.78278   0.00000  Uiso   1.00
Zn1003 Zn    0.80125   0.45711   0.72258   0.00000  Uiso   1.00
Zn1004 Zn    0.87833   0.52997   0.71188   0.00000  Uiso   1.00
Zn1005 Zn    0.79465   0.53868   0.78277   0.00000  Uiso   1.00
C1006  C     0.05280   0.82713   0.75836   0.00000  Uiso   1.00
C1007  C     0.19726   0.79709   0.96092   0.00000  Uiso   1.00
C1008  C     0.21807   0.77767   0.98101   0.00000  Uiso   1.00
C1009  C     0.28094   0.84004   0.74140   0.00000  Uiso   1.00
C1010  C     0.21059   0.78657   0.52131   0.00000  Uiso   1.00
C1011  C     0.18066   0.81507   0.54247   0.00000  Uiso   1.00
C1012  C     0.23277   0.76691   0.54072   0.00000  Uiso   1.00
C1013  C     0.22577   0.77525   0.58104   0.00000  Uiso   1.00
C1014  C     0.17461   0.82323   0.58327   0.00000  Uiso   1.00
C1015  C     0.32670   0.84055   0.73768   0.00000  Uiso   1.00
C1016  C     0.00681   0.82424   0.76404   0.00000  Uiso   1.00
C1017  C     0.10394   0.88811   0.92027   0.00000  Uiso   1.00
C1018  C     0.18071   0.98881   0.73825   0.00000  Uiso   1.00
C1019  C     0.15157   0.67884   0.76230   0.00000  Uiso   1.00
C1020  C     0.15587   0.72286   0.75900   0.00000  Uiso   1.00
C1021  C     0.17680   0.94431   0.74141   0.00000  Uiso   1.00
C1022  C     0.18835   0.81175   0.64425   0.00000  Uiso   1.00
C1023  C     0.14548   0.85447   0.85608   0.00000  Uiso   1.00
C1024  C     0.13558   0.86245   0.89898   0.00000  Uiso   1.00
C1025  C     0.19673   0.80338   0.60210   0.00000  Uiso   1.00
C1026  C     0.09455   0.89514   0.96109   0.00000  Uiso   1.00
C1027  C     0.32666   0.78276   0.81532   0.00000  Uiso   1.00
C1028  C     0.15750   0.84329   0.91870   0.00000  Uiso   1.00
C1029  C     0.07952   0.96229   0.97934   0.00000  Uiso   1.00
C1030  C     0.14727   0.84766   0.95989   0.00000  Uiso   1.00
C1031  C     0.11557   0.87441   0.98106   0.00000  Uiso   1.00
C1032  C     0.16791   0.82650   0.98049   0.00000  Uiso   1.00
C1033  C     0.15834   0.83448   0.52209   0.00000  Uiso   1.00
C1034  C     0.12643   0.86118   0.54196   0.00000  Uiso   1.00
C1035  C     0.10544   0.88040   0.52185   0.00000  Uiso   1.00
H1036  H     0.08119   0.90045   0.53867   0.00000  Uiso   1.00
H1037  H     0.18280   0.82541   0.90091   0.00000  Uiso   1.00
H1038  H     0.11613   0.86757   0.57335   0.00000  Uiso   1.00
H1039  H     0.20453   0.78745   0.92996   0.00000  Uiso   1.00
H1040  H     0.01921   0.79813   0.82857   0.00000  Uiso   1.00
H1041  H     0.00474   0.75607   0.79336   0.00000  Uiso   1.00
H1042  H     0.29994   0.76984   0.83918   0.00000  Uiso   1.00
H1043  H     0.08789   0.97061   0.94876   0.00000  Uiso   1.00
H1044  H     0.10808   0.96966   0.99109   0.00000  Uiso   1.00
H1045  H     0.05458   0.98218   0.99757   0.00000  Uiso   1.00
H1046  H     0.25549   0.74503   0.52467   0.00000  Uiso   1.00
H1047  H     0.01654   0.85361   0.71253   0.00000  Uiso   1.00
H1048  H     0.20759   0.66936   0.71615   0.00000  Uiso   1.00
H1049  H     0.12433   0.99910   0.78452   0.00000  Uiso   1.00
H1050  H     0.15331   0.84505   0.60147   0.00000  Uiso   1.00
H1051  H     0.24285   0.75977   0.59583   0.00000  Uiso   1.00
H1052  H     0.24038   0.75547   0.96474   0.00000  Uiso   1.00
H1053  H     0.08638   0.90282   0.90535   0.00000  Uiso   1.00
O1054  O     0.16667   0.83333   0.75000   0.00000  Uiso   1.00
O1055  O     0.15693   0.79060   0.66625   0.00000  Uiso   1.00
O1056  O     0.12687   0.87313   0.83749   0.00000  Uiso   1.00
O1057  O     0.21088   0.84159   0.65877   0.00000  Uiso   1.00
O1058  O     0.17198   0.82802   0.83749   0.00000  Uiso   1.00
O1059  O     0.31096   0.81201   0.79878   0.00000  Uiso   1.00
O1060  O     0.06255   0.91998   0.98168   0.00000  Uiso   1.00
O1061  O     0.17849   0.74768   0.77821   0.00000  Uiso   1.00
O1062  O     0.14581   0.92803   0.76767   0.00000  Uiso   1.00
O1063  O     0.07452   0.79917   0.73607   0.00000  Uiso   1.00
O1064  O     0.26785   0.85845   0.71806   0.00000  Uiso   1.00
O1065  O     0.06990   0.85627   0.77820   0.00000  Uiso   1.00
O1066  O     0.25440   0.81944   0.76768   0.00000  Uiso   1.00
O1067  O     0.13800   0.73570   0.73607   0.00000  Uiso   1.00
O1068  O     0.20437   0.92193   0.71806   0.00000  Uiso   1.00
Zn1069 Zn    0.19244   0.80756   0.78278   0.00000  Uiso   1.00
Zn1070 Zn    0.13459   0.79044   0.72258   0.00000  Uiso   1.00
Zn1071 Zn    0.21166   0.86331   0.71188   0.00000  Uiso   1.00
Zn1072 Zn    0.12798   0.87202   0.78277   0.00000  Uiso   1.00
C1073  C     0.38613   0.82713   0.75836   0.00000  Uiso   1.00
C1074  C     0.53059   0.79709   0.96092   0.00000  Uiso   1.00
C1075  C     0.55141   0.77767   0.98101   0.00000  Uiso   1.00
C1076  C     0.61427   0.84004   0.74140   0.00000  Uiso   1.00
C1077  C     0.54392   0.78657   0.52131   0.00000  Uiso   1.00
C1078  C     0.51400   0.81507   0.54247   0.00000  Uiso   1.00
C1079  C     0.56610   0.76691   0.54072   0.00000  Uiso   1.00
C1080  C     0.55910   0.77525   0.58104   0.00000  Uiso   1.00
C1081  C     0.50794   0.82323   0.58327   0.00000  Uiso   1.00
C1082  C     0.66003   0.84055   0.73768   0.00000  Uiso   1.00
C1083  C     0.34014   0.82424   0.76404   0.00000  Uiso   1.00
C1084  C     0.43728   0.88811   0.92027   0.00000  Uiso   1.00
C1085  C     0.51405   0.98881   0.73825   0.00000  Uiso   1.00
C1086  C     0.48490   0.67884   0.76230   0.00000  Uiso   1.00
C1087  C     0.48920   0.72286   0.75900   0.00000  Uiso   1.00
C1088  C     0.51013   0.94431   0.74141   0.00000  Uiso   1.00
C1089  C     0.52168   0.81175   0.64425   0.00000  Uiso   1.00
C1090  C     0.47881   0.85447   0.85608   0.00000  Uiso   1.00
C1091  C     0.46891   0.86245   0.89898   0.00000  Uiso   1.00
C1092  C     0.53007   0.80338   0.60210   0.00000  Uiso   1.00
C1093  C     0.42788   0.89514   0.96109   0.00000  Uiso   1.00
C1094  C     0.65999   0.78276   0.81532   0.00000  Uiso   1.00
C1095  C     0.49083   0.84329   0.91870   0.00000  Uiso   1.00
C1096  C     0.41285   0.96229   0.97934   0.00000  Uiso   1.00
C1097  C     0.48060   0.84766   0.95989   0.00000  Uiso   1.00
C1098  C     0.44891   0.87441   0.98106   0.00000  Uiso   1.00
C1099  C     0.50124   0.82650   0.98049   0.00000  Uiso   1.00
C1100  C     0.49167   0.83448   0.52209   0.00000  Uiso   1.00
C1101  C     0.45976   0.86118   0.54196   0.00000  Uiso   1.00
C1102  C     0.43877   0.88040   0.52185   0.00000  Uiso   1.00
H1103  H     0.41453   0.90045   0.53867   0.00000  Uiso   1.00
H1104  H     0.51613   0.82541   0.90091   0.00000  Uiso   1.00
H1105  H     0.44947   0.86757   0.57335   0.00000  Uiso   1.00
H1106  H     0.53786   0.78745   0.92996   0.00000  Uiso   1.00
H1107  H     0.35255   0.79813   0.82857   0.00000  Uiso   1.00
H1108  H     0.33808   0.75607   0.79336   0.00000  Uiso   1.00
H1109  H     0.63327   0.76984   0.83918   0.00000  Uiso   1.00
H1110  H     0.42123   0.97061   0.94876   0.00000  Uiso   1.00
H1111  H     0.44141   0.96966   0.99109   0.00000  Uiso   1.00
H1112  H     0.38792   0.98218   0.99757   0.00000  Uiso   1.00
H1113  H     0.58883   0.74503   0.52467   0.00000  Uiso   1.00
H1114  H     0.34987   0.85361   0.71253   0.00000  Uiso   1.00
H1115  H     0.54092   0.66936   0.71615   0.00000  Uiso   1.00
H1116  H     0.45766   0.99910   0.78452   0.00000  Uiso   1.00
H1117  H     0.48664   0.84505   0.60147   0.00000  Uiso   1.00
H1118  H     0.57618   0.75977   0.59583   0.00000  Uiso   1.00
H1119  H     0.57371   0.75547   0.96474   0.00000  Uiso   1.00
H1120  H     0.41971   0.90282   0.90535   0.00000  Uiso   1.00
O1121  O     0.50000   0.83333   0.75000   0.00000  Uiso   1.00
O1122  O     0.49027   0.79060   0.66625   0.00000  Uiso   1.00
O1123  O     0.46020   0.87313   0.83749   0.00000  Uiso   1.00
O1124  O     0.54421   0.84159   0.65877   0.00000  Uiso   1.00
O1125  O     0.50532   0.82802   0.83749   0.00000  Uiso   1.00
O1126  O     0.64430   0.81201   0.79878   0.00000  Uiso   1.00
O1127  O     0.39588   0.91998   0.98168   0.00000  Uiso   1.00
O1128  O     0.51182   0.74768   0.77821   0.00000  Uiso   1.00
O1129  O     0.47914   0.92803   0.76767   0.00000  Uiso   1.00
O1130  O     0.40785   0.79917   0.73607   0.00000  Uiso   1.00
O1131  O     0.60119   0.85845   0.71806   0.00000  Uiso   1.00
O1132  O     0.40323   0.85627   0.77820   0.00000  Uiso   1.00
O1133  O     0.58773   0.81944   0.76768   0.00000  Uiso   1.00
O1134  O     0.47133   0.73570   0.73607   0.00000  Uiso   1.00
O1135  O     0.53771   0.92193   0.71806   0.00000  Uiso   1.00
Zn1136 Zn    0.52577   0.80756   0.78278   0.00000  Uiso   1.00
Zn1137 Zn    0.46792   0.79044   0.72258   0.00000  Uiso   1.00
Zn1138 Zn    0.54500   0.86331   0.71188   0.00000  Uiso   1.00
Zn1139 Zn    0.46131   0.87202   0.78277   0.00000  Uiso   1.00
C1140  C     0.71946   0.82713   0.75836   0.00000  Uiso   1.00
C1141  C     0.86393   0.79709   0.96092   0.00000  Uiso   1.00
C1142  C     0.88474   0.77767   0.98101   0.00000  Uiso   1.00
C1143  C     0.94761   0.84004   0.74140   0.00000  Uiso   1.00
C1144  C     0.87725   0.78657   0.52131   0.00000  Uiso   1.00
C1145  C     0.84733   0.81507   0.54247   0.00000  Uiso   1.00
C1146  C     0.89944   0.76691   0.54072   0.00000  Uiso   1.00
C1147  C     0.89243   0.77525   0.58104   0.00000  Uiso   1.00
C1148  C     0.84127   0.82323   0.58327   0.00000  Uiso   1.00
C1149  C     0.99336   0.84055   0.73768   0.00000  Uiso   1.00
C1150  C     0.67347   0.82424   0.76404   0.00000  Uiso   1.00
C1151  C     0.77061   0.88811   0.92027   0.00000  Uiso   1.00
C1152  C     0.84738   0.98881   0.73825   0.00000  Uiso   1.00
C1153  C     0.81823   0.67884   0.76230   0.00000  Uiso   1.00
C1154  C     0.82254   0.72286   0.75900   0.00000  Uiso   1.00
C1155  C     0.84346   0.94431   0.74141   0.00000  Uiso   1.00
C1156  C     0.85501   0.81175   0.64425   0.00000  Uiso   1.00
C1157  C     0.81215   0.85447   0.85608   0.00000  Uiso   1.00
C1158  C     0.80224   0.86245   0.89898   0.00000  Uiso   1.00
C1159  C     0.86340   0.80338   0.60210   0.00000  Uiso   1.00
C1160  C     0.76121   0.89514   0.96109   0.00000  Uiso   1.00
C1161  C     0.99333   0.78276   0.81532   0.00000  Uiso   1.00
C1162  C     0.82417   0.84329   0.91870   0.00000  Uiso   1.00
C1163  C     0.74619   0.96229   0.97934   0.00000  Uiso   1.00
C1164  C     0.81394   0.84766   0.95989   0.00000  Uiso   1.00
C1165  C     0.78224   0.87441   0.98106   0.00000  Uiso   1.00
C1166  C     0.83457   0.82650   0.98049   0.00000  Uiso   1.00
C1167  C     0.82500   0.83448   0.52209   0.00000  Uiso   1.00
C1168  C     0.79310   0.86118   0.54196   0.00000  Uiso   1.00
C1169  C     0.77210   0.88040   0.52185   0.00000  Uiso   1.00
H1170  H     0.74786   0.90045   0.53867   0.00000  Uiso   1.00
H1171  H     0.84946   0.82541   0.90091   0.00000  Uiso   1.00
H1172  H     0.78280   0.86757   0.57335   0.00000  Uiso   1.00
H1173  H     0.87119   0.78745   0.92996   0.00000  Uiso   1.00
H1174  H     0.68588   0.79813   0.82857   0.00000  Uiso   1.00
H1175  H     0.67141   0.75607   0.79336   0.00000  Uiso   1.00
H1176  H     0.96661   0.76984   0.83918   0.00000  Uiso   1.00
H1177  H     0.75456   0.97061   0.94876   0.00000  Uiso   1.00
H1178  H     0.77474   0.96966   0.99109   0.00000  Uiso   1.00
H1179  H     0.72125   0.98218   0.99757   0.00000  Uiso   1.00
H1180  H     0.92216   0.74503   0.52467   0.00000  Uiso   1.00
H1181  H     0.68321   0.85361   0.71253   0.00000  Uiso   1.00
H1182  H     0.87426   0.66936   0.71615   0.00000  Uiso   1.00
H1183  H     0.79100   0.99910   0.78452   0.00000  Uiso   1.00
H1184  H     0.81998   0.84505   0.60147   0.00000  Uiso   1.00
H1185  H     0.90951   0.75977   0.59583   0.00000  Uiso   1.00
H1186  H     0.90704   0.75547   0.96474   0.00000  Uiso   1.00
H1187  H     0.75304   0.90282   0.90535   0.00000  Uiso   1.00
O1188  O     0.83333   0.83333   0.75000   0.00000  Uiso   1.00
O1189  O     0.82360   0.79060   0.66625   0.00000  Uiso   1.00
O1190  O     0.79354   0.87313   0.83749   0.00000  Uiso   1.00
O1191  O     0.87755   0.84159   0.65877   0.00000  Uiso   1.00
O1192  O     0.83865   0.82802   0.83749   0.00000  Uiso   1.00
O1193  O     0.97763   0.81201   0.79878   0.00000  Uiso   1.00
O1194  O     0.72921   0.91998   0.98168   0.00000  Uiso   1.00
O1195  O     0.84515   0.74768   0.77821   0.00000  Uiso   1.00
O1196  O     0.81247   0.92803   0.76767   0.00000  Uiso   1.00
O1197  O     0.74119   0.79917   0.73607   0.00000  Uiso   1.00
O1198  O     0.93452   0.85845   0.71806   0.00000  Uiso   1.00
O1199  O     0.73656   0.85627   0.77820   0.00000  Uiso   1.00
O1200  O     0.92106   0.81944   0.76768   0.00000  Uiso   1.00
O1201  O     0.80467   0.73570   0.73607   0.00000  Uiso   1.00
O1202  O     0.87104   0.92193   0.71806   0.00000  Uiso   1.00
Zn1203 Zn    0.85910   0.80756   0.78278   0.00000  Uiso   1.00
Zn1204 Zn    0.80125   0.79044   0.72258   0.00000  Uiso   1.00
Zn1205 Zn    0.87833   0.86331   0.71188   0.00000  Uiso   1.00
Zn1206 Zn    0.79465   0.87202   0.78277   0.00000  Uiso   1.00
loop_
_geom_bond_atom_site_label_1
_geom_bond_atom_site_label_2
_geom_bond_distance
_geom_bond_site_symmetry_2
_ccdc_geom_bond_type
C1     C11     1.447   .     S
C1     O58     1.272   .     A
C1     O60     1.266   .     A
C2     C27     1.417   .     A
C2     H34     1.075   .     S
C2     C3      1.384   .     A
C3     H47     1.085   .     S
C3     C608    1.389   .     S
C4     C10     1.459   .     S
C4     O59     1.290   .     A
C4     O61     1.274   .     A
C5     C6      1.421   .     A
C5     C7      1.403   .     A
C5     C606    1.389   1_554 S
C6     C9      1.410   .     A
C6     C28     1.427   .     A
C7     H41     1.084   .     S
C7     C8      1.390   .     A
C8     C20     1.394   .     A
C8     H46     1.083   .     S
C9     H45     1.077   .     S
C9     C20     1.391   .     A
C10    C78     1.348   .     S
C10    H109    1.088   .     S
C11    C144    1.348   1_455 S
C11    O188    1.399   1_455 S
C12    H48     1.083   .     S
C12    C21     1.398   .     A
C12    C19     1.398   .     A
C13    C16     1.450   .     S
C13    C215    1.331   .     S
C13    H244    1.088   .     S
C14    C15     1.434   .     S
C14    C415    1.331   1_545 S
C14    H446    1.086   1_545 S
C15    O56     1.280   .     A
C15    O62     1.280   .     A
C16    O63     1.272   .     A
C16    O57     1.274   .     A
C17    O50     1.275   .     A
C17    O52     1.276   .     A
C17    C20     1.448   .     S
C18    O51     1.280   .     A
C18    C19     1.470   .     S
C18    O53     1.284   .     A
C19    C23     1.395   .     A
C21    C26     1.412   .     A
C21    O55     1.384   .     S
C22    O54     1.412   .     S
C22    H37     1.109   .     S
C22    H102    1.112   .     S
C22    H103    1.113   .     S
C23    H32     1.074   .     S
C23    C25     1.407   .     A
C24    H38     1.113   .     S
C24    H39     1.114   .     S
C24    O55     1.410   .     S
C24    H40     1.109   .     S
C25    C27     1.428   .     A
C25    C26     1.421   .     A
C26    C633    1.394   .     S
C27    C631    1.426   .     S
C28    C29     1.414   .     A
C28    C630    1.426   1_554 S
C29    C30     1.385   .     A
C29    H33     1.076   .     S
C30    H31     1.084   .     S
C30    C629    1.394   1_554 S
H35    C156    1.112   1_455 S
H36    C156    1.113   1_455 S
H42    C144    1.088   1_455 S
H43    C415    1.088   1_545 S
H44    C215    1.086   .     S
O49    Zn64    1.962   .     S
O49    Zn65    1.949   .     S
O49    Zn67    1.932   .     S
O49    Zn66    1.941   .     S
O50    Zn65    1.938   .     S
O51    Zn67    1.947   .     S
O52    Zn66    1.941   .     S
O53    Zn64    1.932   .     S
O54    C78     1.399   .     S
O56    Zn64    1.928   .     S
O57    Zn67    1.931   .     S
O58    Zn65    1.932   .     S
O59    Zn66    1.942   .     S
O60    Zn67    1.941   .     S
O61    Zn64    1.932   .     S
O62    Zn65    1.934   .     S
O63    Zn66    1.927   .     S
C68    C78     1.447   .     S
C68    O125    1.272   .     A
C68    O127    1.266   .     A
C69    C94     1.417   .     A
C69    H101    1.075   .     S
C69    C70     1.384   .     A
C70    H114    1.085   .     S
C70    C675    1.389   .     S
C71    C77     1.459   .     S
C71    O126    1.290   .     A
C71    O128    1.274   .     A
C72    C73     1.421   .     A
C72    C74     1.403   .     A
C72    C673    1.389   1_554 S
C73    C76     1.410   .     A
C73    C95     1.427   .     A
C74    H108    1.084   .     S
C74    C75     1.390   .     A
C75    C87     1.394   .     A
C75    H113    1.083   .     S
C76    H112    1.077   .     S
C76    C87     1.391   .     A
C77    C145    1.348   .     S
C77    H176    1.088   .     S
C79    H115    1.083   .     S
C79    C88     1.398   .     A
C79    C86     1.398   .     A
C80    C83     1.450   .     S
C80    C282    1.331   .     S
C80    H311    1.088   .     S
C81    C82     1.434   .     S
C81    C482    1.331   1_545 S
C81    H513    1.086   1_545 S
C82    O123    1.280   .     A
C82    O129    1.280   .     A
C83    O130    1.272   .     A
C83    O124    1.274   .     A
C84    O117    1.275   .     A
C84    O119    1.276   .     A
C84    C87     1.448   .     S
C85    O118    1.280   .     A
C85    C86     1.470   .     S
C85    O120    1.284   .     A
C86    C90     1.395   .     A
C88    C93     1.412   .     A
C88    O122    1.384   .     S
C89    O121    1.412   .     S
C89    H104    1.109   .     S
C89    H169    1.112   .     S
C89    H170    1.113   .     S
C90    H99     1.074   .     S
C90    C92     1.407   .     A
C91    H105    1.113   .     S
C91    H106    1.114   .     S
C91    O122    1.410   .     S
C91    H107    1.109   .     S
C92    C94     1.428   .     A
C92    C93     1.421   .     A
C93    C700    1.394   .     S
C94    C698    1.426   .     S
C95    C96     1.414   .     A
C95    C697    1.426   1_554 S
C96    C97     1.385   .     A
C96    H100    1.076   .     S
C97    H98     1.084   .     S
C97    C696    1.394   1_554 S
H110   C482    1.088   1_545 S
H111   C282    1.086   .     S
O116   Zn131   1.962   .     S
O116   Zn132   1.949   .     S
O116   Zn134   1.932   .     S
O116   Zn133   1.941   .     S
O117   Zn132   1.938   .     S
O118   Zn134   1.947   .     S
O119   Zn133   1.941   .     S
O120   Zn131   1.932   .     S
O121   C145    1.399   .     S
O123   Zn131   1.928   .     S
O124   Zn134   1.931   .     S
O125   Zn132   1.932   .     S
O126   Zn133   1.942   .     S
O127   Zn134   1.941   .     S
O128   Zn131   1.932   .     S
O129   Zn132   1.934   .     S
O130   Zn133   1.927   .     S
C135   C145    1.447   .     S
C135   O192    1.272   .     A
C135   O194    1.266   .     A
C136   C161    1.417   .     A
C136   H168    1.075   .     S
C136   C137    1.384   .     A
C137   H181    1.085   .     S
C137   C742    1.389   .     S
C138   C144    1.459   .     S
C138   O193    1.290   .     A
C138   O195    1.274   .     A
C139   C140    1.421   .     A
C139   C141    1.403   .     A
C139   C740    1.389   1_554 S
C140   C143    1.410   .     A
C140   C162    1.427   .     A
C141   H175    1.084   .     S
C141   C142    1.390   .     A
C142   C154    1.394   .     A
C142   H180    1.083   .     S
C143   H179    1.077   .     S
C143   C154    1.391   .     A
C144   C11     1.348   1_655 S
C144   H42     1.088   1_655 S
C146   H182    1.083   .     S
C146   C155    1.398   .     A
C146   C153    1.398   .     A
C147   C150    1.450   .     S
C147   C349    1.331   .     S
C147   H378    1.088   .     S
C148   C149    1.434   .     S
C148   C549    1.331   1_545 S
C148   H580    1.086   1_545 S
C149   O190    1.280   .     A
C149   O196    1.280   .     A
C150   O197    1.272   .     A
C150   O191    1.274   .     A
C151   O184    1.275   .     A
C151   O186    1.276   .     A
C151   C154    1.448   .     S
C152   O185    1.280   .     A
C152   C153    1.470   .     S
C152   O187    1.284   .     A
C153   C157    1.395   .     A
C155   C160    1.412   .     A
C155   O189    1.384   .     S
C156   O188    1.412   .     S
C156   H171    1.109   .     S
C156   H35     1.112   1_655 S
C156   H36     1.113   1_655 S
C157   H166    1.074   .     S
C157   C159    1.407   .     A
C158   H172    1.113   .     S
C158   H173    1.114   .     S
C158   O189    1.410   .     S
C158   H174    1.109   .     S
C159   C161    1.428   .     A
C159   C160    1.421   .     A
C160   C767    1.394   .     S
C161   C765    1.426   .     S
C162   C163    1.414   .     A
C162   C764    1.426   1_554 S
C163   C164    1.385   .     A
C163   H167    1.076   .     S
C164   H165    1.084   .     S
C164   C763    1.394   1_554 S
H177   C549    1.088   1_545 S
H178   C349    1.086   .     S
O183   Zn198   1.962   .     S
O183   Zn199   1.949   .     S
O183   Zn201   1.932   .     S
O183   Zn200   1.941   .     S
O184   Zn199   1.938   .     S
O185   Zn201   1.947   .     S
O186   Zn200   1.941   .     S
O187   Zn198   1.932   .     S
O188   C11     1.399   1_655 S
O190   Zn198   1.928   .     S
O191   Zn201   1.931   .     S
O192   Zn199   1.932   .     S
O193   Zn200   1.942   .     S
O194   Zn201   1.941   .     S
O195   Zn198   1.932   .     S
O196   Zn199   1.934   .     S
O197   Zn200   1.927   .     S
C202   C212    1.447   .     S
C202   O259    1.272   .     A
C202   O261    1.266   .     A
C203   C228    1.417   .     A
C203   H235    1.075   .     S
C203   C204    1.384   .     A
C204   H248    1.085   .     S
C204   C809    1.389   .     S
C205   C211    1.459   .     S
C205   O260    1.290   .     A
C205   O262    1.274   .     A
C206   C207    1.421   .     A
C206   C208    1.403   .     A
C206   C807    1.389   1_554 S
C207   C210    1.410   .     A
C207   C229    1.427   .     A
C208   H242    1.084   .     S
C208   C209    1.390   .     A
C209   C221    1.394   .     A
C209   H247    1.083   .     S
C210   H246    1.077   .     S
C210   C221    1.391   .     A
C211   C279    1.348   .     S
C211   H310    1.088   .     S
C212   C345    1.348   1_455 S
C212   O389    1.399   1_455 S
C213   H249    1.083   .     S
C213   C222    1.398   .     A
C213   C220    1.398   .     A
C214   C217    1.450   .     S
C214   C416    1.331   .     S
C214   H445    1.088   .     S
C215   C216    1.434   .     S
C216   O257    1.280   .     A
C216   O263    1.280   .     A
C217   O264    1.272   .     A
C217   O258    1.274   .     A
C218   O251    1.275   .     A
C218   O253    1.276   .     A
C218   C221    1.448   .     S
C219   O252    1.280   .     A
C219   C220    1.470   .     S
C219   O254    1.284   .     A
C220   C224    1.395   .     A
C222   C227    1.412   .     A
C222   O256    1.384   .     S
C223   O255    1.412   .     S
C223   H238    1.109   .     S
C223   H303    1.112   .     S
C223   H304    1.113   .     S
C224   H233    1.074   .     S
C224   C226    1.407   .     A
C225   H239    1.113   .     S
C225   H240    1.114   .     S
C225   O256    1.410   .     S
C225   H241    1.109   .     S
C226   C228    1.428   .     A
C226   C227    1.421   .     A
C227   C834    1.394   .     S
C228   C832    1.426   .     S
C229   C230    1.414   .     A
C229   C831    1.426   1_554 S
C230   C231    1.385   .     A
C230   H234    1.076   .     S
C231   H232    1.084   .     S
C231   C830    1.394   1_554 S
H236   C357    1.112   1_455 S
H237   C357    1.113   1_455 S
H243   C345    1.088   1_455 S
H245   C416    1.086   .     S
O250   Zn265   1.962   .     S
O250   Zn266   1.949   .     S
O250   Zn268   1.932   .     S
O250   Zn267   1.941   .     S
O251   Zn266   1.938   .     S
O252   Zn268   1.947   .     S
O253   Zn267   1.941   .     S
O254   Zn265   1.932   .     S
O255   C279    1.399   .     S
O257   Zn265   1.928   .     S
O258   Zn268   1.931   .     S
O259   Zn266   1.932   .     S
O260   Zn267   1.942   .     S
O261   Zn268   1.941   .     S
O262   Zn265   1.932   .     S
O263   Zn266   1.934   .     S
O264   Zn267   1.927   .     S
C269   C279    1.447   .     S
C269   O326    1.272   .     A
C269   O328    1.266   .     A
C270   C295    1.417   .     A
C270   H302    1.075   .     S
C270   C271    1.384   .     A
C271   H315    1.085   .     S
C271   C876    1.389   .     S
C272   C278    1.459   .     S
C272   O327    1.290   .     A
C272   O329    1.274   .     A
C273   C274    1.421   .     A
C273   C275    1.403   .     A
C273   C874    1.389   1_554 S
C274   C277    1.410   .     A
C274   C296    1.427   .     A
C275   H309    1.084   .     S
C275   C276    1.390   .     A
C276   C288    1.394   .     A
C276   H314    1.083   .     S
C277   H313    1.077   .     S
C277   C288    1.391   .     A
C278   C346    1.348   .     S
C278   H377    1.088   .     S
C280   H316    1.083   .     S
C280   C289    1.398   .     A
C280   C287    1.398   .     A
C281   C284    1.450   .     S
C281   C483    1.331   .     S
C281   H512    1.088   .     S
C282   C283    1.434   .     S
C283   O324    1.280   .     A
C283   O330    1.280   .     A
C284   O331    1.272   .     A
C284   O325    1.274   .     A
C285   O318    1.275   .     A
C285   O320    1.276   .     A
C285   C288    1.448   .     S
C286   O319    1.280   .     A
C286   C287    1.470   .     S
C286   O321    1.284   .     A
C287   C291    1.395   .     A
C289   C294    1.412   .     A
C289   O323    1.384   .     S
C290   O322    1.412   .     S
C290   H305    1.109   .     S
C290   H370    1.112   .     S
C290   H371    1.113   .     S
C291   H300    1.074   .     S
C291   C293    1.407   .     A
C292   H306    1.113   .     S
C292   H307    1.114   .     S
C292   O323    1.410   .     S
C292   H308    1.109   .     S
C293   C295    1.428   .     A
C293   C294    1.421   .     A
C294   C901    1.394   .     S
C295   C899    1.426   .     S
C296   C297    1.414   .     A
C296   C898    1.426   1_554 S
C297   C298    1.385   .     A
C297   H301    1.076   .     S
C298   H299    1.084   .     S
C298   C897    1.394   1_554 S
H312   C483    1.086   .     S
O317   Zn332   1.962   .     S
O317   Zn333   1.949   .     S
O317   Zn335   1.932   .     S
O317   Zn334   1.941   .     S
O318   Zn333   1.938   .     S
O319   Zn335   1.947   .     S
O320   Zn334   1.941   .     S
O321   Zn332   1.932   .     S
O322   C346    1.399   .     S
O324   Zn332   1.928   .     S
O325   Zn335   1.931   .     S
O326   Zn333   1.932   .     S
O327   Zn334   1.942   .     S
O328   Zn335   1.941   .     S
O329   Zn332   1.932   .     S
O330   Zn333   1.934   .     S
O331   Zn334   1.927   .     S
C336   C346    1.447   .     S
C336   O393    1.272   .     A
C336   O395    1.266   .     A
C337   C362    1.417   .     A
C337   H369    1.075   .     S
C337   C338    1.384   .     A
C338   H382    1.085   .     S
C338   C943    1.389   .     S
C339   C345    1.459   .     S
C339   O394    1.290   .     A
C339   O396    1.274   .     A
C340   C341    1.421   .     A
C340   C342    1.403   .     A
C340   C941    1.389   1_554 S
C341   C344    1.410   .     A
C341   C363    1.427   .     A
C342   H376    1.084   .     S
C342   C343    1.390   .     A
C343   C355    1.394   .     A
C343   H381    1.083   .     S
C344   H380    1.077   .     S
C344   C355    1.391   .     A
C345   C212    1.348   1_655 S
C345   H243    1.088   1_655 S
C347   H383    1.083   .     S
C347   C356    1.398   .     A
C347   C354    1.398   .     A
C348   C351    1.450   .     S
C348   C550    1.331   .     S
C348   H579    1.088   .     S
C349   C350    1.434   .     S
C350   O391    1.280   .     A
C350   O397    1.280   .     A
C351   O398    1.272   .     A
C351   O392    1.274   .     A
C352   O385    1.275   .     A
C352   O387    1.276   .     A
C352   C355    1.448   .     S
C353   O386    1.280   .     A
C353   C354    1.470   .     S
C353   O388    1.284   .     A
C354   C358    1.395   .     A
C356   C361    1.412   .     A
C356   O390    1.384   .     S
C357   O389    1.412   .     S
C357   H372    1.109   .     S
C357   H236    1.112   1_655 S
C357   H237    1.113   1_655 S
C358   H367    1.074   .     S
C358   C360    1.407   .     A
C359   H373    1.113   .     S
C359   H374    1.114   .     S
C359   O390    1.410   .     S
C359   H375    1.109   .     S
C360   C362    1.428   .     A
C360   C361    1.421   .     A
C361   C968    1.394   .     S
C362   C966    1.426   .     S
C363   C364    1.414   .     A
C363   C965    1.426   1_554 S
C364   C365    1.385   .     A
C364   H368    1.076   .     S
C365   H366    1.084   .     S
C365   C964    1.394   1_554 S
H379   C550    1.086   .     S
O384   Zn399   1.962   .     S
O384   Zn400   1.949   .     S
O384   Zn402   1.932   .     S
O384   Zn401   1.941   .     S
O385   Zn400   1.938   .     S
O386   Zn402   1.947   .     S
O387   Zn401   1.941   .     S
O388   Zn399   1.932   .     S
O389   C212    1.399   1_655 S
O391   Zn399   1.928   .     S
O392   Zn402   1.931   .     S
O393   Zn400   1.932   .     S
O394   Zn401   1.942   .     S
O395   Zn402   1.941   .     S
O396   Zn399   1.932   .     S
O397   Zn400   1.934   .     S
O398   Zn401   1.927   .     S
C403   C413    1.447   .     S
C403   O460    1.272   .     A
C403   O462    1.266   .     A
C404   C429    1.417   .     A
C404   H436    1.075   .     S
C404   C405    1.384   .     A
C405   H449    1.085   .     S
C405   C1010   1.389   .     S
C406   C412    1.459   .     S
C406   O461    1.290   .     A
C406   O463    1.274   .     A
C407   C408    1.421   .     A
C407   C409    1.403   .     A
C407   C1008   1.389   1_554 S
C408   C411    1.410   .     A
C408   C430    1.427   .     A
C409   H443    1.084   .     S
C409   C410    1.390   .     A
C410   C422    1.394   .     A
C410   H448    1.083   .     S
C411   H447    1.077   .     S
C411   C422    1.391   .     A
C412   C480    1.348   .     S
C412   H511    1.088   .     S
C413   C546    1.348   1_455 S
C413   O590    1.399   1_455 S
C414   H450    1.083   .     S
C414   C423    1.398   .     A
C414   C421    1.398   .     A
C415   C418    1.450   .     S
C415   C14     1.331   1_565 S
C415   H43     1.088   1_565 S
C416   C417    1.434   .     S
C417   O458    1.280   .     A
C417   O464    1.280   .     A
C418   O465    1.272   .     A
C418   O459    1.274   .     A
C419   O452    1.275   .     A
C419   O454    1.276   .     A
C419   C422    1.448   .     S
C420   O453    1.280   .     A
C420   C421    1.470   .     S
C420   O455    1.284   .     A
C421   C425    1.395   .     A
C423   C428    1.412   .     A
C423   O457    1.384   .     S
C424   O456    1.412   .     S
C424   H439    1.109   .     S
C424   H504    1.112   .     S
C424   H505    1.113   .     S
C425   H434    1.074   .     S
C425   C427    1.407   .     A
C426   H440    1.113   .     S
C426   H441    1.114   .     S
C426   O457    1.410   .     S
C426   H442    1.109   .     S
C427   C429    1.428   .     A
C427   C428    1.421   .     A
C428   C1035   1.394   .     S
C429   C1033   1.426   .     S
C430   C431    1.414   .     A
C430   C1032   1.426   1_554 S
C431   C432    1.385   .     A
C431   H435    1.076   .     S
C432   H433    1.084   .     S
C432   C1031   1.394   1_554 S
H437   C558    1.112   1_455 S
H438   C558    1.113   1_455 S
H444   C546    1.088   1_455 S
H446   C14     1.086   1_565 S
O451   Zn466   1.962   .     S
O451   Zn467   1.949   .     S
O451   Zn469   1.932   .     S
O451   Zn468   1.941   .     S
O452   Zn467   1.938   .     S
O453   Zn469   1.947   .     S
O454   Zn468   1.941   .     S
O455   Zn466   1.932   .     S
O456   C480    1.399   .     S
O458   Zn466   1.928   .     S
O459   Zn469   1.931   .     S
O460   Zn467   1.932   .     S
O461   Zn468   1.942   .     S
O462   Zn469   1.941   .     S
O463   Zn466   1.932   .     S
O464   Zn467   1.934   .     S
O465   Zn468   1.927   .     S
C470   C480    1.447   .     S
C470   O527    1.272   .     A
C470   O529    1.266   .     A
C471   C496    1.417   .     A
C471   H503    1.075   .     S
C471   C472    1.384   .     A
C472   H516    1.085   .     S
C472   C1077   1.389   .     S
C473   C479    1.459   .     S
C473   O528    1.290   .     A
C473   O530    1.274   .     A
C474   C475    1.421   .     A
C474   C476    1.403   .     A
C474   C1075   1.389   1_554 S
C475   C478    1.410   .     A
C475   C497    1.427   .     A
C476   H510    1.084   .     S
C476   C477    1.390   .     A
C477   C489    1.394   .     A
C477   H515    1.083   .     S
C478   H514    1.077   .     S
C478   C489    1.391   .     A
C479   C547    1.348   .     S
C479   H578    1.088   .     S
C481   H517    1.083   .     S
C481   C490    1.398   .     A
C481   C488    1.398   .     A
C482   C485    1.450   .     S
C482   C81     1.331   1_565 S
C482   H110    1.088   1_565 S
C483   C484    1.434   .     S
C484   O525    1.280   .     A
C484   O531    1.280   .     A
C485   O532    1.272   .     A
C485   O526    1.274   .     A
C486   O519    1.275   .     A
C486   O521    1.276   .     A
C486   C489    1.448   .     S
C487   O520    1.280   .     A
C487   C488    1.470   .     S
C487   O522    1.284   .     A
C488   C492    1.395   .     A
C490   C495    1.412   .     A
C490   O524    1.384   .     S
C491   O523    1.412   .     S
C491   H506    1.109   .     S
C491   H571    1.112   .     S
C491   H572    1.113   .     S
C492   H501    1.074   .     S
C492   C494    1.407   .     A
C493   H507    1.113   .     S
C493   H508    1.114   .     S
C493   O524    1.410   .     S
C493   H509    1.109   .     S
C494   C496    1.428   .     A
C494   C495    1.421   .     A
C495   C1102   1.394   .     S
C496   C1100   1.426   .     S
C497   C498    1.414   .     A
C497   C1099   1.426   1_554 S
C498   C499    1.385   .     A
C498   H502    1.076   .     S
C499   H500    1.084   .     S
C499   C1098   1.394   1_554 S
H513   C81     1.086   1_565 S
O518   Zn533   1.962   .     S
O518   Zn534   1.949   .     S
O518   Zn536   1.932   .     S
O518   Zn535   1.941   .     S
O519   Zn534   1.938   .     S
O520   Zn536   1.947   .     S
O521   Zn535   1.941   .     S
O522   Zn533   1.932   .     S
O523   C547    1.399   .     S
O525   Zn533   1.928   .     S
O526   Zn536   1.931   .     S
O527   Zn534   1.932   .     S
O528   Zn535   1.942   .     S
O529   Zn536   1.941   .     S
O530   Zn533   1.932   .     S
O531   Zn534   1.934   .     S
O532   Zn535   1.927   .     S
C537   C547    1.447   .     S
C537   O594    1.272   .     A
C537   O596    1.266   .     A
C538   C563    1.417   .     A
C538   H570    1.075   .     S
C538   C539    1.384   .     A
C539   H583    1.085   .     S
C539   C1144   1.389   .     S
C540   C546    1.459   .     S
C540   O595    1.290   .     A
C540   O597    1.274   .     A
C541   C542    1.421   .     A
C541   C543    1.403   .     A
C541   C1142   1.389   1_554 S
C542   C545    1.410   .     A
C542   C564    1.427   .     A
C543   H577    1.084   .     S
C543   C544    1.390   .     A
C544   C556    1.394   .     A
C544   H582    1.083   .     S
C545   H581    1.077   .     S
C545   C556    1.391   .     A
C546   C413    1.348   1_655 S
C546   H444    1.088   1_655 S
C548   H584    1.083   .     S
C548   C557    1.398   .     A
C548   C555    1.398   .     A
C549   C552    1.450   .     S
C549   C148    1.331   1_565 S
C549   H177    1.088   1_565 S
C550   C551    1.434   .     S
C551   O592    1.280   .     A
C551   O598    1.280   .     A
C552   O599    1.272   .     A
C552   O593    1.274   .     A
C553   O586    1.275   .     A
C553   O588    1.276   .     A
C553   C556    1.448   .     S
C554   O587    1.280   .     A
C554   C555    1.470   .     S
C554   O589    1.284   .     A
C555   C559    1.395   .     A
C557   C562    1.412   .     A
C557   O591    1.384   .     S
C558   O590    1.412   .     S
C558   H573    1.109   .     S
C558   H437    1.112   1_655 S
C558   H438    1.113   1_655 S
C559   H568    1.074   .     S
C559   C561    1.407   .     A
C560   H574    1.113   .     S
C560   H575    1.114   .     S
C560   O591    1.410   .     S
C560   H576    1.109   .     S
C561   C563    1.428   .     A
C561   C562    1.421   .     A
C562   C1169   1.394   .     S
C563   C1167   1.426   .     S
C564   C565    1.414   .     A
C564   C1166   1.426   1_554 S
C565   C566    1.385   .     A
C565   H569    1.076   .     S
C566   H567    1.084   .     S
C566   C1165   1.394   1_554 S
H580   C148    1.086   1_565 S
O585   Zn600   1.962   .     S
O585   Zn601   1.949   .     S
O585   Zn603   1.932   .     S
O585   Zn602   1.941   .     S
O586   Zn601   1.938   .     S
O587   Zn603   1.947   .     S
O588   Zn602   1.941   .     S
O589   Zn600   1.932   .     S
O590   C413    1.399   1_655 S
O592   Zn600   1.928   .     S
O593   Zn603   1.931   .     S
O594   Zn601   1.932   .     S
O595   Zn602   1.942   .     S
O596   Zn603   1.941   .     S
O597   Zn600   1.932   .     S
O598   Zn601   1.934   .     S
O599   Zn602   1.927   .     S
C604   C614    1.447   .     S
C604   O661    1.272   .     A
C604   O663    1.266   .     A
C605   C630    1.417   .     A
C605   H637    1.075   .     S
C605   C606    1.384   .     A
C606   H650    1.085   .     S
C606   C5      1.389   1_556 S
C607   C613    1.459   .     S
C607   O662    1.290   .     A
C607   O664    1.274   .     A
C608   C609    1.421   .     A
C608   C610    1.403   .     A
C609   C612    1.410   .     A
C609   C631    1.427   .     A
C610   H644    1.084   .     S
C610   C611    1.390   .     A
C611   C623    1.394   .     A
C611   H649    1.083   .     S
C612   H648    1.077   .     S
C612   C623    1.391   .     A
C613   C681    1.348   .     S
C613   H712    1.088   .     S
C614   C747    1.348   1_455 S
C614   O791    1.399   1_455 S
C615   H651    1.083   .     S
C615   C624    1.398   .     A
C615   C622    1.398   .     A
C616   C619    1.450   .     S
C616   C818    1.331   .     S
C616   H847    1.088   .     S
C617   C618    1.434   .     S
C617   C1018   1.331   1_545 S
C617   H1049   1.086   1_545 S
C618   O659    1.280   .     A
C618   O665    1.280   .     A
C619   O666    1.272   .     A
C619   O660    1.274   .     A
C620   O653    1.275   .     A
C620   O655    1.276   .     A
C620   C623    1.448   .     S
C621   O654    1.280   .     A
C621   C622    1.470   .     S
C621   O656    1.284   .     A
C622   C626    1.395   .     A
C624   C629    1.412   .     A
C624   O658    1.384   .     S
C625   O657    1.412   .     S
C625   H640    1.109   .     S
C625   H705    1.112   .     S
C625   H706    1.113   .     S
C626   H635    1.074   .     S
C626   C628    1.407   .     A
C627   H641    1.113   .     S
C627   H642    1.114   .     S
C627   O658    1.410   .     S
C627   H643    1.109   .     S
C628   C630    1.428   .     A
C628   C629    1.421   .     A
C629   C30     1.394   1_556 S
C630   C28     1.426   1_556 S
C631   C632    1.414   .     A
C632   C633    1.385   .     A
C632   H636    1.076   .     S
C633   H634    1.084   .     S
H638   C759    1.112   1_455 S
H639   C759    1.113   1_455 S
H645   C747    1.088   1_455 S
H646   C1018   1.088   1_545 S
H647   C818    1.086   .     S
O652   Zn667   1.962   .     S
O652   Zn668   1.949   .     S
O652   Zn670   1.932   .     S
O652   Zn669   1.941   .     S
O653   Zn668   1.938   .     S
O654   Zn670   1.947   .     S
O655   Zn669   1.941   .     S
O656   Zn667   1.932   .     S
O657   C681    1.399   .     S
O659   Zn667   1.928   .     S
O660   Zn670   1.931   .     S
O661   Zn668   1.932   .     S
O662   Zn669   1.942   .     S
O663   Zn670   1.941   .     S
O664   Zn667   1.932   .     S
O665   Zn668   1.934   .     S
O666   Zn669   1.927   .     S
C671   C681    1.447   .     S
C671   O728    1.272   .     A
C671   O730    1.266   .     A
C672   C697    1.417   .     A
C672   H704    1.075   .     S
C672   C673    1.384   .     A
C673   H717    1.085   .     S
C673   C72     1.389   1_556 S
C674   C680    1.459   .     S
C674   O729    1.290   .     A
C674   O731    1.274   .     A
C675   C676    1.421   .     A
C675   C677    1.403   .     A
C676   C679    1.410   .     A
C676   C698    1.427   .     A
C677   H711    1.084   .     S
C677   C678    1.390   .     A
C678   C690    1.394   .     A
C678   H716    1.083   .     S
C679   H715    1.077   .     S
C679   C690    1.391   .     A
C680   C748    1.348   .     S
C680   H779    1.088   .     S
C682   H718    1.083   .     S
C682   C691    1.398   .     A
C682   C689    1.398   .     A
C683   C686    1.450   .     S
C683   C885    1.331   .     S
C683   H914    1.088   .     S
C684   C685    1.434   .     S
C684   C1085   1.331   1_545 S
C684   H1116   1.086   1_545 S
C685   O726    1.280   .     A
C685   O732    1.280   .     A
C686   O733    1.272   .     A
C686   O727    1.274   .     A
C687   O720    1.275   .     A
C687   O722    1.276   .     A
C687   C690    1.448   .     S
C688   O721    1.280   .     A
C688   C689    1.470   .     S
C688   O723    1.284   .     A
C689   C693    1.395   .     A
C691   C696    1.412   .     A
C691   O725    1.384   .     S
C692   O724    1.412   .     S
C692   H707    1.109   .     S
C692   H772    1.112   .     S
C692   H773    1.113   .     S
C693   H702    1.074   .     S
C693   C695    1.407   .     A
C694   H708    1.113   .     S
C694   H709    1.114   .     S
C694   O725    1.410   .     S
C694   H710    1.109   .     S
C695   C697    1.428   .     A
C695   C696    1.421   .     A
C696   C97     1.394   1_556 S
C697   C95     1.426   1_556 S
C698   C699    1.414   .     A
C699   C700    1.385   .     A
C699   H703    1.076   .     S
C700   H701    1.084   .     S
H713   C1085   1.088   1_545 S
H714   C885    1.086   .     S
O719   Zn734   1.962   .     S
O719   Zn735   1.949   .     S
O719   Zn737   1.932   .     S
O719   Zn736   1.941   .     S
O720   Zn735   1.938   .     S
O721   Zn737   1.947   .     S
O722   Zn736   1.941   .     S
O723   Zn734   1.932   .     S
O724   C748    1.399   .     S
O726   Zn734   1.928   .     S
O727   Zn737   1.931   .     S
O728   Zn735   1.932   .     S
O729   Zn736   1.942   .     S
O730   Zn737   1.941   .     S
O731   Zn734   1.932   .     S
O732   Zn735   1.934   .     S
O733   Zn736   1.927   .     S
C738   C748    1.447   .     S
C738   O795    1.272   .     A
C738   O797    1.266   .     A
C739   C764    1.417   .     A
C739   H771    1.075   .     S
C739   C740    1.384   .     A
C740   H784    1.085   .     S
C740   C139    1.389   1_556 S
C741   C747    1.459   .     S
C741   O796    1.290   .     A
C741   O798    1.274   .     A
C742   C743    1.421   .     A
C742   C744    1.403   .     A
C743   C746    1.410   .     A
C743   C765    1.427   .     A
C744   H778    1.084   .     S
C744   C745    1.390   .     A
C745   C757    1.394   .     A
C745   H783    1.083   .     S
C746   H782    1.077   .     S
C746   C757    1.391   .     A
C747   C614    1.348   1_655 S
C747   H645    1.088   1_655 S
C749   H785    1.083   .     S
C749   C758    1.398   .     A
C749   C756    1.398   .     A
C750   C753    1.450   .     S
C750   C952    1.331   .     S
C750   H981    1.088   .     S
C751   C752    1.434   .     S
C751   C1152   1.331   1_545 S
C751   H1183   1.086   1_545 S
C752   O793    1.280   .     A
C752   O799    1.280   .     A
C753   O800    1.272   .     A
C753   O794    1.274   .     A
C754   O787    1.275   .     A
C754   O789    1.276   .     A
C754   C757    1.448   .     S
C755   O788    1.280   .     A
C755   C756    1.470   .     S
C755   O790    1.284   .     A
C756   C760    1.395   .     A
C758   C763    1.412   .     A
C758   O792    1.384   .     S
C759   O791    1.412   .     S
C759   H774    1.109   .     S
C759   H638    1.112   1_655 S
C759   H639    1.113   1_655 S
C760   H769    1.074   .     S
C760   C762    1.407   .     A
C761   H775    1.113   .     S
C761   H776    1.114   .     S
C761   O792    1.410   .     S
C761   H777    1.109   .     S
C762   C764    1.428   .     A
C762   C763    1.421   .     A
C763   C164    1.394   1_556 S
C764   C162    1.426   1_556 S
C765   C766    1.414   .     A
C766   C767    1.385   .     A
C766   H770    1.076   .     S
C767   H768    1.084   .     S
H780   C1152   1.088   1_545 S
H781   C952    1.086   .     S
O786   Zn801   1.962   .     S
O786   Zn802   1.949   .     S
O786   Zn804   1.932   .     S
O786   Zn803   1.941   .     S
O787   Zn802   1.938   .     S
O788   Zn804   1.947   .     S
O789   Zn803   1.941   .     S
O790   Zn801   1.932   .     S
O791   C614    1.399   1_655 S
O793   Zn801   1.928   .     S
O794   Zn804   1.931   .     S
O795   Zn802   1.932   .     S
O796   Zn803   1.942   .     S
O797   Zn804   1.941   .     S
O798   Zn801   1.932   .     S
O799   Zn802   1.934   .     S
O800   Zn803   1.927   .     S
C805   C815    1.447   .     S
C805   O862    1.272   .     A
C805   O864    1.266   .     A
C806   C831    1.417   .     A
C806   H838    1.075   .     S
C806   C807    1.384   .     A
C807   H851    1.085   .     S
C807   C206    1.389   1_556 S
C808   C814    1.459   .     S
C808   O863    1.290   .     A
C808   O865    1.274   .     A
C809   C810    1.421   .     A
C809   C811    1.403   .     A
C810   C813    1.410   .     A
C810   C832    1.427   .     A
C811   H845    1.084   .     S
C811   C812    1.390   .     A
C812   C824    1.394   .     A
C812   H850    1.083   .     S
C813   H849    1.077   .     S
C813   C824    1.391   .     A
C814   C882    1.348   .     S
C814   H913    1.088   .     S
C815   C948    1.348   1_455 S
C815   O992    1.399   1_455 S
C816   H852    1.083   .     S
C816   C825    1.398   .     A
C816   C823    1.398   .     A
C817   C820    1.450   .     S
C817   C1019   1.331   .     S
C817   H1048   1.088   .     S
C818   C819    1.434   .     S
C819   O860    1.280   .     A
C819   O866    1.280   .     A
C820   O867    1.272   .     A
C820   O861    1.274   .     A
C821   O854    1.275   .     A
C821   O856    1.276   .     A
C821   C824    1.448   .     S
C822   O855    1.280   .     A
C822   C823    1.470   .     S
C822   O857    1.284   .     A
C823   C827    1.395   .     A
C825   C830    1.412   .     A
C825   O859    1.384   .     S
C826   O858    1.412   .     S
C826   H841    1.109   .     S
C826   H906    1.112   .     S
C826   H907    1.113   .     S
C827   H836    1.074   .     S
C827   C829    1.407   .     A
C828   H842    1.113   .     S
C828   H843    1.114   .     S
C828   O859    1.410   .     S
C828   H844    1.109   .     S
C829   C831    1.428   .     A
C829   C830    1.421   .     A
C830   C231    1.394   1_556 S
C831   C229    1.426   1_556 S
C832   C833    1.414   .     A
C833   C834    1.385   .     A
C833   H837    1.076   .     S
C834   H835    1.084   .     S
H839   C960    1.112   1_455 S
H840   C960    1.113   1_455 S
H846   C948    1.088   1_455 S
H848   C1019   1.086   .     S
O853   Zn868   1.962   .     S
O853   Zn869   1.949   .     S
O853   Zn871   1.932   .     S
O853   Zn870   1.941   .     S
O854   Zn869   1.938   .     S
O855   Zn871   1.947   .     S
O856   Zn870   1.941   .     S
O857   Zn868   1.932   .     S
O858   C882    1.399   .     S
O860   Zn868   1.928   .     S
O861   Zn871   1.931   .     S
O862   Zn869   1.932   .     S
O863   Zn870   1.942   .     S
O864   Zn871   1.941   .     S
O865   Zn868   1.932   .     S
O866   Zn869   1.934   .     S
O867   Zn870   1.927   .     S
C872   C882    1.447   .     S
C872   O929    1.272   .     A
C872   O931    1.266   .     A
C873   C898    1.417   .     A
C873   H905    1.075   .     S
C873   C874    1.384   .     A
C874   H918    1.085   .     S
C874   C273    1.389   1_556 S
C875   C881    1.459   .     S
C875   O930    1.290   .     A
C875   O932    1.274   .     A
C876   C877    1.421   .     A
C876   C878    1.403   .     A
C877   C880    1.410   .     A
C877   C899    1.427   .     A
C878   H912    1.084   .     S
C878   C879    1.390   .     A
C879   C891    1.394   .     A
C879   H917    1.083   .     S
C880   H916    1.077   .     S
C880   C891    1.391   .     A
C881   C949    1.348   .     S
C881   H980    1.088   .     S
C883   H919    1.083   .     S
C883   C892    1.398   .     A
C883   C890    1.398   .     A
C884   C887    1.450   .     S
C884   C1086   1.331   .     S
C884   H1115   1.088   .     S
C885   C886    1.434   .     S
C886   O927    1.280   .     A
C886   O933    1.280   .     A
C887   O934    1.272   .     A
C887   O928    1.274   .     A
C888   O921    1.275   .     A
C888   O923    1.276   .     A
C888   C891    1.448   .     S
C889   O922    1.280   .     A
C889   C890    1.470   .     S
C889   O924    1.284   .     A
C890   C894    1.395   .     A
C892   C897    1.412   .     A
C892   O926    1.384   .     S
C893   O925    1.412   .     S
C893   H908    1.109   .     S
C893   H973    1.112   .     S
C893   H974    1.113   .     S
C894   H903    1.074   .     S
C894   C896    1.407   .     A
C895   H909    1.113   .     S
C895   H910    1.114   .     S
C895   O926    1.410   .     S
C895   H911    1.109   .     S
C896   C898    1.428   .     A
C896   C897    1.421   .     A
C897   C298    1.394   1_556 S
C898   C296    1.426   1_556 S
C899   C900    1.414   .     A
C900   C901    1.385   .     A
C900   H904    1.076   .     S
C901   H902    1.084   .     S
H915   C1086   1.086   .     S
O920   Zn935   1.962   .     S
O920   Zn936   1.949   .     S
O920   Zn938   1.932   .     S
O920   Zn937   1.941   .     S
O921   Zn936   1.938   .     S
O922   Zn938   1.947   .     S
O923   Zn937   1.941   .     S
O924   Zn935   1.932   .     S
O925   C949    1.399   .     S
O927   Zn935   1.928   .     S
O928   Zn938   1.931   .     S
O929   Zn936   1.932   .     S
O930   Zn937   1.942   .     S
O931   Zn938   1.941   .     S
O932   Zn935   1.932   .     S
O933   Zn936   1.934   .     S
O934   Zn937   1.927   .     S
C939   C949    1.447   .     S
C939   O996    1.272   .     A
C939   O998    1.266   .     A
C940   C965    1.417   .     A
C940   H972    1.075   .     S
C940   C941    1.384   .     A
C941   H985    1.085   .     S
C941   C340    1.389   1_556 S
C942   C948    1.459   .     S
C942   O997    1.290   .     A
C942   O999    1.274   .     A
C943   C944    1.421   .     A
C943   C945    1.403   .     A
C944   C947    1.410   .     A
C944   C966    1.427   .     A
C945   H979    1.084   .     S
C945   C946    1.390   .     A
C946   C958    1.394   .     A
C946   H984    1.083   .     S
C947   H983    1.077   .     S
C947   C958    1.391   .     A
C948   C815    1.348   1_655 S
C948   H846    1.088   1_655 S
C950   H986    1.083   .     S
C950   C959    1.398   .     A
C950   C957    1.398   .     A
C951   C954    1.450   .     S
C951   C1153   1.331   .     S
C951   H1182   1.088   .     S
C952   C953    1.434   .     S
C953   O994    1.280   .     A
C953   O1000   1.280   .     A
C954   O1001   1.272   .     A
C954   O995    1.274   .     A
C955   O988    1.275   .     A
C955   O990    1.276   .     A
C955   C958    1.448   .     S
C956   O989    1.280   .     A
C956   C957    1.470   .     S
C956   O991    1.284   .     A
C957   C961    1.395   .     A
C959   C964    1.412   .     A
C959   O993    1.384   .     S
C960   O992    1.412   .     S
C960   H975    1.109   .     S
C960   H839    1.112   1_655 S
C960   H840    1.113   1_655 S
C961   H970    1.074   .     S
C961   C963    1.407   .     A
C962   H976    1.113   .     S
C962   H977    1.114   .     S
C962   O993    1.410   .     S
C962   H978    1.109   .     S
C963   C965    1.428   .     A
C963   C964    1.421   .     A
C964   C365    1.394   1_556 S
C965   C363    1.426   1_556 S
C966   C967    1.414   .     A
C967   C968    1.385   .     A
C967   H971    1.076   .     S
C968   H969    1.084   .     S
H982   C1153   1.086   .     S
O987   Zn1002  1.962   .     S
O987   Zn1003  1.949   .     S
O987   Zn1005  1.932   .     S
O987   Zn1004  1.941   .     S
O988   Zn1003  1.938   .     S
O989   Zn1005  1.947   .     S
O990   Zn1004  1.941   .     S
O991   Zn1002  1.932   .     S
O992   C815    1.399   1_655 S
O994   Zn1002  1.928   .     S
O995   Zn1005  1.931   .     S
O996   Zn1003  1.932   .     S
O997   Zn1004  1.942   .     S
O998   Zn1005  1.941   .     S
O999   Zn1002  1.932   .     S
O1000  Zn1003  1.934   .     S
O1001  Zn1004  1.927   .     S
C1006  C1016   1.447   .     S
C1006  O1063   1.272   .     A
C1006  O1065   1.266   .     A
C1007  C1032   1.417   .     A
C1007  H1039   1.075   .     S
C1007  C1008   1.384   .     A
C1008  H1052   1.085   .     S
C1008  C407    1.389   1_556 S
C1009  C1015   1.459   .     S
C1009  O1064   1.290   .     A
C1009  O1066   1.274   .     A
C1010  C1011   1.421   .     A
C1010  C1012   1.403   .     A
C1011  C1014   1.410   .     A
C1011  C1033   1.427   .     A
C1012  H1046   1.084   .     S
C1012  C1013   1.390   .     A
C1013  C1025   1.394   .     A
C1013  H1051   1.083   .     S
C1014  H1050   1.077   .     S
C1014  C1025   1.391   .     A
C1015  C1083   1.348   .     S
C1015  H1114   1.088   .     S
C1016  C1149   1.348   1_455 S
C1016  O1193   1.399   1_455 S
C1017  H1053   1.083   .     S
C1017  C1026   1.398   .     A
C1017  C1024   1.398   .     A
C1018  C1021   1.450   .     S
C1018  C617    1.331   1_565 S
C1018  H646    1.088   1_565 S
C1019  C1020   1.434   .     S
C1020  O1061   1.280   .     A
C1020  O1067   1.280   .     A
C1021  O1068   1.272   .     A
C1021  O1062   1.274   .     A
C1022  O1055   1.275   .     A
C1022  O1057   1.276   .     A
C1022  C1025   1.448   .     S
C1023  O1056   1.280   .     A
C1023  C1024   1.470   .     S
C1023  O1058   1.284   .     A
C1024  C1028   1.395   .     A
C1026  C1031   1.412   .     A
C1026  O1060   1.384   .     S
C1027  O1059   1.412   .     S
C1027  H1042   1.109   .     S
C1027  H1107   1.112   .     S
C1027  H1108   1.113   .     S
C1028  H1037   1.074   .     S
C1028  C1030   1.407   .     A
C1029  H1043   1.113   .     S
C1029  H1044   1.114   .     S
C1029  O1060   1.410   .     S
C1029  H1045   1.109   .     S
C1030  C1032   1.428   .     A
C1030  C1031   1.421   .     A
C1031  C432    1.394   1_556 S
C1032  C430    1.426   1_556 S
C1033  C1034   1.414   .     A
C1034  C1035   1.385   .     A
C1034  H1038   1.076   .     S
C1035  H1036   1.084   .     S
H1040  C1161   1.112   1_455 S
H1041  C1161   1.113   1_455 S
H1047  C1149   1.088   1_455 S
H1049  C617    1.086   1_565 S
O1054  Zn1069  1.962   .     S
O1054  Zn1070  1.949   .     S
O1054  Zn1072  1.932   .     S
O1054  Zn1071  1.941   .     S
O1055  Zn1070  1.938   .     S
O1056  Zn1072  1.947   .     S
O1057  Zn1071  1.941   .     S
O1058  Zn1069  1.932   .     S
O1059  C1083   1.399   .     S
O1061  Zn1069  1.928   .     S
O1062  Zn1072  1.931   .     S
O1063  Zn1070  1.932   .     S
O1064  Zn1071  1.942   .     S
O1065  Zn1072  1.941   .     S
O1066  Zn1069  1.932   .     S
O1067  Zn1070  1.934   .     S
O1068  Zn1071  1.927   .     S
C1073  C1083   1.447   .     S
C1073  O1130   1.272   .     A
C1073  O1132   1.266   .     A
C1074  C1099   1.417   .     A
C1074  H1106   1.075   .     S
C1074  C1075   1.384   .     A
C1075  H1119   1.085   .     S
C1075  C474    1.389   1_556 S
C1076  C1082   1.459   .     S
C1076  O1131   1.290   .     A
C1076  O1133   1.274   .     A
C1077  C1078   1.421   .     A
C1077  C1079   1.403   .     A
C1078  C1081   1.410   .     A
C1078  C1100   1.427   .     A
C1079  H1113   1.084   .     S
C1079  C1080   1.390   .     A
C1080  C1092   1.394   .     A
C1080  H1118   1.083   .     S
C1081  H1117   1.077   .     S
C1081  C1092   1.391   .     A
C1082  C1150   1.348   .     S
C1082  H1181   1.088   .     S
C1084  H1120   1.083   .     S
C1084  C1093   1.398   .     A
C1084  C1091   1.398   .     A
C1085  C1088   1.450   .     S
C1085  C684    1.331   1_565 S
C1085  H713    1.088   1_565 S
C1086  C1087   1.434   .     S
C1087  O1128   1.280   .     A
C1087  O1134   1.280   .     A
C1088  O1135   1.272   .     A
C1088  O1129   1.274   .     A
C1089  O1122   1.275   .     A
C1089  O1124   1.276   .     A
C1089  C1092   1.448   .     S
C1090  O1123   1.280   .     A
C1090  C1091   1.470   .     S
C1090  O1125   1.284   .     A
C1091  C1095   1.395   .     A
C1093  C1098   1.412   .     A
C1093  O1127   1.384   .     S
C1094  O1126   1.412   .     S
C1094  H1109   1.109   .     S
C1094  H1174   1.112   .     S
C1094  H1175   1.113   .     S
C1095  H1104   1.074   .     S
C1095  C1097   1.407   .     A
C1096  H1110   1.113   .     S
C1096  H1111   1.114   .     S
C1096  O1127   1.410   .     S
C1096  H1112   1.109   .     S
C1097  C1099   1.428   .     A
C1097  C1098   1.421   .     A
C1098  C499    1.394   1_556 S
C1099  C497    1.426   1_556 S
C1100  C1101   1.414   .     A
C1101  C1102   1.385   .     A
C1101  H1105   1.076   .     S
C1102  H1103   1.084   .     S
H1116  C684    1.086   1_565 S
O1121  Zn1136  1.962   .     S
O1121  Zn1137  1.949   .     S
O1121  Zn1139  1.932   .     S
O1121  Zn1138  1.941   .     S
O1122  Zn1137  1.938   .     S
O1123  Zn1139  1.947   .     S
O1124  Zn1138  1.941   .     S
O1125  Zn1136  1.932   .     S
O1126  C1150   1.399   .     S
O1128  Zn1136  1.928   .     S
O1129  Zn1139  1.931   .     S
O1130  Zn1137  1.932   .     S
O1131  Zn1138  1.942   .     S
O1132  Zn1139  1.941   .     S
O1133  Zn1136  1.932   .     S
O1134  Zn1137  1.934   .     S
O1135  Zn1138  1.927   .     S
C1140  C1150   1.447   .     S
C1140  O1197   1.272   .     A
C1140  O1199   1.266   .     A
C1141  C1166   1.417   .     A
C1141  H1173   1.075   .     S
C1141  C1142   1.384   .     A
C1142  H1186   1.085   .     S
C1142  C541    1.389   1_556 S
C1143  C1149   1.459   .     S
C1143  O1198   1.290   .     A
C1143  O1200   1.274   .     A
C1144  C1145   1.421   .     A
C1144  C1146   1.403   .     A
C1145  C1148   1.410   .     A
C1145  C1167   1.427   .     A
C1146  H1180   1.084   .     S
C1146  C1147   1.390   .     A
C1147  C1159   1.394   .     A
C1147  H1185   1.083   .     S
C1148  H1184   1.077   .     S
C1148  C1159   1.391   .     A
C1149  C1016   1.348   1_655 S
C1149  H1047   1.088   1_655 S
C1151  H1187   1.083   .     S
C1151  C1160   1.398   .     A
C1151  C1158   1.398   .     A
C1152  C1155   1.450   .     S
C1152  C751    1.331   1_565 S
C1152  H780    1.088   1_565 S
C1153  C1154   1.434   .     S
C1154  O1195   1.280   .     A
C1154  O1201   1.280   .     A
C1155  O1202   1.272   .     A
C1155  O1196   1.274   .     A
C1156  O1189   1.275   .     A
C1156  O1191   1.276   .     A
C1156  C1159   1.448   .     S
C1157  O1190   1.280   .     A
C1157  C1158   1.470   .     S
C1157  O1192   1.284   .     A
C1158  C1162   1.395   .     A
C1160  C1165   1.412   .     A
C1160  O1194   1.384   .     S
C1161  O1193   1.412   .     S
C1161  H1176   1.109   .     S
C1161  H1040   1.112   1_655 S
C1161  H1041   1.113   1_655 S
C1162  H1171   1.074   .     S
C1162  C1164   1.407   .     A
C1163  H1177   1.113   .     S
C1163  H1178   1.114   .     S
C1163  O1194   1.410   .     S
C1163  H1179   1.109   .     S
C1164  C1166   1.428   .     A
C1164  C1165   1.421   .     A
C1165  C566    1.394   1_556 S
C1166  C564    1.426   1_556 S
C1167  C1168   1.414   .     A
C1168  C1169   1.385   .     A
C1168  H1172   1.076   .     S
C1169  H1170   1.084   .     S
H1183  C751    1.086   1_565 S
O1188  Zn1203  1.962   .     S
O1188  Zn1204  1.949   .     S
O1188  Zn1206  1.932   .     S
O1188  Zn1205  1.941   .     S
O1189  Zn1204  1.938   .     S
O1190  Zn1206  1.947   .     S
O1191  Zn1205  1.941   .     S
O1192  Zn1203  1.932   .     S
O1193  C1016   1.399   1_655 S
O1195  Zn1203  1.928   .     S
O1196  Zn1206  1.931   .     S
O1197  Zn1204  1.932   .     S
O1198  Zn1205  1.942   .     S
O1199  Zn1206  1.941   .     S
O1200  Zn1203  1.932   .     S
O1201  Zn1204  1.934   .     S
O1202  Zn1205  1.927   .     S
