data_str_m1_o10_o16_pcu_sym.199
_audit_creation_date              2020-01-03
_audit_creation_method            'Materials Studio'
_symmetry_space_group_name_H-M    'P1'
_symmetry_Int_Tables_number       1
_symmetry_cell_setting            triclinic
loop_
_symmetry_equiv_pos_as_xyz
  x,y,z
_cell_length_a                    32.7057
_cell_length_b                    32.6388
_cell_length_c                    30.9004
_cell_angle_alpha                 96.5599
_cell_angle_beta                  75.0110
_cell_angle_gamma                 98.5085
loop_
_atom_site_label
_atom_site_type_symbol
_atom_site_fract_x
_atom_site_fract_y
_atom_site_fract_z
_atom_site_U_iso_or_equiv
_atom_site_adp_type
_atom_site_occupancy
C1     C     0.05320   0.16014   0.25917   0.00000  Uiso   1.00
C2     C     0.18644   0.16665   0.05332   0.00000  Uiso   1.00
C3     C     0.19328   0.09524   0.06427   0.00000  Uiso   1.00
C4     C     0.28061   0.17358   0.24036   0.00000  Uiso   1.00
C5     C     0.14308   0.19484   0.42015   0.00000  Uiso   1.00
C6     C     0.32601   0.17561   0.23759   0.00000  Uiso   1.00
C7     C     0.00797   0.15594   0.26516   0.00000  Uiso   1.00
C8     C     0.18025   0.32269   0.23640   0.00000  Uiso   1.00
C9     C     0.15144   0.01213   0.26444   0.00000  Uiso   1.00
C10    C     0.15583   0.05616   0.26054   0.00000  Uiso   1.00
C11    C     0.17654   0.27793   0.24016   0.00000  Uiso   1.00
C12    C     0.13195   0.24589   0.48525   0.00000  Uiso   1.00
C13    C     0.18508   0.14804   0.12920   0.00000  Uiso   1.00
C14    C     0.14854   0.18469   0.37109   0.00000  Uiso   1.00
C15    C     0.18422   0.08227   0.02301   0.00000  Uiso   1.00
C16    C     0.19242   0.13744   0.08064   0.00000  Uiso   1.00
C17    C     0.13448   0.23532   0.43898   0.00000  Uiso   1.00
C18    C     0.31515   0.12942   0.30223   0.00000  Uiso   1.00
C19    C     0.21662   0.00947   0.20082   0.00000  Uiso   1.00
C20    C     0.11871   0.28685   0.00841   0.00000  Uiso   1.00
C21    C     0.14235   0.21783   0.01042   0.00000  Uiso   1.00
C22    C     0.15544   0.17921   0.49097   0.00000  Uiso   1.00
C23    C     0.15005   0.16576   0.44748   0.00000  Uiso   1.00
C24    C     0.17089   0.15239   0.01472   0.00000  Uiso   1.00
C25    C     0.17198   0.10987   0.49850   0.00000  Uiso   1.00
C26    C     0.16058   0.09522   0.45819   0.00000  Uiso   1.00
C27    C     0.15025   0.12327   0.43291   0.00000  Uiso   1.00
H28    H     0.18540   0.04984   0.01106   0.00000  Uiso   1.00
H29    H     0.20361   0.02426   0.17748   0.00000  Uiso   1.00
H30    H     0.23689   0.03347   0.21707   0.00000  Uiso   1.00
H31    H     0.10091   0.01656   0.31369   0.00000  Uiso   1.00
H32    H     0.15183   0.04838   0.41483   0.00000  Uiso   1.00
H33    H     0.21892   0.21289   0.08010   0.00000  Uiso   1.00
H34    H     0.12618   0.29118   0.42719   0.00000  Uiso   1.00
H35    H     0.08697   0.29081   0.00388   0.00000  Uiso   1.00
H36    H     0.11627   0.28882   0.04510   0.00000  Uiso   1.00
H37    H     0.14263   0.31280   0.49427   0.00000  Uiso   1.00
H38    H     0.13798   0.22587   0.04604   0.00000  Uiso   1.00
H39    H     0.14049   0.11097   0.40267   0.00000  Uiso   1.00
H40    H     0.01470   0.19387   0.21203   0.00000  Uiso   1.00
H41    H     0.21497   0.07944   0.11228   0.00000  Uiso   1.00
H42    H     0.00266   0.11703   0.31959   0.00000  Uiso   1.00
H43    H     0.29364   0.14822   0.32804   0.00000  Uiso   1.00
H44    H     0.29667   0.10223   0.28808   0.00000  Uiso   1.00
H45    H     0.23746   0.32013   0.18040   0.00000  Uiso   1.00
O46    O     0.16667   0.16667   0.25000   0.00000  Uiso   1.00
O47    O     0.15451   0.12637   0.15458   0.00000  Uiso   1.00
O48    O     0.12940   0.20391   0.34968   0.00000  Uiso   1.00
O49    O     0.20824   0.17759   0.14606   0.00000  Uiso   1.00
O50    O     0.17451   0.15880   0.34968   0.00000  Uiso   1.00
O51    O     0.20206   0.06553   0.08791   0.00000  Uiso   1.00
O52    O     0.11791   0.32775   0.29688   0.00000  Uiso   1.00
O53    O     0.16027   0.05347   0.44377   0.00000  Uiso   1.00
O54    O     0.19672   0.20871   0.06300   0.00000  Uiso   1.00
O55    O     0.12865   0.26332   0.41125   0.00000  Uiso   1.00
O56    O     0.17930   0.08019   0.28213   0.00000  Uiso   1.00
O57    O     0.14632   0.26085   0.27013   0.00000  Uiso   1.00
O58    O     0.07412   0.13291   0.23413   0.00000  Uiso   1.00
O59    O     0.26693   0.19272   0.21360   0.00000  Uiso   1.00
O60    O     0.07071   0.18878   0.28213   0.00000  Uiso   1.00
O61    O     0.25491   0.15226   0.27013   0.00000  Uiso   1.00
O62    O     0.13760   0.06944   0.23413   0.00000  Uiso   1.00
O63    O     0.20345   0.25620   0.21360   0.00000  Uiso   1.00
Zn64   Zn    0.19338   0.13994   0.28734   0.00000  Uiso   1.00
Zn65   Zn    0.13379   0.12458   0.21875   0.00000  Uiso   1.00
Zn66   Zn    0.21056   0.19775   0.20657   0.00000  Uiso   1.00
Zn67   Zn    0.12893   0.20439   0.28733   0.00000  Uiso   1.00
C68    C     0.38654   0.16014   0.25917   0.00000  Uiso   1.00
C69    C     0.51977   0.16665   0.05332   0.00000  Uiso   1.00
C70    C     0.52661   0.09524   0.06427   0.00000  Uiso   1.00
C71    C     0.61395   0.17358   0.24036   0.00000  Uiso   1.00
C72    C     0.47642   0.19484   0.42015   0.00000  Uiso   1.00
C73    C     0.65934   0.17561   0.23759   0.00000  Uiso   1.00
C74    C     0.34130   0.15594   0.26516   0.00000  Uiso   1.00
C75    C     0.51358   0.32269   0.23640   0.00000  Uiso   1.00
C76    C     0.48477   0.01213   0.26444   0.00000  Uiso   1.00
C77    C     0.48916   0.05616   0.26054   0.00000  Uiso   1.00
C78    C     0.50987   0.27793   0.24016   0.00000  Uiso   1.00
C79    C     0.46528   0.24589   0.48525   0.00000  Uiso   1.00
C80    C     0.51842   0.14804   0.12920   0.00000  Uiso   1.00
C81    C     0.48188   0.18469   0.37109   0.00000  Uiso   1.00
C82    C     0.51756   0.08227   0.02301   0.00000  Uiso   1.00
C83    C     0.52575   0.13744   0.08064   0.00000  Uiso   1.00
C84    C     0.46781   0.23532   0.43898   0.00000  Uiso   1.00
C85    C     0.64849   0.12942   0.30223   0.00000  Uiso   1.00
C86    C     0.54996   0.00947   0.20082   0.00000  Uiso   1.00
C87    C     0.45204   0.28685   0.00841   0.00000  Uiso   1.00
C88    C     0.47569   0.21783   0.01042   0.00000  Uiso   1.00
C89    C     0.48877   0.17921   0.49097   0.00000  Uiso   1.00
C90    C     0.48339   0.16576   0.44748   0.00000  Uiso   1.00
C91    C     0.50422   0.15239   0.01472   0.00000  Uiso   1.00
C92    C     0.50531   0.10987   0.49850   0.00000  Uiso   1.00
C93    C     0.49392   0.09522   0.45819   0.00000  Uiso   1.00
C94    C     0.48358   0.12327   0.43291   0.00000  Uiso   1.00
H95    H     0.51873   0.04984   0.01106   0.00000  Uiso   1.00
H96    H     0.53694   0.02426   0.17748   0.00000  Uiso   1.00
H97    H     0.57022   0.03347   0.21707   0.00000  Uiso   1.00
H98    H     0.43424   0.01656   0.31369   0.00000  Uiso   1.00
H99    H     0.48517   0.04838   0.41483   0.00000  Uiso   1.00
H100   H     0.55226   0.21289   0.08010   0.00000  Uiso   1.00
H101   H     0.45951   0.29118   0.42719   0.00000  Uiso   1.00
H102   H     0.42030   0.29081   0.00388   0.00000  Uiso   1.00
H103   H     0.44960   0.28882   0.04510   0.00000  Uiso   1.00
H104   H     0.47596   0.31280   0.49427   0.00000  Uiso   1.00
H105   H     0.47131   0.22587   0.04604   0.00000  Uiso   1.00
H106   H     0.47383   0.11097   0.40267   0.00000  Uiso   1.00
H107   H     0.34804   0.19387   0.21203   0.00000  Uiso   1.00
H108   H     0.54831   0.07944   0.11228   0.00000  Uiso   1.00
H109   H     0.33600   0.11703   0.31959   0.00000  Uiso   1.00
H110   H     0.62698   0.14822   0.32804   0.00000  Uiso   1.00
H111   H     0.63000   0.10223   0.28808   0.00000  Uiso   1.00
H112   H     0.57079   0.32013   0.18040   0.00000  Uiso   1.00
O113   O     0.50000   0.16667   0.25000   0.00000  Uiso   1.00
O114   O     0.48784   0.12637   0.15458   0.00000  Uiso   1.00
O115   O     0.46274   0.20391   0.34968   0.00000  Uiso   1.00
O116   O     0.54157   0.17759   0.14606   0.00000  Uiso   1.00
O117   O     0.50785   0.15880   0.34968   0.00000  Uiso   1.00
O118   O     0.53539   0.06553   0.08791   0.00000  Uiso   1.00
O119   O     0.45124   0.32775   0.29688   0.00000  Uiso   1.00
O120   O     0.49360   0.05347   0.44377   0.00000  Uiso   1.00
O121   O     0.53005   0.20871   0.06300   0.00000  Uiso   1.00
O122   O     0.46198   0.26332   0.41125   0.00000  Uiso   1.00
O123   O     0.51264   0.08019   0.28213   0.00000  Uiso   1.00
O124   O     0.47965   0.26085   0.27013   0.00000  Uiso   1.00
O125   O     0.40745   0.13291   0.23413   0.00000  Uiso   1.00
O126   O     0.60026   0.19272   0.21360   0.00000  Uiso   1.00
O127   O     0.40405   0.18878   0.28213   0.00000  Uiso   1.00
O128   O     0.58824   0.15226   0.27013   0.00000  Uiso   1.00
O129   O     0.47093   0.06944   0.23413   0.00000  Uiso   1.00
O130   O     0.53678   0.25620   0.21360   0.00000  Uiso   1.00
Zn131  Zn    0.52672   0.13994   0.28734   0.00000  Uiso   1.00
Zn132  Zn    0.46713   0.12458   0.21875   0.00000  Uiso   1.00
Zn133  Zn    0.54389   0.19775   0.20657   0.00000  Uiso   1.00
Zn134  Zn    0.46226   0.20439   0.28733   0.00000  Uiso   1.00
C135   C     0.71987   0.16014   0.25917   0.00000  Uiso   1.00
C136   C     0.85310   0.16665   0.05332   0.00000  Uiso   1.00
C137   C     0.85994   0.09524   0.06427   0.00000  Uiso   1.00
C138   C     0.94728   0.17358   0.24036   0.00000  Uiso   1.00
C139   C     0.80975   0.19484   0.42015   0.00000  Uiso   1.00
C140   C     0.99267   0.17561   0.23759   0.00000  Uiso   1.00
C141   C     0.67464   0.15594   0.26516   0.00000  Uiso   1.00
C142   C     0.84691   0.32269   0.23640   0.00000  Uiso   1.00
C143   C     0.81811   0.01213   0.26444   0.00000  Uiso   1.00
C144   C     0.82250   0.05616   0.26054   0.00000  Uiso   1.00
C145   C     0.84321   0.27793   0.24016   0.00000  Uiso   1.00
C146   C     0.79861   0.24589   0.48525   0.00000  Uiso   1.00
C147   C     0.85175   0.14804   0.12920   0.00000  Uiso   1.00
C148   C     0.81521   0.18469   0.37109   0.00000  Uiso   1.00
C149   C     0.85089   0.08227   0.02301   0.00000  Uiso   1.00
C150   C     0.85909   0.13744   0.08064   0.00000  Uiso   1.00
C151   C     0.80114   0.23532   0.43898   0.00000  Uiso   1.00
C152   C     0.98182   0.12942   0.30223   0.00000  Uiso   1.00
C153   C     0.88329   0.00947   0.20082   0.00000  Uiso   1.00
C154   C     0.78537   0.28685   0.00841   0.00000  Uiso   1.00
C155   C     0.80902   0.21783   0.01042   0.00000  Uiso   1.00
C156   C     0.82210   0.17921   0.49097   0.00000  Uiso   1.00
C157   C     0.81672   0.16576   0.44748   0.00000  Uiso   1.00
C158   C     0.83756   0.15239   0.01472   0.00000  Uiso   1.00
C159   C     0.83864   0.10987   0.49850   0.00000  Uiso   1.00
C160   C     0.82725   0.09522   0.45819   0.00000  Uiso   1.00
C161   C     0.81692   0.12327   0.43291   0.00000  Uiso   1.00
H162   H     0.85206   0.04984   0.01106   0.00000  Uiso   1.00
H163   H     0.87028   0.02426   0.17748   0.00000  Uiso   1.00
H164   H     0.90355   0.03347   0.21707   0.00000  Uiso   1.00
H165   H     0.76757   0.01656   0.31369   0.00000  Uiso   1.00
H166   H     0.81850   0.04838   0.41483   0.00000  Uiso   1.00
H167   H     0.88559   0.21289   0.08010   0.00000  Uiso   1.00
H168   H     0.79284   0.29118   0.42719   0.00000  Uiso   1.00
H169   H     0.75363   0.29081   0.00388   0.00000  Uiso   1.00
H170   H     0.78293   0.28882   0.04510   0.00000  Uiso   1.00
H171   H     0.80929   0.31280   0.49427   0.00000  Uiso   1.00
H172   H     0.80464   0.22587   0.04604   0.00000  Uiso   1.00
H173   H     0.80716   0.11097   0.40267   0.00000  Uiso   1.00
H174   H     0.68137   0.19387   0.21203   0.00000  Uiso   1.00
H175   H     0.88164   0.07944   0.11228   0.00000  Uiso   1.00
H176   H     0.66933   0.11703   0.31959   0.00000  Uiso   1.00
H177   H     0.96031   0.14822   0.32804   0.00000  Uiso   1.00
H178   H     0.96334   0.10223   0.28808   0.00000  Uiso   1.00
H179   H     0.90413   0.32013   0.18040   0.00000  Uiso   1.00
O180   O     0.83333   0.16667   0.25000   0.00000  Uiso   1.00
O181   O     0.82118   0.12637   0.15458   0.00000  Uiso   1.00
O182   O     0.79607   0.20391   0.34968   0.00000  Uiso   1.00
O183   O     0.87491   0.17759   0.14606   0.00000  Uiso   1.00
O184   O     0.84118   0.15880   0.34968   0.00000  Uiso   1.00
O185   O     0.86873   0.06553   0.08791   0.00000  Uiso   1.00
O186   O     0.78458   0.32775   0.29688   0.00000  Uiso   1.00
O187   O     0.82694   0.05347   0.44377   0.00000  Uiso   1.00
O188   O     0.86338   0.20871   0.06300   0.00000  Uiso   1.00
O189   O     0.79531   0.26332   0.41125   0.00000  Uiso   1.00
O190   O     0.84597   0.08019   0.28213   0.00000  Uiso   1.00
O191   O     0.81298   0.26085   0.27013   0.00000  Uiso   1.00
O192   O     0.74078   0.13291   0.23413   0.00000  Uiso   1.00
O193   O     0.93360   0.19272   0.21360   0.00000  Uiso   1.00
O194   O     0.73738   0.18878   0.28213   0.00000  Uiso   1.00
O195   O     0.92158   0.15226   0.27013   0.00000  Uiso   1.00
O196   O     0.80426   0.06944   0.23413   0.00000  Uiso   1.00
O197   O     0.87012   0.25620   0.21360   0.00000  Uiso   1.00
Zn198  Zn    0.86005   0.13994   0.28734   0.00000  Uiso   1.00
Zn199  Zn    0.80046   0.12458   0.21875   0.00000  Uiso   1.00
Zn200  Zn    0.87723   0.19775   0.20657   0.00000  Uiso   1.00
Zn201  Zn    0.79560   0.20439   0.28733   0.00000  Uiso   1.00
C202   C     0.05320   0.49347   0.25917   0.00000  Uiso   1.00
C203   C     0.18644   0.49998   0.05332   0.00000  Uiso   1.00
C204   C     0.19328   0.42857   0.06427   0.00000  Uiso   1.00
C205   C     0.28061   0.50692   0.24036   0.00000  Uiso   1.00
C206   C     0.14308   0.52817   0.42015   0.00000  Uiso   1.00
C207   C     0.32601   0.50895   0.23759   0.00000  Uiso   1.00
C208   C     0.00797   0.48927   0.26516   0.00000  Uiso   1.00
C209   C     0.18025   0.65602   0.23640   0.00000  Uiso   1.00
C210   C     0.15144   0.34546   0.26444   0.00000  Uiso   1.00
C211   C     0.15583   0.38949   0.26054   0.00000  Uiso   1.00
C212   C     0.17654   0.61126   0.24016   0.00000  Uiso   1.00
C213   C     0.13195   0.57922   0.48525   0.00000  Uiso   1.00
C214   C     0.18508   0.48137   0.12920   0.00000  Uiso   1.00
C215   C     0.14854   0.51803   0.37109   0.00000  Uiso   1.00
C216   C     0.18422   0.41560   0.02301   0.00000  Uiso   1.00
C217   C     0.19242   0.47077   0.08064   0.00000  Uiso   1.00
C218   C     0.13448   0.56865   0.43898   0.00000  Uiso   1.00
C219   C     0.31515   0.46275   0.30223   0.00000  Uiso   1.00
C220   C     0.21662   0.34280   0.20082   0.00000  Uiso   1.00
C221   C     0.11871   0.62019   0.00841   0.00000  Uiso   1.00
C222   C     0.14235   0.55116   0.01042   0.00000  Uiso   1.00
C223   C     0.15544   0.51255   0.49097   0.00000  Uiso   1.00
C224   C     0.15005   0.49910   0.44748   0.00000  Uiso   1.00
C225   C     0.17089   0.48572   0.01472   0.00000  Uiso   1.00
C226   C     0.17198   0.44320   0.49850   0.00000  Uiso   1.00
C227   C     0.16058   0.42855   0.45819   0.00000  Uiso   1.00
C228   C     0.15025   0.45661   0.43291   0.00000  Uiso   1.00
H229   H     0.18540   0.38317   0.01106   0.00000  Uiso   1.00
H230   H     0.20361   0.35760   0.17748   0.00000  Uiso   1.00
H231   H     0.23689   0.36680   0.21707   0.00000  Uiso   1.00
H232   H     0.10091   0.34989   0.31369   0.00000  Uiso   1.00
H233   H     0.15183   0.38171   0.41483   0.00000  Uiso   1.00
H234   H     0.21892   0.54623   0.08010   0.00000  Uiso   1.00
H235   H     0.12618   0.62451   0.42719   0.00000  Uiso   1.00
H236   H     0.08697   0.62414   0.00388   0.00000  Uiso   1.00
H237   H     0.11627   0.62215   0.04510   0.00000  Uiso   1.00
H238   H     0.14263   0.64613   0.49427   0.00000  Uiso   1.00
H239   H     0.13798   0.55920   0.04604   0.00000  Uiso   1.00
H240   H     0.14049   0.44431   0.40267   0.00000  Uiso   1.00
H241   H     0.01470   0.52720   0.21203   0.00000  Uiso   1.00
H242   H     0.21497   0.41277   0.11228   0.00000  Uiso   1.00
H243   H     0.00266   0.45037   0.31959   0.00000  Uiso   1.00
H244   H     0.29364   0.48155   0.32804   0.00000  Uiso   1.00
H245   H     0.29667   0.43556   0.28808   0.00000  Uiso   1.00
H246   H     0.23746   0.65347   0.18040   0.00000  Uiso   1.00
O247   O     0.16667   0.50000   0.25000   0.00000  Uiso   1.00
O248   O     0.15451   0.45970   0.15458   0.00000  Uiso   1.00
O249   O     0.12940   0.53724   0.34968   0.00000  Uiso   1.00
O250   O     0.20824   0.51092   0.14606   0.00000  Uiso   1.00
O251   O     0.17451   0.49213   0.34968   0.00000  Uiso   1.00
O252   O     0.20206   0.39886   0.08791   0.00000  Uiso   1.00
O253   O     0.11791   0.66108   0.29688   0.00000  Uiso   1.00
O254   O     0.16027   0.38680   0.44377   0.00000  Uiso   1.00
O255   O     0.19672   0.54204   0.06300   0.00000  Uiso   1.00
O256   O     0.12865   0.59666   0.41125   0.00000  Uiso   1.00
O257   O     0.17930   0.41352   0.28213   0.00000  Uiso   1.00
O258   O     0.14632   0.59418   0.27013   0.00000  Uiso   1.00
O259   O     0.07412   0.46625   0.23413   0.00000  Uiso   1.00
O260   O     0.26693   0.52605   0.21360   0.00000  Uiso   1.00
O261   O     0.07071   0.52211   0.28213   0.00000  Uiso   1.00
O262   O     0.25491   0.48559   0.27013   0.00000  Uiso   1.00
O263   O     0.13760   0.40277   0.23413   0.00000  Uiso   1.00
O264   O     0.20345   0.58953   0.21360   0.00000  Uiso   1.00
Zn265  Zn    0.19338   0.47327   0.28734   0.00000  Uiso   1.00
Zn266  Zn    0.13379   0.45791   0.21875   0.00000  Uiso   1.00
Zn267  Zn    0.21056   0.53109   0.20657   0.00000  Uiso   1.00
Zn268  Zn    0.12893   0.53773   0.28733   0.00000  Uiso   1.00
C269   C     0.38654   0.49347   0.25917   0.00000  Uiso   1.00
C270   C     0.51977   0.49998   0.05332   0.00000  Uiso   1.00
C271   C     0.52661   0.42857   0.06427   0.00000  Uiso   1.00
C272   C     0.61395   0.50692   0.24036   0.00000  Uiso   1.00
C273   C     0.47642   0.52817   0.42015   0.00000  Uiso   1.00
C274   C     0.65934   0.50895   0.23759   0.00000  Uiso   1.00
C275   C     0.34130   0.48927   0.26516   0.00000  Uiso   1.00
C276   C     0.51358   0.65602   0.23640   0.00000  Uiso   1.00
C277   C     0.48477   0.34546   0.26444   0.00000  Uiso   1.00
C278   C     0.48916   0.38949   0.26054   0.00000  Uiso   1.00
C279   C     0.50987   0.61126   0.24016   0.00000  Uiso   1.00
C280   C     0.46528   0.57922   0.48525   0.00000  Uiso   1.00
C281   C     0.51842   0.48137   0.12920   0.00000  Uiso   1.00
C282   C     0.48188   0.51803   0.37109   0.00000  Uiso   1.00
C283   C     0.51756   0.41560   0.02301   0.00000  Uiso   1.00
C284   C     0.52575   0.47077   0.08064   0.00000  Uiso   1.00
C285   C     0.46781   0.56865   0.43898   0.00000  Uiso   1.00
C286   C     0.64849   0.46275   0.30223   0.00000  Uiso   1.00
C287   C     0.54996   0.34280   0.20082   0.00000  Uiso   1.00
C288   C     0.45204   0.62019   0.00841   0.00000  Uiso   1.00
C289   C     0.47569   0.55116   0.01042   0.00000  Uiso   1.00
C290   C     0.48877   0.51255   0.49097   0.00000  Uiso   1.00
C291   C     0.48339   0.49910   0.44748   0.00000  Uiso   1.00
C292   C     0.50422   0.48572   0.01472   0.00000  Uiso   1.00
C293   C     0.50531   0.44320   0.49850   0.00000  Uiso   1.00
C294   C     0.49392   0.42855   0.45819   0.00000  Uiso   1.00
C295   C     0.48358   0.45661   0.43291   0.00000  Uiso   1.00
H296   H     0.51873   0.38317   0.01106   0.00000  Uiso   1.00
H297   H     0.53694   0.35760   0.17748   0.00000  Uiso   1.00
H298   H     0.57022   0.36680   0.21707   0.00000  Uiso   1.00
H299   H     0.43424   0.34989   0.31369   0.00000  Uiso   1.00
H300   H     0.48517   0.38171   0.41483   0.00000  Uiso   1.00
H301   H     0.55226   0.54623   0.08010   0.00000  Uiso   1.00
H302   H     0.45951   0.62451   0.42719   0.00000  Uiso   1.00
H303   H     0.42030   0.62414   0.00388   0.00000  Uiso   1.00
H304   H     0.44960   0.62215   0.04510   0.00000  Uiso   1.00
H305   H     0.47596   0.64613   0.49427   0.00000  Uiso   1.00
H306   H     0.47131   0.55920   0.04604   0.00000  Uiso   1.00
H307   H     0.47383   0.44431   0.40267   0.00000  Uiso   1.00
H308   H     0.34804   0.52720   0.21203   0.00000  Uiso   1.00
H309   H     0.54831   0.41277   0.11228   0.00000  Uiso   1.00
H310   H     0.33600   0.45037   0.31959   0.00000  Uiso   1.00
H311   H     0.62698   0.48155   0.32804   0.00000  Uiso   1.00
H312   H     0.63000   0.43556   0.28808   0.00000  Uiso   1.00
H313   H     0.57079   0.65347   0.18040   0.00000  Uiso   1.00
O314   O     0.50000   0.50000   0.25000   0.00000  Uiso   1.00
O315   O     0.48784   0.45970   0.15458   0.00000  Uiso   1.00
O316   O     0.46274   0.53724   0.34968   0.00000  Uiso   1.00
O317   O     0.54157   0.51092   0.14606   0.00000  Uiso   1.00
O318   O     0.50785   0.49213   0.34968   0.00000  Uiso   1.00
O319   O     0.53539   0.39886   0.08791   0.00000  Uiso   1.00
O320   O     0.45124   0.66108   0.29688   0.00000  Uiso   1.00
O321   O     0.49360   0.38680   0.44377   0.00000  Uiso   1.00
O322   O     0.53005   0.54204   0.06300   0.00000  Uiso   1.00
O323   O     0.46198   0.59666   0.41125   0.00000  Uiso   1.00
O324   O     0.51264   0.41352   0.28213   0.00000  Uiso   1.00
O325   O     0.47965   0.59418   0.27013   0.00000  Uiso   1.00
O326   O     0.40745   0.46625   0.23413   0.00000  Uiso   1.00
O327   O     0.60026   0.52605   0.21360   0.00000  Uiso   1.00
O328   O     0.40405   0.52211   0.28213   0.00000  Uiso   1.00
O329   O     0.58824   0.48559   0.27013   0.00000  Uiso   1.00
O330   O     0.47093   0.40277   0.23413   0.00000  Uiso   1.00
O331   O     0.53678   0.58953   0.21360   0.00000  Uiso   1.00
Zn332  Zn    0.52672   0.47327   0.28734   0.00000  Uiso   1.00
Zn333  Zn    0.46713   0.45791   0.21875   0.00000  Uiso   1.00
Zn334  Zn    0.54389   0.53109   0.20657   0.00000  Uiso   1.00
Zn335  Zn    0.46226   0.53773   0.28733   0.00000  Uiso   1.00
C336   C     0.71987   0.49347   0.25917   0.00000  Uiso   1.00
C337   C     0.85310   0.49998   0.05332   0.00000  Uiso   1.00
C338   C     0.85994   0.42857   0.06427   0.00000  Uiso   1.00
C339   C     0.94728   0.50692   0.24036   0.00000  Uiso   1.00
C340   C     0.80975   0.52817   0.42015   0.00000  Uiso   1.00
C341   C     0.99267   0.50895   0.23759   0.00000  Uiso   1.00
C342   C     0.67464   0.48927   0.26516   0.00000  Uiso   1.00
C343   C     0.84691   0.65602   0.23640   0.00000  Uiso   1.00
C344   C     0.81811   0.34546   0.26444   0.00000  Uiso   1.00
C345   C     0.82250   0.38949   0.26054   0.00000  Uiso   1.00
C346   C     0.84321   0.61126   0.24016   0.00000  Uiso   1.00
C347   C     0.79861   0.57922   0.48525   0.00000  Uiso   1.00
C348   C     0.85175   0.48137   0.12920   0.00000  Uiso   1.00
C349   C     0.81521   0.51803   0.37109   0.00000  Uiso   1.00
C350   C     0.85089   0.41560   0.02301   0.00000  Uiso   1.00
C351   C     0.85909   0.47077   0.08064   0.00000  Uiso   1.00
C352   C     0.80114   0.56865   0.43898   0.00000  Uiso   1.00
C353   C     0.98182   0.46275   0.30223   0.00000  Uiso   1.00
C354   C     0.88329   0.34280   0.20082   0.00000  Uiso   1.00
C355   C     0.78537   0.62019   0.00841   0.00000  Uiso   1.00
C356   C     0.80902   0.55116   0.01042   0.00000  Uiso   1.00
C357   C     0.82210   0.51255   0.49097   0.00000  Uiso   1.00
C358   C     0.81672   0.49910   0.44748   0.00000  Uiso   1.00
C359   C     0.83756   0.48572   0.01472   0.00000  Uiso   1.00
C360   C     0.83864   0.44320   0.49850   0.00000  Uiso   1.00
C361   C     0.82725   0.42855   0.45819   0.00000  Uiso   1.00
C362   C     0.81692   0.45661   0.43291   0.00000  Uiso   1.00
H363   H     0.85206   0.38317   0.01106   0.00000  Uiso   1.00
H364   H     0.87028   0.35760   0.17748   0.00000  Uiso   1.00
H365   H     0.90355   0.36680   0.21707   0.00000  Uiso   1.00
H366   H     0.76757   0.34989   0.31369   0.00000  Uiso   1.00
H367   H     0.81850   0.38171   0.41483   0.00000  Uiso   1.00
H368   H     0.88559   0.54623   0.08010   0.00000  Uiso   1.00
H369   H     0.79284   0.62451   0.42719   0.00000  Uiso   1.00
H370   H     0.75363   0.62414   0.00388   0.00000  Uiso   1.00
H371   H     0.78293   0.62215   0.04510   0.00000  Uiso   1.00
H372   H     0.80929   0.64613   0.49427   0.00000  Uiso   1.00
H373   H     0.80464   0.55920   0.04604   0.00000  Uiso   1.00
H374   H     0.80716   0.44431   0.40267   0.00000  Uiso   1.00
H375   H     0.68137   0.52720   0.21203   0.00000  Uiso   1.00
H376   H     0.88164   0.41277   0.11228   0.00000  Uiso   1.00
H377   H     0.66933   0.45037   0.31959   0.00000  Uiso   1.00
H378   H     0.96031   0.48155   0.32804   0.00000  Uiso   1.00
H379   H     0.96334   0.43556   0.28808   0.00000  Uiso   1.00
H380   H     0.90413   0.65347   0.18040   0.00000  Uiso   1.00
O381   O     0.83333   0.50000   0.25000   0.00000  Uiso   1.00
O382   O     0.82118   0.45970   0.15458   0.00000  Uiso   1.00
O383   O     0.79607   0.53724   0.34968   0.00000  Uiso   1.00
O384   O     0.87491   0.51092   0.14606   0.00000  Uiso   1.00
O385   O     0.84118   0.49213   0.34968   0.00000  Uiso   1.00
O386   O     0.86873   0.39886   0.08791   0.00000  Uiso   1.00
O387   O     0.78458   0.66108   0.29688   0.00000  Uiso   1.00
O388   O     0.82694   0.38680   0.44377   0.00000  Uiso   1.00
O389   O     0.86338   0.54204   0.06300   0.00000  Uiso   1.00
O390   O     0.79531   0.59666   0.41125   0.00000  Uiso   1.00
O391   O     0.84597   0.41352   0.28213   0.00000  Uiso   1.00
O392   O     0.81298   0.59418   0.27013   0.00000  Uiso   1.00
O393   O     0.74078   0.46625   0.23413   0.00000  Uiso   1.00
O394   O     0.93360   0.52605   0.21360   0.00000  Uiso   1.00
O395   O     0.73738   0.52211   0.28213   0.00000  Uiso   1.00
O396   O     0.92158   0.48559   0.27013   0.00000  Uiso   1.00
O397   O     0.80426   0.40277   0.23413   0.00000  Uiso   1.00
O398   O     0.87012   0.58953   0.21360   0.00000  Uiso   1.00
Zn399  Zn    0.86005   0.47327   0.28734   0.00000  Uiso   1.00
Zn400  Zn    0.80046   0.45791   0.21875   0.00000  Uiso   1.00
Zn401  Zn    0.87723   0.53109   0.20657   0.00000  Uiso   1.00
Zn402  Zn    0.79560   0.53773   0.28733   0.00000  Uiso   1.00
C403   C     0.05320   0.82680   0.25917   0.00000  Uiso   1.00
C404   C     0.18644   0.83331   0.05332   0.00000  Uiso   1.00
C405   C     0.19328   0.76191   0.06427   0.00000  Uiso   1.00
C406   C     0.28061   0.84025   0.24036   0.00000  Uiso   1.00
C407   C     0.14308   0.86150   0.42015   0.00000  Uiso   1.00
C408   C     0.32601   0.84228   0.23759   0.00000  Uiso   1.00
C409   C     0.00797   0.82261   0.26516   0.00000  Uiso   1.00
C410   C     0.18025   0.98936   0.23640   0.00000  Uiso   1.00
C411   C     0.15144   0.67880   0.26444   0.00000  Uiso   1.00
C412   C     0.15583   0.72283   0.26054   0.00000  Uiso   1.00
C413   C     0.17654   0.94459   0.24016   0.00000  Uiso   1.00
C414   C     0.13195   0.91255   0.48525   0.00000  Uiso   1.00
C415   C     0.18508   0.81471   0.12920   0.00000  Uiso   1.00
C416   C     0.14854   0.85136   0.37109   0.00000  Uiso   1.00
C417   C     0.18422   0.74894   0.02301   0.00000  Uiso   1.00
C418   C     0.19242   0.80411   0.08064   0.00000  Uiso   1.00
C419   C     0.13448   0.90199   0.43898   0.00000  Uiso   1.00
C420   C     0.31515   0.79608   0.30223   0.00000  Uiso   1.00
C421   C     0.21662   0.67614   0.20082   0.00000  Uiso   1.00
C422   C     0.11871   0.95352   0.00841   0.00000  Uiso   1.00
C423   C     0.14235   0.88450   0.01042   0.00000  Uiso   1.00
C424   C     0.15544   0.84588   0.49097   0.00000  Uiso   1.00
C425   C     0.15005   0.83243   0.44748   0.00000  Uiso   1.00
C426   C     0.17089   0.81905   0.01472   0.00000  Uiso   1.00
C427   C     0.17198   0.77654   0.49850   0.00000  Uiso   1.00
C428   C     0.16058   0.76188   0.45819   0.00000  Uiso   1.00
C429   C     0.15025   0.78994   0.43291   0.00000  Uiso   1.00
H430   H     0.18540   0.71650   0.01106   0.00000  Uiso   1.00
H431   H     0.20361   0.69093   0.17748   0.00000  Uiso   1.00
H432   H     0.23689   0.70013   0.21707   0.00000  Uiso   1.00
H433   H     0.10091   0.68322   0.31369   0.00000  Uiso   1.00
H434   H     0.15183   0.71505   0.41483   0.00000  Uiso   1.00
H435   H     0.21892   0.87956   0.08010   0.00000  Uiso   1.00
H436   H     0.12618   0.95784   0.42719   0.00000  Uiso   1.00
H437   H     0.08697   0.95747   0.00388   0.00000  Uiso   1.00
H438   H     0.11627   0.95549   0.04510   0.00000  Uiso   1.00
H439   H     0.14263   0.97946   0.49427   0.00000  Uiso   1.00
H440   H     0.13798   0.89253   0.04604   0.00000  Uiso   1.00
H441   H     0.14049   0.77764   0.40267   0.00000  Uiso   1.00
H442   H     0.01470   0.86054   0.21203   0.00000  Uiso   1.00
H443   H     0.21497   0.74611   0.11228   0.00000  Uiso   1.00
H444   H     0.00266   0.78370   0.31959   0.00000  Uiso   1.00
H445   H     0.29364   0.81488   0.32804   0.00000  Uiso   1.00
H446   H     0.29667   0.76890   0.28808   0.00000  Uiso   1.00
H447   H     0.23746   0.98680   0.18040   0.00000  Uiso   1.00
O448   O     0.16667   0.83333   0.25000   0.00000  Uiso   1.00
O449   O     0.15451   0.79304   0.15458   0.00000  Uiso   1.00
O450   O     0.12940   0.87058   0.34968   0.00000  Uiso   1.00
O451   O     0.20824   0.84425   0.14606   0.00000  Uiso   1.00
O452   O     0.17451   0.82546   0.34968   0.00000  Uiso   1.00
O453   O     0.20206   0.73219   0.08791   0.00000  Uiso   1.00
O454   O     0.11791   0.99441   0.29688   0.00000  Uiso   1.00
O455   O     0.16027   0.72013   0.44377   0.00000  Uiso   1.00
O456   O     0.19672   0.87538   0.06300   0.00000  Uiso   1.00
O457   O     0.12865   0.92999   0.41125   0.00000  Uiso   1.00
O458   O     0.17930   0.74686   0.28213   0.00000  Uiso   1.00
O459   O     0.14632   0.92751   0.27013   0.00000  Uiso   1.00
O460   O     0.07412   0.79958   0.23413   0.00000  Uiso   1.00
O461   O     0.26693   0.85939   0.21360   0.00000  Uiso   1.00
O462   O     0.07071   0.85544   0.28213   0.00000  Uiso   1.00
O463   O     0.25491   0.81892   0.27013   0.00000  Uiso   1.00
O464   O     0.13760   0.73610   0.23413   0.00000  Uiso   1.00
O465   O     0.20345   0.92286   0.21360   0.00000  Uiso   1.00
Zn466  Zn    0.19338   0.80661   0.28734   0.00000  Uiso   1.00
Zn467  Zn    0.13379   0.79124   0.21875   0.00000  Uiso   1.00
Zn468  Zn    0.21056   0.86442   0.20657   0.00000  Uiso   1.00
Zn469  Zn    0.12893   0.87106   0.28733   0.00000  Uiso   1.00
C470   C     0.38654   0.82680   0.25917   0.00000  Uiso   1.00
C471   C     0.51977   0.83331   0.05332   0.00000  Uiso   1.00
C472   C     0.52661   0.76191   0.06427   0.00000  Uiso   1.00
C473   C     0.61395   0.84025   0.24036   0.00000  Uiso   1.00
C474   C     0.47642   0.86150   0.42015   0.00000  Uiso   1.00
C475   C     0.65934   0.84228   0.23759   0.00000  Uiso   1.00
C476   C     0.34130   0.82261   0.26516   0.00000  Uiso   1.00
C477   C     0.51358   0.98936   0.23640   0.00000  Uiso   1.00
C478   C     0.48477   0.67880   0.26444   0.00000  Uiso   1.00
C479   C     0.48916   0.72283   0.26054   0.00000  Uiso   1.00
C480   C     0.50987   0.94459   0.24016   0.00000  Uiso   1.00
C481   C     0.46528   0.91255   0.48525   0.00000  Uiso   1.00
C482   C     0.51842   0.81471   0.12920   0.00000  Uiso   1.00
C483   C     0.48188   0.85136   0.37109   0.00000  Uiso   1.00
C484   C     0.51756   0.74894   0.02301   0.00000  Uiso   1.00
C485   C     0.52575   0.80411   0.08064   0.00000  Uiso   1.00
C486   C     0.46781   0.90199   0.43898   0.00000  Uiso   1.00
C487   C     0.64849   0.79608   0.30223   0.00000  Uiso   1.00
C488   C     0.54996   0.67614   0.20082   0.00000  Uiso   1.00
C489   C     0.45204   0.95352   0.00841   0.00000  Uiso   1.00
C490   C     0.47569   0.88450   0.01042   0.00000  Uiso   1.00
C491   C     0.48877   0.84588   0.49097   0.00000  Uiso   1.00
C492   C     0.48339   0.83243   0.44748   0.00000  Uiso   1.00
C493   C     0.50422   0.81905   0.01472   0.00000  Uiso   1.00
C494   C     0.50531   0.77654   0.49850   0.00000  Uiso   1.00
C495   C     0.49392   0.76188   0.45819   0.00000  Uiso   1.00
C496   C     0.48358   0.78994   0.43291   0.00000  Uiso   1.00
H497   H     0.51873   0.71650   0.01106   0.00000  Uiso   1.00
H498   H     0.53694   0.69093   0.17748   0.00000  Uiso   1.00
H499   H     0.57022   0.70013   0.21707   0.00000  Uiso   1.00
H500   H     0.43424   0.68322   0.31369   0.00000  Uiso   1.00
H501   H     0.48517   0.71505   0.41483   0.00000  Uiso   1.00
H502   H     0.55226   0.87956   0.08010   0.00000  Uiso   1.00
H503   H     0.45951   0.95784   0.42719   0.00000  Uiso   1.00
H504   H     0.42030   0.95747   0.00388   0.00000  Uiso   1.00
H505   H     0.44960   0.95549   0.04510   0.00000  Uiso   1.00
H506   H     0.47596   0.97946   0.49427   0.00000  Uiso   1.00
H507   H     0.47131   0.89253   0.04604   0.00000  Uiso   1.00
H508   H     0.47383   0.77764   0.40267   0.00000  Uiso   1.00
H509   H     0.34804   0.86054   0.21203   0.00000  Uiso   1.00
H510   H     0.54831   0.74611   0.11228   0.00000  Uiso   1.00
H511   H     0.33600   0.78370   0.31959   0.00000  Uiso   1.00
H512   H     0.62698   0.81488   0.32804   0.00000  Uiso   1.00
H513   H     0.63000   0.76890   0.28808   0.00000  Uiso   1.00
H514   H     0.57079   0.98680   0.18040   0.00000  Uiso   1.00
O515   O     0.50000   0.83333   0.25000   0.00000  Uiso   1.00
O516   O     0.48784   0.79304   0.15458   0.00000  Uiso   1.00
O517   O     0.46274   0.87058   0.34968   0.00000  Uiso   1.00
O518   O     0.54157   0.84425   0.14606   0.00000  Uiso   1.00
O519   O     0.50785   0.82546   0.34968   0.00000  Uiso   1.00
O520   O     0.53539   0.73219   0.08791   0.00000  Uiso   1.00
O521   O     0.45124   0.99441   0.29688   0.00000  Uiso   1.00
O522   O     0.49360   0.72013   0.44377   0.00000  Uiso   1.00
O523   O     0.53005   0.87538   0.06300   0.00000  Uiso   1.00
O524   O     0.46198   0.92999   0.41125   0.00000  Uiso   1.00
O525   O     0.51264   0.74686   0.28213   0.00000  Uiso   1.00
O526   O     0.47965   0.92751   0.27013   0.00000  Uiso   1.00
O527   O     0.40745   0.79958   0.23413   0.00000  Uiso   1.00
O528   O     0.60026   0.85939   0.21360   0.00000  Uiso   1.00
O529   O     0.40405   0.85544   0.28213   0.00000  Uiso   1.00
O530   O     0.58824   0.81892   0.27013   0.00000  Uiso   1.00
O531   O     0.47093   0.73610   0.23413   0.00000  Uiso   1.00
O532   O     0.53678   0.92286   0.21360   0.00000  Uiso   1.00
Zn533  Zn    0.52672   0.80661   0.28734   0.00000  Uiso   1.00
Zn534  Zn    0.46713   0.79124   0.21875   0.00000  Uiso   1.00
Zn535  Zn    0.54389   0.86442   0.20657   0.00000  Uiso   1.00
Zn536  Zn    0.46226   0.87106   0.28733   0.00000  Uiso   1.00
C537   C     0.71987   0.82680   0.25917   0.00000  Uiso   1.00
C538   C     0.85310   0.83331   0.05332   0.00000  Uiso   1.00
C539   C     0.85994   0.76191   0.06427   0.00000  Uiso   1.00
C540   C     0.94728   0.84025   0.24036   0.00000  Uiso   1.00
C541   C     0.80975   0.86150   0.42015   0.00000  Uiso   1.00
C542   C     0.99267   0.84228   0.23759   0.00000  Uiso   1.00
C543   C     0.67464   0.82261   0.26516   0.00000  Uiso   1.00
C544   C     0.84691   0.98936   0.23640   0.00000  Uiso   1.00
C545   C     0.81811   0.67880   0.26444   0.00000  Uiso   1.00
C546   C     0.82250   0.72283   0.26054   0.00000  Uiso   1.00
C547   C     0.84321   0.94459   0.24016   0.00000  Uiso   1.00
C548   C     0.79861   0.91255   0.48525   0.00000  Uiso   1.00
C549   C     0.85175   0.81471   0.12920   0.00000  Uiso   1.00
C550   C     0.81521   0.85136   0.37109   0.00000  Uiso   1.00
C551   C     0.85089   0.74894   0.02301   0.00000  Uiso   1.00
C552   C     0.85909   0.80411   0.08064   0.00000  Uiso   1.00
C553   C     0.80114   0.90199   0.43898   0.00000  Uiso   1.00
C554   C     0.98182   0.79608   0.30223   0.00000  Uiso   1.00
C555   C     0.88329   0.67614   0.20082   0.00000  Uiso   1.00
C556   C     0.78537   0.95352   0.00841   0.00000  Uiso   1.00
C557   C     0.80902   0.88450   0.01042   0.00000  Uiso   1.00
C558   C     0.82210   0.84588   0.49097   0.00000  Uiso   1.00
C559   C     0.81672   0.83243   0.44748   0.00000  Uiso   1.00
C560   C     0.83756   0.81905   0.01472   0.00000  Uiso   1.00
C561   C     0.83864   0.77654   0.49850   0.00000  Uiso   1.00
C562   C     0.82725   0.76188   0.45819   0.00000  Uiso   1.00
C563   C     0.81692   0.78994   0.43291   0.00000  Uiso   1.00
H564   H     0.85206   0.71650   0.01106   0.00000  Uiso   1.00
H565   H     0.87028   0.69093   0.17748   0.00000  Uiso   1.00
H566   H     0.90355   0.70013   0.21707   0.00000  Uiso   1.00
H567   H     0.76757   0.68322   0.31369   0.00000  Uiso   1.00
H568   H     0.81850   0.71505   0.41483   0.00000  Uiso   1.00
H569   H     0.88559   0.87956   0.08010   0.00000  Uiso   1.00
H570   H     0.79284   0.95784   0.42719   0.00000  Uiso   1.00
H571   H     0.75363   0.95747   0.00388   0.00000  Uiso   1.00
H572   H     0.78293   0.95549   0.04510   0.00000  Uiso   1.00
H573   H     0.80929   0.97946   0.49427   0.00000  Uiso   1.00
H574   H     0.80464   0.89253   0.04604   0.00000  Uiso   1.00
H575   H     0.80716   0.77764   0.40267   0.00000  Uiso   1.00
H576   H     0.68137   0.86054   0.21203   0.00000  Uiso   1.00
H577   H     0.88164   0.74611   0.11228   0.00000  Uiso   1.00
H578   H     0.66933   0.78370   0.31959   0.00000  Uiso   1.00
H579   H     0.96031   0.81488   0.32804   0.00000  Uiso   1.00
H580   H     0.96334   0.76890   0.28808   0.00000  Uiso   1.00
H581   H     0.90413   0.98680   0.18040   0.00000  Uiso   1.00
O582   O     0.83333   0.83333   0.25000   0.00000  Uiso   1.00
O583   O     0.82118   0.79304   0.15458   0.00000  Uiso   1.00
O584   O     0.79607   0.87058   0.34968   0.00000  Uiso   1.00
O585   O     0.87491   0.84425   0.14606   0.00000  Uiso   1.00
O586   O     0.84118   0.82546   0.34968   0.00000  Uiso   1.00
O587   O     0.86873   0.73219   0.08791   0.00000  Uiso   1.00
O588   O     0.78458   0.99441   0.29688   0.00000  Uiso   1.00
O589   O     0.82694   0.72013   0.44377   0.00000  Uiso   1.00
O590   O     0.86338   0.87538   0.06300   0.00000  Uiso   1.00
O591   O     0.79531   0.92999   0.41125   0.00000  Uiso   1.00
O592   O     0.84597   0.74686   0.28213   0.00000  Uiso   1.00
O593   O     0.81298   0.92751   0.27013   0.00000  Uiso   1.00
O594   O     0.74078   0.79958   0.23413   0.00000  Uiso   1.00
O595   O     0.93360   0.85939   0.21360   0.00000  Uiso   1.00
O596   O     0.73738   0.85544   0.28213   0.00000  Uiso   1.00
O597   O     0.92158   0.81892   0.27013   0.00000  Uiso   1.00
O598   O     0.80426   0.73610   0.23413   0.00000  Uiso   1.00
O599   O     0.87012   0.92286   0.21360   0.00000  Uiso   1.00
Zn600  Zn    0.86005   0.80661   0.28734   0.00000  Uiso   1.00
Zn601  Zn    0.80046   0.79124   0.21875   0.00000  Uiso   1.00
Zn602  Zn    0.87723   0.86442   0.20657   0.00000  Uiso   1.00
Zn603  Zn    0.79560   0.87106   0.28733   0.00000  Uiso   1.00
C604   C     0.05320   0.16014   0.75917   0.00000  Uiso   1.00
C605   C     0.18644   0.16665   0.55332   0.00000  Uiso   1.00
C606   C     0.19328   0.09524   0.56427   0.00000  Uiso   1.00
C607   C     0.28061   0.17358   0.74036   0.00000  Uiso   1.00
C608   C     0.14308   0.19484   0.92015   0.00000  Uiso   1.00
C609   C     0.32601   0.17561   0.73759   0.00000  Uiso   1.00
C610   C     0.00797   0.15594   0.76516   0.00000  Uiso   1.00
C611   C     0.18025   0.32269   0.73640   0.00000  Uiso   1.00
C612   C     0.15144   0.01213   0.76444   0.00000  Uiso   1.00
C613   C     0.15583   0.05616   0.76054   0.00000  Uiso   1.00
C614   C     0.17654   0.27793   0.74016   0.00000  Uiso   1.00
C615   C     0.13195   0.24589   0.98525   0.00000  Uiso   1.00
C616   C     0.18508   0.14804   0.62920   0.00000  Uiso   1.00
C617   C     0.14854   0.18469   0.87109   0.00000  Uiso   1.00
C618   C     0.18422   0.08227   0.52301   0.00000  Uiso   1.00
C619   C     0.19242   0.13744   0.58064   0.00000  Uiso   1.00
C620   C     0.13448   0.23532   0.93898   0.00000  Uiso   1.00
C621   C     0.31515   0.12942   0.80223   0.00000  Uiso   1.00
C622   C     0.21662   0.00947   0.70082   0.00000  Uiso   1.00
C623   C     0.11871   0.28685   0.50841   0.00000  Uiso   1.00
C624   C     0.14235   0.21783   0.51042   0.00000  Uiso   1.00
C625   C     0.15544   0.17921   0.99097   0.00000  Uiso   1.00
C626   C     0.15005   0.16576   0.94748   0.00000  Uiso   1.00
C627   C     0.17089   0.15239   0.51472   0.00000  Uiso   1.00
C628   C     0.17198   0.10987   0.99850   0.00000  Uiso   1.00
C629   C     0.16058   0.09522   0.95819   0.00000  Uiso   1.00
C630   C     0.15025   0.12327   0.93291   0.00000  Uiso   1.00
H631   H     0.18540   0.04984   0.51106   0.00000  Uiso   1.00
H632   H     0.20361   0.02426   0.67748   0.00000  Uiso   1.00
H633   H     0.23689   0.03347   0.71707   0.00000  Uiso   1.00
H634   H     0.10091   0.01656   0.81369   0.00000  Uiso   1.00
H635   H     0.15183   0.04838   0.91483   0.00000  Uiso   1.00
H636   H     0.21892   0.21289   0.58010   0.00000  Uiso   1.00
H637   H     0.12618   0.29118   0.92719   0.00000  Uiso   1.00
H638   H     0.08697   0.29081   0.50388   0.00000  Uiso   1.00
H639   H     0.11627   0.28882   0.54510   0.00000  Uiso   1.00
H640   H     0.14263   0.31280   0.99427   0.00000  Uiso   1.00
H641   H     0.13798   0.22587   0.54604   0.00000  Uiso   1.00
H642   H     0.14049   0.11097   0.90267   0.00000  Uiso   1.00
H643   H     0.01470   0.19387   0.71203   0.00000  Uiso   1.00
H644   H     0.21497   0.07944   0.61228   0.00000  Uiso   1.00
H645   H     0.00266   0.11703   0.81959   0.00000  Uiso   1.00
H646   H     0.29364   0.14822   0.82804   0.00000  Uiso   1.00
H647   H     0.29667   0.10223   0.78808   0.00000  Uiso   1.00
H648   H     0.23746   0.32013   0.68040   0.00000  Uiso   1.00
O649   O     0.16667   0.16667   0.75000   0.00000  Uiso   1.00
O650   O     0.15451   0.12637   0.65458   0.00000  Uiso   1.00
O651   O     0.12940   0.20391   0.84968   0.00000  Uiso   1.00
O652   O     0.20824   0.17759   0.64606   0.00000  Uiso   1.00
O653   O     0.17451   0.15880   0.84968   0.00000  Uiso   1.00
O654   O     0.20206   0.06553   0.58791   0.00000  Uiso   1.00
O655   O     0.11791   0.32775   0.79688   0.00000  Uiso   1.00
O656   O     0.16027   0.05347   0.94377   0.00000  Uiso   1.00
O657   O     0.19672   0.20871   0.56300   0.00000  Uiso   1.00
O658   O     0.12865   0.26332   0.91125   0.00000  Uiso   1.00
O659   O     0.17930   0.08019   0.78213   0.00000  Uiso   1.00
O660   O     0.14632   0.26085   0.77013   0.00000  Uiso   1.00
O661   O     0.07412   0.13291   0.73413   0.00000  Uiso   1.00
O662   O     0.26693   0.19272   0.71360   0.00000  Uiso   1.00
O663   O     0.07071   0.18878   0.78213   0.00000  Uiso   1.00
O664   O     0.25491   0.15226   0.77013   0.00000  Uiso   1.00
O665   O     0.13760   0.06944   0.73413   0.00000  Uiso   1.00
O666   O     0.20345   0.25620   0.71360   0.00000  Uiso   1.00
Zn667  Zn    0.19338   0.13994   0.78734   0.00000  Uiso   1.00
Zn668  Zn    0.13379   0.12458   0.71875   0.00000  Uiso   1.00
Zn669  Zn    0.21056   0.19775   0.70657   0.00000  Uiso   1.00
Zn670  Zn    0.12893   0.20439   0.78733   0.00000  Uiso   1.00
C671   C     0.38654   0.16014   0.75917   0.00000  Uiso   1.00
C672   C     0.51977   0.16665   0.55332   0.00000  Uiso   1.00
C673   C     0.52661   0.09524   0.56427   0.00000  Uiso   1.00
C674   C     0.61395   0.17358   0.74036   0.00000  Uiso   1.00
C675   C     0.47642   0.19484   0.92015   0.00000  Uiso   1.00
C676   C     0.65934   0.17561   0.73759   0.00000  Uiso   1.00
C677   C     0.34130   0.15594   0.76516   0.00000  Uiso   1.00
C678   C     0.51358   0.32269   0.73640   0.00000  Uiso   1.00
C679   C     0.48477   0.01213   0.76444   0.00000  Uiso   1.00
C680   C     0.48916   0.05616   0.76054   0.00000  Uiso   1.00
C681   C     0.50987   0.27793   0.74016   0.00000  Uiso   1.00
C682   C     0.46528   0.24589   0.98525   0.00000  Uiso   1.00
C683   C     0.51842   0.14804   0.62920   0.00000  Uiso   1.00
C684   C     0.48188   0.18469   0.87109   0.00000  Uiso   1.00
C685   C     0.51756   0.08227   0.52301   0.00000  Uiso   1.00
C686   C     0.52575   0.13744   0.58064   0.00000  Uiso   1.00
C687   C     0.46781   0.23532   0.93898   0.00000  Uiso   1.00
C688   C     0.64849   0.12942   0.80223   0.00000  Uiso   1.00
C689   C     0.54996   0.00947   0.70082   0.00000  Uiso   1.00
C690   C     0.45204   0.28685   0.50841   0.00000  Uiso   1.00
C691   C     0.47569   0.21783   0.51042   0.00000  Uiso   1.00
C692   C     0.48877   0.17921   0.99097   0.00000  Uiso   1.00
C693   C     0.48339   0.16576   0.94748   0.00000  Uiso   1.00
C694   C     0.50422   0.15239   0.51472   0.00000  Uiso   1.00
C695   C     0.50531   0.10987   0.99850   0.00000  Uiso   1.00
C696   C     0.49392   0.09522   0.95819   0.00000  Uiso   1.00
C697   C     0.48358   0.12327   0.93291   0.00000  Uiso   1.00
H698   H     0.51873   0.04984   0.51106   0.00000  Uiso   1.00
H699   H     0.53694   0.02426   0.67748   0.00000  Uiso   1.00
H700   H     0.57022   0.03347   0.71707   0.00000  Uiso   1.00
H701   H     0.43424   0.01656   0.81369   0.00000  Uiso   1.00
H702   H     0.48517   0.04838   0.91483   0.00000  Uiso   1.00
H703   H     0.55226   0.21289   0.58010   0.00000  Uiso   1.00
H704   H     0.45951   0.29118   0.92719   0.00000  Uiso   1.00
H705   H     0.42030   0.29081   0.50388   0.00000  Uiso   1.00
H706   H     0.44960   0.28882   0.54510   0.00000  Uiso   1.00
H707   H     0.47596   0.31280   0.99427   0.00000  Uiso   1.00
H708   H     0.47131   0.22587   0.54604   0.00000  Uiso   1.00
H709   H     0.47383   0.11097   0.90267   0.00000  Uiso   1.00
H710   H     0.34804   0.19387   0.71203   0.00000  Uiso   1.00
H711   H     0.54831   0.07944   0.61228   0.00000  Uiso   1.00
H712   H     0.33600   0.11703   0.81959   0.00000  Uiso   1.00
H713   H     0.62698   0.14822   0.82804   0.00000  Uiso   1.00
H714   H     0.63000   0.10223   0.78808   0.00000  Uiso   1.00
H715   H     0.57079   0.32013   0.68040   0.00000  Uiso   1.00
O716   O     0.50000   0.16667   0.75000   0.00000  Uiso   1.00
O717   O     0.48784   0.12637   0.65458   0.00000  Uiso   1.00
O718   O     0.46274   0.20391   0.84968   0.00000  Uiso   1.00
O719   O     0.54157   0.17759   0.64606   0.00000  Uiso   1.00
O720   O     0.50785   0.15880   0.84968   0.00000  Uiso   1.00
O721   O     0.53539   0.06553   0.58791   0.00000  Uiso   1.00
O722   O     0.45124   0.32775   0.79688   0.00000  Uiso   1.00
O723   O     0.49360   0.05347   0.94377   0.00000  Uiso   1.00
O724   O     0.53005   0.20871   0.56300   0.00000  Uiso   1.00
O725   O     0.46198   0.26332   0.91125   0.00000  Uiso   1.00
O726   O     0.51264   0.08019   0.78213   0.00000  Uiso   1.00
O727   O     0.47965   0.26085   0.77013   0.00000  Uiso   1.00
O728   O     0.40745   0.13291   0.73413   0.00000  Uiso   1.00
O729   O     0.60026   0.19272   0.71360   0.00000  Uiso   1.00
O730   O     0.40405   0.18878   0.78213   0.00000  Uiso   1.00
O731   O     0.58824   0.15226   0.77013   0.00000  Uiso   1.00
O732   O     0.47093   0.06944   0.73413   0.00000  Uiso   1.00
O733   O     0.53678   0.25620   0.71360   0.00000  Uiso   1.00
Zn734  Zn    0.52672   0.13994   0.78734   0.00000  Uiso   1.00
Zn735  Zn    0.46713   0.12458   0.71875   0.00000  Uiso   1.00
Zn736  Zn    0.54389   0.19775   0.70657   0.00000  Uiso   1.00
Zn737  Zn    0.46226   0.20439   0.78733   0.00000  Uiso   1.00
C738   C     0.71987   0.16014   0.75917   0.00000  Uiso   1.00
C739   C     0.85310   0.16665   0.55332   0.00000  Uiso   1.00
C740   C     0.85994   0.09524   0.56427   0.00000  Uiso   1.00
C741   C     0.94728   0.17358   0.74036   0.00000  Uiso   1.00
C742   C     0.80975   0.19484   0.92015   0.00000  Uiso   1.00
C743   C     0.99267   0.17561   0.73759   0.00000  Uiso   1.00
C744   C     0.67464   0.15594   0.76516   0.00000  Uiso   1.00
C745   C     0.84691   0.32269   0.73640   0.00000  Uiso   1.00
C746   C     0.81811   0.01213   0.76444   0.00000  Uiso   1.00
C747   C     0.82250   0.05616   0.76054   0.00000  Uiso   1.00
C748   C     0.84321   0.27793   0.74016   0.00000  Uiso   1.00
C749   C     0.79861   0.24589   0.98525   0.00000  Uiso   1.00
C750   C     0.85175   0.14804   0.62920   0.00000  Uiso   1.00
C751   C     0.81521   0.18469   0.87109   0.00000  Uiso   1.00
C752   C     0.85089   0.08227   0.52301   0.00000  Uiso   1.00
C753   C     0.85909   0.13744   0.58064   0.00000  Uiso   1.00
C754   C     0.80114   0.23532   0.93898   0.00000  Uiso   1.00
C755   C     0.98182   0.12942   0.80223   0.00000  Uiso   1.00
C756   C     0.88329   0.00947   0.70082   0.00000  Uiso   1.00
C757   C     0.78537   0.28685   0.50841   0.00000  Uiso   1.00
C758   C     0.80902   0.21783   0.51042   0.00000  Uiso   1.00
C759   C     0.82210   0.17921   0.99097   0.00000  Uiso   1.00
C760   C     0.81672   0.16576   0.94748   0.00000  Uiso   1.00
C761   C     0.83756   0.15239   0.51472   0.00000  Uiso   1.00
C762   C     0.83864   0.10987   0.99850   0.00000  Uiso   1.00
C763   C     0.82725   0.09522   0.95819   0.00000  Uiso   1.00
C764   C     0.81692   0.12327   0.93291   0.00000  Uiso   1.00
H765   H     0.85206   0.04984   0.51106   0.00000  Uiso   1.00
H766   H     0.87028   0.02426   0.67748   0.00000  Uiso   1.00
H767   H     0.90355   0.03347   0.71707   0.00000  Uiso   1.00
H768   H     0.76757   0.01656   0.81369   0.00000  Uiso   1.00
H769   H     0.81850   0.04838   0.91483   0.00000  Uiso   1.00
H770   H     0.88559   0.21289   0.58010   0.00000  Uiso   1.00
H771   H     0.79284   0.29118   0.92719   0.00000  Uiso   1.00
H772   H     0.75363   0.29081   0.50388   0.00000  Uiso   1.00
H773   H     0.78293   0.28882   0.54510   0.00000  Uiso   1.00
H774   H     0.80929   0.31280   0.99427   0.00000  Uiso   1.00
H775   H     0.80464   0.22587   0.54604   0.00000  Uiso   1.00
H776   H     0.80716   0.11097   0.90267   0.00000  Uiso   1.00
H777   H     0.68137   0.19387   0.71203   0.00000  Uiso   1.00
H778   H     0.88164   0.07944   0.61228   0.00000  Uiso   1.00
H779   H     0.66933   0.11703   0.81959   0.00000  Uiso   1.00
H780   H     0.96031   0.14822   0.82804   0.00000  Uiso   1.00
H781   H     0.96334   0.10223   0.78808   0.00000  Uiso   1.00
H782   H     0.90413   0.32013   0.68040   0.00000  Uiso   1.00
O783   O     0.83333   0.16667   0.75000   0.00000  Uiso   1.00
O784   O     0.82118   0.12637   0.65458   0.00000  Uiso   1.00
O785   O     0.79607   0.20391   0.84968   0.00000  Uiso   1.00
O786   O     0.87491   0.17759   0.64606   0.00000  Uiso   1.00
O787   O     0.84118   0.15880   0.84968   0.00000  Uiso   1.00
O788   O     0.86873   0.06553   0.58791   0.00000  Uiso   1.00
O789   O     0.78458   0.32775   0.79688   0.00000  Uiso   1.00
O790   O     0.82694   0.05347   0.94377   0.00000  Uiso   1.00
O791   O     0.86338   0.20871   0.56300   0.00000  Uiso   1.00
O792   O     0.79531   0.26332   0.91125   0.00000  Uiso   1.00
O793   O     0.84597   0.08019   0.78213   0.00000  Uiso   1.00
O794   O     0.81298   0.26085   0.77013   0.00000  Uiso   1.00
O795   O     0.74078   0.13291   0.73413   0.00000  Uiso   1.00
O796   O     0.93360   0.19272   0.71360   0.00000  Uiso   1.00
O797   O     0.73738   0.18878   0.78213   0.00000  Uiso   1.00
O798   O     0.92158   0.15226   0.77013   0.00000  Uiso   1.00
O799   O     0.80426   0.06944   0.73413   0.00000  Uiso   1.00
O800   O     0.87012   0.25620   0.71360   0.00000  Uiso   1.00
Zn801  Zn    0.86005   0.13994   0.78734   0.00000  Uiso   1.00
Zn802  Zn    0.80046   0.12458   0.71875   0.00000  Uiso   1.00
Zn803  Zn    0.87723   0.19775   0.70657   0.00000  Uiso   1.00
Zn804  Zn    0.79560   0.20439   0.78733   0.00000  Uiso   1.00
C805   C     0.05320   0.49347   0.75917   0.00000  Uiso   1.00
C806   C     0.18644   0.49998   0.55332   0.00000  Uiso   1.00
C807   C     0.19328   0.42857   0.56427   0.00000  Uiso   1.00
C808   C     0.28061   0.50692   0.74036   0.00000  Uiso   1.00
C809   C     0.14308   0.52817   0.92015   0.00000  Uiso   1.00
C810   C     0.32601   0.50895   0.73759   0.00000  Uiso   1.00
C811   C     0.00797   0.48927   0.76516   0.00000  Uiso   1.00
C812   C     0.18025   0.65602   0.73640   0.00000  Uiso   1.00
C813   C     0.15144   0.34546   0.76444   0.00000  Uiso   1.00
C814   C     0.15583   0.38949   0.76054   0.00000  Uiso   1.00
C815   C     0.17654   0.61126   0.74016   0.00000  Uiso   1.00
C816   C     0.13195   0.57922   0.98525   0.00000  Uiso   1.00
C817   C     0.18508   0.48137   0.62920   0.00000  Uiso   1.00
C818   C     0.14854   0.51803   0.87109   0.00000  Uiso   1.00
C819   C     0.18422   0.41560   0.52301   0.00000  Uiso   1.00
C820   C     0.19242   0.47077   0.58064   0.00000  Uiso   1.00
C821   C     0.13448   0.56865   0.93898   0.00000  Uiso   1.00
C822   C     0.31515   0.46275   0.80223   0.00000  Uiso   1.00
C823   C     0.21662   0.34280   0.70082   0.00000  Uiso   1.00
C824   C     0.11871   0.62019   0.50841   0.00000  Uiso   1.00
C825   C     0.14235   0.55116   0.51042   0.00000  Uiso   1.00
C826   C     0.15544   0.51255   0.99097   0.00000  Uiso   1.00
C827   C     0.15005   0.49910   0.94748   0.00000  Uiso   1.00
C828   C     0.17089   0.48572   0.51472   0.00000  Uiso   1.00
C829   C     0.17198   0.44320   0.99850   0.00000  Uiso   1.00
C830   C     0.16058   0.42855   0.95819   0.00000  Uiso   1.00
C831   C     0.15025   0.45661   0.93291   0.00000  Uiso   1.00
H832   H     0.18540   0.38317   0.51106   0.00000  Uiso   1.00
H833   H     0.20361   0.35760   0.67748   0.00000  Uiso   1.00
H834   H     0.23689   0.36680   0.71707   0.00000  Uiso   1.00
H835   H     0.10091   0.34989   0.81369   0.00000  Uiso   1.00
H836   H     0.15183   0.38171   0.91483   0.00000  Uiso   1.00
H837   H     0.21892   0.54623   0.58010   0.00000  Uiso   1.00
H838   H     0.12618   0.62451   0.92719   0.00000  Uiso   1.00
H839   H     0.08697   0.62414   0.50388   0.00000  Uiso   1.00
H840   H     0.11627   0.62215   0.54510   0.00000  Uiso   1.00
H841   H     0.14263   0.64613   0.99427   0.00000  Uiso   1.00
H842   H     0.13798   0.55920   0.54604   0.00000  Uiso   1.00
H843   H     0.14049   0.44431   0.90267   0.00000  Uiso   1.00
H844   H     0.01470   0.52720   0.71203   0.00000  Uiso   1.00
H845   H     0.21497   0.41277   0.61228   0.00000  Uiso   1.00
H846   H     0.00266   0.45037   0.81959   0.00000  Uiso   1.00
H847   H     0.29364   0.48155   0.82804   0.00000  Uiso   1.00
H848   H     0.29667   0.43556   0.78808   0.00000  Uiso   1.00
H849   H     0.23746   0.65347   0.68040   0.00000  Uiso   1.00
O850   O     0.16667   0.50000   0.75000   0.00000  Uiso   1.00
O851   O     0.15451   0.45970   0.65458   0.00000  Uiso   1.00
O852   O     0.12940   0.53724   0.84968   0.00000  Uiso   1.00
O853   O     0.20824   0.51092   0.64606   0.00000  Uiso   1.00
O854   O     0.17451   0.49213   0.84968   0.00000  Uiso   1.00
O855   O     0.20206   0.39886   0.58791   0.00000  Uiso   1.00
O856   O     0.11791   0.66108   0.79688   0.00000  Uiso   1.00
O857   O     0.16027   0.38680   0.94377   0.00000  Uiso   1.00
O858   O     0.19672   0.54204   0.56300   0.00000  Uiso   1.00
O859   O     0.12865   0.59666   0.91125   0.00000  Uiso   1.00
O860   O     0.17930   0.41352   0.78213   0.00000  Uiso   1.00
O861   O     0.14632   0.59418   0.77013   0.00000  Uiso   1.00
O862   O     0.07412   0.46625   0.73413   0.00000  Uiso   1.00
O863   O     0.26693   0.52605   0.71360   0.00000  Uiso   1.00
O864   O     0.07071   0.52211   0.78213   0.00000  Uiso   1.00
O865   O     0.25491   0.48559   0.77013   0.00000  Uiso   1.00
O866   O     0.13760   0.40277   0.73413   0.00000  Uiso   1.00
O867   O     0.20345   0.58953   0.71360   0.00000  Uiso   1.00
Zn868  Zn    0.19338   0.47327   0.78734   0.00000  Uiso   1.00
Zn869  Zn    0.13379   0.45791   0.71875   0.00000  Uiso   1.00
Zn870  Zn    0.21056   0.53109   0.70657   0.00000  Uiso   1.00
Zn871  Zn    0.12893   0.53773   0.78733   0.00000  Uiso   1.00
C872   C     0.38654   0.49347   0.75917   0.00000  Uiso   1.00
C873   C     0.51977   0.49998   0.55332   0.00000  Uiso   1.00
C874   C     0.52661   0.42857   0.56427   0.00000  Uiso   1.00
C875   C     0.61395   0.50692   0.74036   0.00000  Uiso   1.00
C876   C     0.47642   0.52817   0.92015   0.00000  Uiso   1.00
C877   C     0.65934   0.50895   0.73759   0.00000  Uiso   1.00
C878   C     0.34130   0.48927   0.76516   0.00000  Uiso   1.00
C879   C     0.51358   0.65602   0.73640   0.00000  Uiso   1.00
C880   C     0.48477   0.34546   0.76444   0.00000  Uiso   1.00
C881   C     0.48916   0.38949   0.76054   0.00000  Uiso   1.00
C882   C     0.50987   0.61126   0.74016   0.00000  Uiso   1.00
C883   C     0.46528   0.57922   0.98525   0.00000  Uiso   1.00
C884   C     0.51842   0.48137   0.62920   0.00000  Uiso   1.00
C885   C     0.48188   0.51803   0.87109   0.00000  Uiso   1.00
C886   C     0.51756   0.41560   0.52301   0.00000  Uiso   1.00
C887   C     0.52575   0.47077   0.58064   0.00000  Uiso   1.00
C888   C     0.46781   0.56865   0.93898   0.00000  Uiso   1.00
C889   C     0.64849   0.46275   0.80223   0.00000  Uiso   1.00
C890   C     0.54996   0.34280   0.70082   0.00000  Uiso   1.00
C891   C     0.45204   0.62019   0.50841   0.00000  Uiso   1.00
C892   C     0.47569   0.55116   0.51042   0.00000  Uiso   1.00
C893   C     0.48877   0.51255   0.99097   0.00000  Uiso   1.00
C894   C     0.48339   0.49910   0.94748   0.00000  Uiso   1.00
C895   C     0.50422   0.48572   0.51472   0.00000  Uiso   1.00
C896   C     0.50531   0.44320   0.99850   0.00000  Uiso   1.00
C897   C     0.49392   0.42855   0.95819   0.00000  Uiso   1.00
C898   C     0.48358   0.45661   0.93291   0.00000  Uiso   1.00
H899   H     0.51873   0.38317   0.51106   0.00000  Uiso   1.00
H900   H     0.53694   0.35760   0.67748   0.00000  Uiso   1.00
H901   H     0.57022   0.36680   0.71707   0.00000  Uiso   1.00
H902   H     0.43424   0.34989   0.81369   0.00000  Uiso   1.00
H903   H     0.48517   0.38171   0.91483   0.00000  Uiso   1.00
H904   H     0.55226   0.54623   0.58010   0.00000  Uiso   1.00
H905   H     0.45951   0.62451   0.92719   0.00000  Uiso   1.00
H906   H     0.42030   0.62414   0.50388   0.00000  Uiso   1.00
H907   H     0.44960   0.62215   0.54510   0.00000  Uiso   1.00
H908   H     0.47596   0.64613   0.99427   0.00000  Uiso   1.00
H909   H     0.47131   0.55920   0.54604   0.00000  Uiso   1.00
H910   H     0.47383   0.44431   0.90267   0.00000  Uiso   1.00
H911   H     0.34804   0.52720   0.71203   0.00000  Uiso   1.00
H912   H     0.54831   0.41277   0.61228   0.00000  Uiso   1.00
H913   H     0.33600   0.45037   0.81959   0.00000  Uiso   1.00
H914   H     0.62698   0.48155   0.82804   0.00000  Uiso   1.00
H915   H     0.63000   0.43556   0.78808   0.00000  Uiso   1.00
H916   H     0.57079   0.65347   0.68040   0.00000  Uiso   1.00
O917   O     0.50000   0.50000   0.75000   0.00000  Uiso   1.00
O918   O     0.48784   0.45970   0.65458   0.00000  Uiso   1.00
O919   O     0.46274   0.53724   0.84968   0.00000  Uiso   1.00
O920   O     0.54157   0.51092   0.64606   0.00000  Uiso   1.00
O921   O     0.50785   0.49213   0.84968   0.00000  Uiso   1.00
O922   O     0.53539   0.39886   0.58791   0.00000  Uiso   1.00
O923   O     0.45124   0.66108   0.79688   0.00000  Uiso   1.00
O924   O     0.49360   0.38680   0.94377   0.00000  Uiso   1.00
O925   O     0.53005   0.54204   0.56300   0.00000  Uiso   1.00
O926   O     0.46198   0.59666   0.91125   0.00000  Uiso   1.00
O927   O     0.51264   0.41352   0.78213   0.00000  Uiso   1.00
O928   O     0.47965   0.59418   0.77013   0.00000  Uiso   1.00
O929   O     0.40745   0.46625   0.73413   0.00000  Uiso   1.00
O930   O     0.60026   0.52605   0.71360   0.00000  Uiso   1.00
O931   O     0.40405   0.52211   0.78213   0.00000  Uiso   1.00
O932   O     0.58824   0.48559   0.77013   0.00000  Uiso   1.00
O933   O     0.47093   0.40277   0.73413   0.00000  Uiso   1.00
O934   O     0.53678   0.58953   0.71360   0.00000  Uiso   1.00
Zn935  Zn    0.52672   0.47327   0.78734   0.00000  Uiso   1.00
Zn936  Zn    0.46713   0.45791   0.71875   0.00000  Uiso   1.00
Zn937  Zn    0.54389   0.53109   0.70657   0.00000  Uiso   1.00
Zn938  Zn    0.46226   0.53773   0.78733   0.00000  Uiso   1.00
C939   C     0.71987   0.49347   0.75917   0.00000  Uiso   1.00
C940   C     0.85310   0.49998   0.55332   0.00000  Uiso   1.00
C941   C     0.85994   0.42857   0.56427   0.00000  Uiso   1.00
C942   C     0.94728   0.50692   0.74036   0.00000  Uiso   1.00
C943   C     0.80975   0.52817   0.92015   0.00000  Uiso   1.00
C944   C     0.99267   0.50895   0.73759   0.00000  Uiso   1.00
C945   C     0.67464   0.48927   0.76516   0.00000  Uiso   1.00
C946   C     0.84691   0.65602   0.73640   0.00000  Uiso   1.00
C947   C     0.81811   0.34546   0.76444   0.00000  Uiso   1.00
C948   C     0.82250   0.38949   0.76054   0.00000  Uiso   1.00
C949   C     0.84321   0.61126   0.74016   0.00000  Uiso   1.00
C950   C     0.79861   0.57922   0.98525   0.00000  Uiso   1.00
C951   C     0.85175   0.48137   0.62920   0.00000  Uiso   1.00
C952   C     0.81521   0.51803   0.87109   0.00000  Uiso   1.00
C953   C     0.85089   0.41560   0.52301   0.00000  Uiso   1.00
C954   C     0.85909   0.47077   0.58064   0.00000  Uiso   1.00
C955   C     0.80114   0.56865   0.93898   0.00000  Uiso   1.00
C956   C     0.98182   0.46275   0.80223   0.00000  Uiso   1.00
C957   C     0.88329   0.34280   0.70082   0.00000  Uiso   1.00
C958   C     0.78537   0.62019   0.50841   0.00000  Uiso   1.00
C959   C     0.80902   0.55116   0.51042   0.00000  Uiso   1.00
C960   C     0.82210   0.51255   0.99097   0.00000  Uiso   1.00
C961   C     0.81672   0.49910   0.94748   0.00000  Uiso   1.00
C962   C     0.83756   0.48572   0.51472   0.00000  Uiso   1.00
C963   C     0.83864   0.44320   0.99850   0.00000  Uiso   1.00
C964   C     0.82725   0.42855   0.95819   0.00000  Uiso   1.00
C965   C     0.81692   0.45661   0.93291   0.00000  Uiso   1.00
H966   H     0.85206   0.38317   0.51106   0.00000  Uiso   1.00
H967   H     0.87028   0.35760   0.67748   0.00000  Uiso   1.00
H968   H     0.90355   0.36680   0.71707   0.00000  Uiso   1.00
H969   H     0.76757   0.34989   0.81369   0.00000  Uiso   1.00
H970   H     0.81850   0.38171   0.91483   0.00000  Uiso   1.00
H971   H     0.88559   0.54623   0.58010   0.00000  Uiso   1.00
H972   H     0.79284   0.62451   0.92719   0.00000  Uiso   1.00
H973   H     0.75363   0.62414   0.50388   0.00000  Uiso   1.00
H974   H     0.78293   0.62215   0.54510   0.00000  Uiso   1.00
H975   H     0.80929   0.64613   0.99427   0.00000  Uiso   1.00
H976   H     0.80464   0.55920   0.54604   0.00000  Uiso   1.00
H977   H     0.80716   0.44431   0.90267   0.00000  Uiso   1.00
H978   H     0.68137   0.52720   0.71203   0.00000  Uiso   1.00
H979   H     0.88164   0.41277   0.61228   0.00000  Uiso   1.00
H980   H     0.66933   0.45037   0.81959   0.00000  Uiso   1.00
H981   H     0.96031   0.48155   0.82804   0.00000  Uiso   1.00
H982   H     0.96334   0.43556   0.78808   0.00000  Uiso   1.00
H983   H     0.90413   0.65347   0.68040   0.00000  Uiso   1.00
O984   O     0.83333   0.50000   0.75000   0.00000  Uiso   1.00
O985   O     0.82118   0.45970   0.65458   0.00000  Uiso   1.00
O986   O     0.79607   0.53724   0.84968   0.00000  Uiso   1.00
O987   O     0.87491   0.51092   0.64606   0.00000  Uiso   1.00
O988   O     0.84118   0.49213   0.84968   0.00000  Uiso   1.00
O989   O     0.86873   0.39886   0.58791   0.00000  Uiso   1.00
O990   O     0.78458   0.66108   0.79688   0.00000  Uiso   1.00
O991   O     0.82694   0.38680   0.94377   0.00000  Uiso   1.00
O992   O     0.86338   0.54204   0.56300   0.00000  Uiso   1.00
O993   O     0.79531   0.59666   0.91125   0.00000  Uiso   1.00
O994   O     0.84597   0.41352   0.78213   0.00000  Uiso   1.00
O995   O     0.81298   0.59418   0.77013   0.00000  Uiso   1.00
O996   O     0.74078   0.46625   0.73413   0.00000  Uiso   1.00
O997   O     0.93360   0.52605   0.71360   0.00000  Uiso   1.00
O998   O     0.73738   0.52211   0.78213   0.00000  Uiso   1.00
O999   O     0.92158   0.48559   0.77013   0.00000  Uiso   1.00
O1000  O     0.80426   0.40277   0.73413   0.00000  Uiso   1.00
O1001  O     0.87012   0.58953   0.71360   0.00000  Uiso   1.00
Zn1002 Zn    0.86005   0.47327   0.78734   0.00000  Uiso   1.00
Zn1003 Zn    0.80046   0.45791   0.71875   0.00000  Uiso   1.00
Zn1004 Zn    0.87723   0.53109   0.70657   0.00000  Uiso   1.00
Zn1005 Zn    0.79560   0.53773   0.78733   0.00000  Uiso   1.00
C1006  C     0.05320   0.82680   0.75917   0.00000  Uiso   1.00
C1007  C     0.18644   0.83331   0.55332   0.00000  Uiso   1.00
C1008  C     0.19328   0.76191   0.56427   0.00000  Uiso   1.00
C1009  C     0.28061   0.84025   0.74036   0.00000  Uiso   1.00
C1010  C     0.14308   0.86150   0.92015   0.00000  Uiso   1.00
C1011  C     0.32601   0.84228   0.73759   0.00000  Uiso   1.00
C1012  C     0.00797   0.82261   0.76516   0.00000  Uiso   1.00
C1013  C     0.18025   0.98936   0.73640   0.00000  Uiso   1.00
C1014  C     0.15144   0.67880   0.76444   0.00000  Uiso   1.00
C1015  C     0.15583   0.72283   0.76054   0.00000  Uiso   1.00
C1016  C     0.17654   0.94459   0.74016   0.00000  Uiso   1.00
C1017  C     0.13195   0.91255   0.98525   0.00000  Uiso   1.00
C1018  C     0.18508   0.81471   0.62920   0.00000  Uiso   1.00
C1019  C     0.14854   0.85136   0.87109   0.00000  Uiso   1.00
C1020  C     0.18422   0.74894   0.52301   0.00000  Uiso   1.00
C1021  C     0.19242   0.80411   0.58064   0.00000  Uiso   1.00
C1022  C     0.13448   0.90199   0.93898   0.00000  Uiso   1.00
C1023  C     0.31515   0.79608   0.80223   0.00000  Uiso   1.00
C1024  C     0.21662   0.67614   0.70082   0.00000  Uiso   1.00
C1025  C     0.11871   0.95352   0.50841   0.00000  Uiso   1.00
C1026  C     0.14235   0.88450   0.51042   0.00000  Uiso   1.00
C1027  C     0.15544   0.84588   0.99097   0.00000  Uiso   1.00
C1028  C     0.15005   0.83243   0.94748   0.00000  Uiso   1.00
C1029  C     0.17089   0.81905   0.51472   0.00000  Uiso   1.00
C1030  C     0.17198   0.77654   0.99850   0.00000  Uiso   1.00
C1031  C     0.16058   0.76188   0.95819   0.00000  Uiso   1.00
C1032  C     0.15025   0.78994   0.93291   0.00000  Uiso   1.00
H1033  H     0.18540   0.71650   0.51106   0.00000  Uiso   1.00
H1034  H     0.20361   0.69093   0.67748   0.00000  Uiso   1.00
H1035  H     0.23689   0.70013   0.71707   0.00000  Uiso   1.00
H1036  H     0.10091   0.68322   0.81369   0.00000  Uiso   1.00
H1037  H     0.15183   0.71505   0.91483   0.00000  Uiso   1.00
H1038  H     0.21892   0.87956   0.58010   0.00000  Uiso   1.00
H1039  H     0.12618   0.95784   0.92719   0.00000  Uiso   1.00
H1040  H     0.08697   0.95747   0.50388   0.00000  Uiso   1.00
H1041  H     0.11627   0.95549   0.54510   0.00000  Uiso   1.00
H1042  H     0.14263   0.97946   0.99427   0.00000  Uiso   1.00
H1043  H     0.13798   0.89253   0.54604   0.00000  Uiso   1.00
H1044  H     0.14049   0.77764   0.90267   0.00000  Uiso   1.00
H1045  H     0.01470   0.86054   0.71203   0.00000  Uiso   1.00
H1046  H     0.21497   0.74611   0.61228   0.00000  Uiso   1.00
H1047  H     0.00266   0.78370   0.81959   0.00000  Uiso   1.00
H1048  H     0.29364   0.81488   0.82804   0.00000  Uiso   1.00
H1049  H     0.29667   0.76890   0.78808   0.00000  Uiso   1.00
H1050  H     0.23746   0.98680   0.68040   0.00000  Uiso   1.00
O1051  O     0.16667   0.83333   0.75000   0.00000  Uiso   1.00
O1052  O     0.15451   0.79304   0.65458   0.00000  Uiso   1.00
O1053  O     0.12940   0.87058   0.84968   0.00000  Uiso   1.00
O1054  O     0.20824   0.84425   0.64606   0.00000  Uiso   1.00
O1055  O     0.17451   0.82546   0.84968   0.00000  Uiso   1.00
O1056  O     0.20206   0.73219   0.58791   0.00000  Uiso   1.00
O1057  O     0.11791   0.99441   0.79688   0.00000  Uiso   1.00
O1058  O     0.16027   0.72013   0.94377   0.00000  Uiso   1.00
O1059  O     0.19672   0.87538   0.56300   0.00000  Uiso   1.00
O1060  O     0.12865   0.92999   0.91125   0.00000  Uiso   1.00
O1061  O     0.17930   0.74686   0.78213   0.00000  Uiso   1.00
O1062  O     0.14632   0.92751   0.77013   0.00000  Uiso   1.00
O1063  O     0.07412   0.79958   0.73413   0.00000  Uiso   1.00
O1064  O     0.26693   0.85939   0.71360   0.00000  Uiso   1.00
O1065  O     0.07071   0.85544   0.78213   0.00000  Uiso   1.00
O1066  O     0.25491   0.81892   0.77013   0.00000  Uiso   1.00
O1067  O     0.13760   0.73610   0.73413   0.00000  Uiso   1.00
O1068  O     0.20345   0.92286   0.71360   0.00000  Uiso   1.00
Zn1069 Zn    0.19338   0.80661   0.78734   0.00000  Uiso   1.00
Zn1070 Zn    0.13379   0.79124   0.71875   0.00000  Uiso   1.00
Zn1071 Zn    0.21056   0.86442   0.70657   0.00000  Uiso   1.00
Zn1072 Zn    0.12893   0.87106   0.78733   0.00000  Uiso   1.00
C1073  C     0.38654   0.82680   0.75917   0.00000  Uiso   1.00
C1074  C     0.51977   0.83331   0.55332   0.00000  Uiso   1.00
C1075  C     0.52661   0.76191   0.56427   0.00000  Uiso   1.00
C1076  C     0.61395   0.84025   0.74036   0.00000  Uiso   1.00
C1077  C     0.47642   0.86150   0.92015   0.00000  Uiso   1.00
C1078  C     0.65934   0.84228   0.73759   0.00000  Uiso   1.00
C1079  C     0.34130   0.82261   0.76516   0.00000  Uiso   1.00
C1080  C     0.51358   0.98936   0.73640   0.00000  Uiso   1.00
C1081  C     0.48477   0.67880   0.76444   0.00000  Uiso   1.00
C1082  C     0.48916   0.72283   0.76054   0.00000  Uiso   1.00
C1083  C     0.50987   0.94459   0.74016   0.00000  Uiso   1.00
C1084  C     0.46528   0.91255   0.98525   0.00000  Uiso   1.00
C1085  C     0.51842   0.81471   0.62920   0.00000  Uiso   1.00
C1086  C     0.48188   0.85136   0.87109   0.00000  Uiso   1.00
C1087  C     0.51756   0.74894   0.52301   0.00000  Uiso   1.00
C1088  C     0.52575   0.80411   0.58064   0.00000  Uiso   1.00
C1089  C     0.46781   0.90199   0.93898   0.00000  Uiso   1.00
C1090  C     0.64849   0.79608   0.80223   0.00000  Uiso   1.00
C1091  C     0.54996   0.67614   0.70082   0.00000  Uiso   1.00
C1092  C     0.45204   0.95352   0.50841   0.00000  Uiso   1.00
C1093  C     0.47569   0.88450   0.51042   0.00000  Uiso   1.00
C1094  C     0.48877   0.84588   0.99097   0.00000  Uiso   1.00
C1095  C     0.48339   0.83243   0.94748   0.00000  Uiso   1.00
C1096  C     0.50422   0.81905   0.51472   0.00000  Uiso   1.00
C1097  C     0.50531   0.77654   0.99850   0.00000  Uiso   1.00
C1098  C     0.49392   0.76188   0.95819   0.00000  Uiso   1.00
C1099  C     0.48358   0.78994   0.93291   0.00000  Uiso   1.00
H1100  H     0.51873   0.71650   0.51106   0.00000  Uiso   1.00
H1101  H     0.53694   0.69093   0.67748   0.00000  Uiso   1.00
H1102  H     0.57022   0.70013   0.71707   0.00000  Uiso   1.00
H1103  H     0.43424   0.68322   0.81369   0.00000  Uiso   1.00
H1104  H     0.48517   0.71505   0.91483   0.00000  Uiso   1.00
H1105  H     0.55226   0.87956   0.58010   0.00000  Uiso   1.00
H1106  H     0.45951   0.95784   0.92719   0.00000  Uiso   1.00
H1107  H     0.42030   0.95747   0.50388   0.00000  Uiso   1.00
H1108  H     0.44960   0.95549   0.54510   0.00000  Uiso   1.00
H1109  H     0.47596   0.97946   0.99427   0.00000  Uiso   1.00
H1110  H     0.47131   0.89253   0.54604   0.00000  Uiso   1.00
H1111  H     0.47383   0.77764   0.90267   0.00000  Uiso   1.00
H1112  H     0.34804   0.86054   0.71203   0.00000  Uiso   1.00
H1113  H     0.54831   0.74611   0.61228   0.00000  Uiso   1.00
H1114  H     0.33600   0.78370   0.81959   0.00000  Uiso   1.00
H1115  H     0.62698   0.81488   0.82804   0.00000  Uiso   1.00
H1116  H     0.63000   0.76890   0.78808   0.00000  Uiso   1.00
H1117  H     0.57079   0.98680   0.68040   0.00000  Uiso   1.00
O1118  O     0.50000   0.83333   0.75000   0.00000  Uiso   1.00
O1119  O     0.48784   0.79304   0.65458   0.00000  Uiso   1.00
O1120  O     0.46274   0.87058   0.84968   0.00000  Uiso   1.00
O1121  O     0.54157   0.84425   0.64606   0.00000  Uiso   1.00
O1122  O     0.50785   0.82546   0.84968   0.00000  Uiso   1.00
O1123  O     0.53539   0.73219   0.58791   0.00000  Uiso   1.00
O1124  O     0.45124   0.99441   0.79688   0.00000  Uiso   1.00
O1125  O     0.49360   0.72013   0.94377   0.00000  Uiso   1.00
O1126  O     0.53005   0.87538   0.56300   0.00000  Uiso   1.00
O1127  O     0.46198   0.92999   0.91125   0.00000  Uiso   1.00
O1128  O     0.51264   0.74686   0.78213   0.00000  Uiso   1.00
O1129  O     0.47965   0.92751   0.77013   0.00000  Uiso   1.00
O1130  O     0.40745   0.79958   0.73413   0.00000  Uiso   1.00
O1131  O     0.60026   0.85939   0.71360   0.00000  Uiso   1.00
O1132  O     0.40405   0.85544   0.78213   0.00000  Uiso   1.00
O1133  O     0.58824   0.81892   0.77013   0.00000  Uiso   1.00
O1134  O     0.47093   0.73610   0.73413   0.00000  Uiso   1.00
O1135  O     0.53678   0.92286   0.71360   0.00000  Uiso   1.00
Zn1136 Zn    0.52672   0.80661   0.78734   0.00000  Uiso   1.00
Zn1137 Zn    0.46713   0.79124   0.71875   0.00000  Uiso   1.00
Zn1138 Zn    0.54389   0.86442   0.70657   0.00000  Uiso   1.00
Zn1139 Zn    0.46226   0.87106   0.78733   0.00000  Uiso   1.00
C1140  C     0.71987   0.82680   0.75917   0.00000  Uiso   1.00
C1141  C     0.85310   0.83331   0.55332   0.00000  Uiso   1.00
C1142  C     0.85994   0.76191   0.56427   0.00000  Uiso   1.00
C1143  C     0.94728   0.84025   0.74036   0.00000  Uiso   1.00
C1144  C     0.80975   0.86150   0.92015   0.00000  Uiso   1.00
C1145  C     0.99267   0.84228   0.73759   0.00000  Uiso   1.00
C1146  C     0.67464   0.82261   0.76516   0.00000  Uiso   1.00
C1147  C     0.84691   0.98936   0.73640   0.00000  Uiso   1.00
C1148  C     0.81811   0.67880   0.76444   0.00000  Uiso   1.00
C1149  C     0.82250   0.72283   0.76054   0.00000  Uiso   1.00
C1150  C     0.84321   0.94459   0.74016   0.00000  Uiso   1.00
C1151  C     0.79861   0.91255   0.98525   0.00000  Uiso   1.00
C1152  C     0.85175   0.81471   0.62920   0.00000  Uiso   1.00
C1153  C     0.81521   0.85136   0.87109   0.00000  Uiso   1.00
C1154  C     0.85089   0.74894   0.52301   0.00000  Uiso   1.00
C1155  C     0.85909   0.80411   0.58064   0.00000  Uiso   1.00
C1156  C     0.80114   0.90199   0.93898   0.00000  Uiso   1.00
C1157  C     0.98182   0.79608   0.80223   0.00000  Uiso   1.00
C1158  C     0.88329   0.67614   0.70082   0.00000  Uiso   1.00
C1159  C     0.78537   0.95352   0.50841   0.00000  Uiso   1.00
C1160  C     0.80902   0.88450   0.51042   0.00000  Uiso   1.00
C1161  C     0.82210   0.84588   0.99097   0.00000  Uiso   1.00
C1162  C     0.81672   0.83243   0.94748   0.00000  Uiso   1.00
C1163  C     0.83756   0.81905   0.51472   0.00000  Uiso   1.00
C1164  C     0.83864   0.77654   0.99850   0.00000  Uiso   1.00
C1165  C     0.82725   0.76188   0.95819   0.00000  Uiso   1.00
C1166  C     0.81692   0.78994   0.93291   0.00000  Uiso   1.00
H1167  H     0.85206   0.71650   0.51106   0.00000  Uiso   1.00
H1168  H     0.87028   0.69093   0.67748   0.00000  Uiso   1.00
H1169  H     0.90355   0.70013   0.71707   0.00000  Uiso   1.00
H1170  H     0.76757   0.68322   0.81369   0.00000  Uiso   1.00
H1171  H     0.81850   0.71505   0.91483   0.00000  Uiso   1.00
H1172  H     0.88559   0.87956   0.58010   0.00000  Uiso   1.00
H1173  H     0.79284   0.95784   0.92719   0.00000  Uiso   1.00
H1174  H     0.75363   0.95747   0.50388   0.00000  Uiso   1.00
H1175  H     0.78293   0.95549   0.54510   0.00000  Uiso   1.00
H1176  H     0.80929   0.97946   0.99427   0.00000  Uiso   1.00
H1177  H     0.80464   0.89253   0.54604   0.00000  Uiso   1.00
H1178  H     0.80716   0.77764   0.90267   0.00000  Uiso   1.00
H1179  H     0.68137   0.86054   0.71203   0.00000  Uiso   1.00
H1180  H     0.88164   0.74611   0.61228   0.00000  Uiso   1.00
H1181  H     0.66933   0.78370   0.81959   0.00000  Uiso   1.00
H1182  H     0.96031   0.81488   0.82804   0.00000  Uiso   1.00
H1183  H     0.96334   0.76890   0.78808   0.00000  Uiso   1.00
H1184  H     0.90413   0.98680   0.68040   0.00000  Uiso   1.00
O1185  O     0.83333   0.83333   0.75000   0.00000  Uiso   1.00
O1186  O     0.82118   0.79304   0.65458   0.00000  Uiso   1.00
O1187  O     0.79607   0.87058   0.84968   0.00000  Uiso   1.00
O1188  O     0.87491   0.84425   0.64606   0.00000  Uiso   1.00
O1189  O     0.84118   0.82546   0.84968   0.00000  Uiso   1.00
O1190  O     0.86873   0.73219   0.58791   0.00000  Uiso   1.00
O1191  O     0.78458   0.99441   0.79688   0.00000  Uiso   1.00
O1192  O     0.82694   0.72013   0.94377   0.00000  Uiso   1.00
O1193  O     0.86338   0.87538   0.56300   0.00000  Uiso   1.00
O1194  O     0.79531   0.92999   0.91125   0.00000  Uiso   1.00
O1195  O     0.84597   0.74686   0.78213   0.00000  Uiso   1.00
O1196  O     0.81298   0.92751   0.77013   0.00000  Uiso   1.00
O1197  O     0.74078   0.79958   0.73413   0.00000  Uiso   1.00
O1198  O     0.93360   0.85939   0.71360   0.00000  Uiso   1.00
O1199  O     0.73738   0.85544   0.78213   0.00000  Uiso   1.00
O1200  O     0.92158   0.81892   0.77013   0.00000  Uiso   1.00
O1201  O     0.80426   0.73610   0.73413   0.00000  Uiso   1.00
O1202  O     0.87012   0.92286   0.71360   0.00000  Uiso   1.00
Zn1203 Zn    0.86005   0.80661   0.78734   0.00000  Uiso   1.00
Zn1204 Zn    0.80046   0.79124   0.71875   0.00000  Uiso   1.00
Zn1205 Zn    0.87723   0.86442   0.70657   0.00000  Uiso   1.00
Zn1206 Zn    0.79560   0.87106   0.78733   0.00000  Uiso   1.00
loop_
_geom_bond_atom_site_label_1
_geom_bond_atom_site_label_2
_geom_bond_distance
_geom_bond_site_symmetry_2
_ccdc_geom_bond_type
C1     O58     1.267   .     A
C1     O60     1.267   .     A
C1     C7      1.430   .     S
C2     C16     1.409   .     A
C2     C24     1.420   .     A
C2     O54     1.382   .     S
C3     C15     1.388   .     A
C3     C16     1.414   .     A
C3     O51     1.382   .     S
C4     O59     1.291   .     A
C4     C6      1.457   .     S
C4     O61     1.269   .     A
C5     C23     1.418   .     A
C5     C14     1.484   .     S
C5     C17     1.419   .     A
C6     C74     1.352   .     S
C6     H107    1.088   .     S
C7     C140    1.352   1_455 S
C7     C152    1.514   1_455 S
C8     C11     1.464   .     S
C8     C210    1.352   .     S
C8     C220    1.521   .     S
C9     C10     1.439   .     S
C9     C410    1.352   1_545 S
C9     O454    1.385   1_545 S
C10    O62     1.272   .     A
C10    O56     1.272   .     A
C11    O63     1.276   .     A
C11    O57     1.276   .     A
C12    C17     1.416   .     A
C12    C623    1.510   .     S
C12    C624    1.397   .     S
C13    C16     1.466   .     S
C13    O49     1.284   .     A
C13    O47     1.276   .     A
C14    O50     1.291   .     A
C14    O48     1.284   .     A
C15    H28     1.083   .     S
C15    C628    1.402   1_554 S
C17    O55     1.386   .     S
C18    H44     1.111   .     S
C18    H43     1.111   .     S
C18    C74     1.514   .     S
C18    H109    1.112   .     S
C19    H30     1.111   .     S
C19    H29     1.111   .     S
C19    C410    1.521   1_545 S
C19    H447    1.109   1_545 S
C20    H35     1.110   .     S
C20    H36     1.111   .     S
C20    C615    1.510   1_554 S
C20    H640    1.110   1_554 S
C21    H38     1.079   .     S
C21    C615    1.397   1_554 S
C21    C625    1.409   1_554 S
C22    C23     1.412   .     A
C22    C624    1.409   .     S
C22    C627    1.425   .     S
C23    C27     1.409   .     A
C24    C625    1.425   1_554 S
C24    C628    1.423   1_554 S
C25    C26     1.404   .     A
C25    C627    1.423   .     S
C25    C618    1.402   .     S
C26    C27     1.398   .     A
C26    O53     1.384   .     S
C27    H39     1.080   .     S
H31    O454    0.993   1_545 S
H32    O53     0.992   .     S
H33    O54     0.989   .     S
H34    O55     0.987   .     S
H37    C623    1.110   .     S
H40    C140    1.088   1_455 S
H41    O51     0.990   .     S
H42    C152    1.112   1_455 S
H45    C220    1.109   .     S
O46    Zn67    1.939   .     S
O46    Zn66    1.943   .     S
O46    Zn65    1.942   .     S
O46    Zn64    1.958   .     S
O47    Zn65    1.927   .     S
O48    Zn67    1.932   .     S
O49    Zn66    1.927   .     S
O50    Zn64    1.923   .     S
O52    H232    0.993   .     S
O52    C210    1.385   .     S
O56    Zn64    1.934   .     S
O57    Zn67    1.939   .     S
O58    Zn65    1.938   .     S
O59    Zn66    1.944   .     S
O60    Zn67    1.940   .     S
O61    Zn64    1.936   .     S
O62    Zn65    1.942   .     S
O63    Zn66    1.937   .     S
C68    O125    1.267   .     A
C68    O127    1.267   .     A
C68    C74     1.430   .     S
C69    C83     1.409   .     A
C69    C91     1.420   .     A
C69    O121    1.382   .     S
C70    C82     1.388   .     A
C70    C83     1.414   .     A
C70    O118    1.382   .     S
C71    O126    1.291   .     A
C71    C73     1.457   .     S
C71    O128    1.269   .     A
C72    C90     1.418   .     A
C72    C81     1.484   .     S
C72    C84     1.419   .     A
C73    C141    1.352   .     S
C73    H174    1.088   .     S
C75    C78     1.464   .     S
C75    C277    1.352   .     S
C75    C287    1.521   .     S
C76    C77     1.439   .     S
C76    C477    1.352   1_545 S
C76    O521    1.385   1_545 S
C77    O129    1.272   .     A
C77    O123    1.272   .     A
C78    O130    1.276   .     A
C78    O124    1.276   .     A
C79    C84     1.416   .     A
C79    C690    1.510   .     S
C79    C691    1.397   .     S
C80    C83     1.466   .     S
C80    O116    1.284   .     A
C80    O114    1.276   .     A
C81    O117    1.291   .     A
C81    O115    1.284   .     A
C82    H95     1.083   .     S
C82    C695    1.402   1_554 S
C84    O122    1.386   .     S
C85    H111    1.111   .     S
C85    H110    1.111   .     S
C85    C141    1.514   .     S
C85    H176    1.112   .     S
C86    H97     1.111   .     S
C86    H96     1.111   .     S
C86    C477    1.521   1_545 S
C86    H514    1.109   1_545 S
C87    H102    1.110   .     S
C87    H103    1.111   .     S
C87    C682    1.510   1_554 S
C87    H707    1.110   1_554 S
C88    H105    1.079   .     S
C88    C682    1.397   1_554 S
C88    C692    1.409   1_554 S
C89    C90     1.412   .     A
C89    C691    1.409   .     S
C89    C694    1.425   .     S
C90    C94     1.409   .     A
C91    C692    1.425   1_554 S
C91    C695    1.423   1_554 S
C92    C93     1.404   .     A
C92    C694    1.423   .     S
C92    C685    1.402   .     S
C93    C94     1.398   .     A
C93    O120    1.384   .     S
C94    H106    1.080   .     S
H98    O521    0.993   1_545 S
H99    O120    0.992   .     S
H100   O121    0.989   .     S
H101   O122    0.987   .     S
H104   C690    1.110   .     S
H108   O118    0.990   .     S
H112   C287    1.109   .     S
O113   Zn134   1.939   .     S
O113   Zn133   1.943   .     S
O113   Zn132   1.942   .     S
O113   Zn131   1.958   .     S
O114   Zn132   1.927   .     S
O115   Zn134   1.932   .     S
O116   Zn133   1.927   .     S
O117   Zn131   1.923   .     S
O119   H299    0.993   .     S
O119   C277    1.385   .     S
O123   Zn131   1.934   .     S
O124   Zn134   1.939   .     S
O125   Zn132   1.938   .     S
O126   Zn133   1.944   .     S
O127   Zn134   1.940   .     S
O128   Zn131   1.936   .     S
O129   Zn132   1.942   .     S
O130   Zn133   1.937   .     S
C135   O192    1.267   .     A
C135   O194    1.267   .     A
C135   C141    1.430   .     S
C136   C150    1.409   .     A
C136   C158    1.420   .     A
C136   O188    1.382   .     S
C137   C149    1.388   .     A
C137   C150    1.414   .     A
C137   O185    1.382   .     S
C138   O193    1.291   .     A
C138   C140    1.457   .     S
C138   O195    1.269   .     A
C139   C157    1.418   .     A
C139   C148    1.484   .     S
C139   C151    1.419   .     A
C140   C7      1.352   1_655 S
C140   H40     1.088   1_655 S
C142   C145    1.464   .     S
C142   C344    1.352   .     S
C142   C354    1.521   .     S
C143   C144    1.439   .     S
C143   C544    1.352   1_545 S
C143   O588    1.385   1_545 S
C144   O196    1.272   .     A
C144   O190    1.272   .     A
C145   O197    1.276   .     A
C145   O191    1.276   .     A
C146   C151    1.416   .     A
C146   C757    1.510   .     S
C146   C758    1.397   .     S
C147   C150    1.466   .     S
C147   O183    1.284   .     A
C147   O181    1.276   .     A
C148   O184    1.291   .     A
C148   O182    1.284   .     A
C149   H162    1.083   .     S
C149   C762    1.402   1_554 S
C151   O189    1.386   .     S
C152   H178    1.111   .     S
C152   H177    1.111   .     S
C152   C7      1.514   1_655 S
C152   H42     1.112   1_655 S
C153   H164    1.111   .     S
C153   H163    1.111   .     S
C153   C544    1.521   1_545 S
C153   H581    1.109   1_545 S
C154   H169    1.110   .     S
C154   H170    1.111   .     S
C154   C749    1.510   1_554 S
C154   H774    1.110   1_554 S
C155   H172    1.079   .     S
C155   C749    1.397   1_554 S
C155   C759    1.409   1_554 S
C156   C157    1.412   .     A
C156   C758    1.409   .     S
C156   C761    1.425   .     S
C157   C161    1.409   .     A
C158   C759    1.425   1_554 S
C158   C762    1.423   1_554 S
C159   C160    1.404   .     A
C159   C761    1.423   .     S
C159   C752    1.402   .     S
C160   C161    1.398   .     A
C160   O187    1.384   .     S
C161   H173    1.080   .     S
H165   O588    0.993   1_545 S
H166   O187    0.992   .     S
H167   O188    0.989   .     S
H168   O189    0.987   .     S
H171   C757    1.110   .     S
H175   O185    0.990   .     S
H179   C354    1.109   .     S
O180   Zn201   1.939   .     S
O180   Zn200   1.943   .     S
O180   Zn199   1.942   .     S
O180   Zn198   1.958   .     S
O181   Zn199   1.927   .     S
O182   Zn201   1.932   .     S
O183   Zn200   1.927   .     S
O184   Zn198   1.923   .     S
O186   H366    0.993   .     S
O186   C344    1.385   .     S
O190   Zn198   1.934   .     S
O191   Zn201   1.939   .     S
O192   Zn199   1.938   .     S
O193   Zn200   1.944   .     S
O194   Zn201   1.940   .     S
O195   Zn198   1.936   .     S
O196   Zn199   1.942   .     S
O197   Zn200   1.937   .     S
C202   O259    1.267   .     A
C202   O261    1.267   .     A
C202   C208    1.430   .     S
C203   C217    1.409   .     A
C203   C225    1.420   .     A
C203   O255    1.382   .     S
C204   C216    1.388   .     A
C204   C217    1.414   .     A
C204   O252    1.382   .     S
C205   O260    1.291   .     A
C205   C207    1.457   .     S
C205   O262    1.269   .     A
C206   C224    1.418   .     A
C206   C215    1.484   .     S
C206   C218    1.419   .     A
C207   C275    1.352   .     S
C207   H308    1.088   .     S
C208   C341    1.352   1_455 S
C208   C353    1.514   1_455 S
C209   C212    1.464   .     S
C209   C411    1.352   .     S
C209   C421    1.521   .     S
C210   C211    1.439   .     S
C211   O263    1.272   .     A
C211   O257    1.272   .     A
C212   O264    1.276   .     A
C212   O258    1.276   .     A
C213   C218    1.416   .     A
C213   C824    1.510   .     S
C213   C825    1.397   .     S
C214   C217    1.466   .     S
C214   O250    1.284   .     A
C214   O248    1.276   .     A
C215   O251    1.291   .     A
C215   O249    1.284   .     A
C216   H229    1.083   .     S
C216   C829    1.402   1_554 S
C218   O256    1.386   .     S
C219   H245    1.111   .     S
C219   H244    1.111   .     S
C219   C275    1.514   .     S
C219   H310    1.112   .     S
C220   H231    1.111   .     S
C220   H230    1.111   .     S
C221   H236    1.110   .     S
C221   H237    1.111   .     S
C221   C816    1.510   1_554 S
C221   H841    1.110   1_554 S
C222   H239    1.079   .     S
C222   C816    1.397   1_554 S
C222   C826    1.409   1_554 S
C223   C224    1.412   .     A
C223   C825    1.409   .     S
C223   C828    1.425   .     S
C224   C228    1.409   .     A
C225   C826    1.425   1_554 S
C225   C829    1.423   1_554 S
C226   C227    1.404   .     A
C226   C828    1.423   .     S
C226   C819    1.402   .     S
C227   C228    1.398   .     A
C227   O254    1.384   .     S
C228   H240    1.080   .     S
H233   O254    0.992   .     S
H234   O255    0.989   .     S
H235   O256    0.987   .     S
H238   C824    1.110   .     S
H241   C341    1.088   1_455 S
H242   O252    0.990   .     S
H243   C353    1.112   1_455 S
H246   C421    1.109   .     S
O247   Zn268   1.939   .     S
O247   Zn267   1.943   .     S
O247   Zn266   1.942   .     S
O247   Zn265   1.958   .     S
O248   Zn266   1.927   .     S
O249   Zn268   1.932   .     S
O250   Zn267   1.927   .     S
O251   Zn265   1.923   .     S
O253   H433    0.993   .     S
O253   C411    1.385   .     S
O257   Zn265   1.934   .     S
O258   Zn268   1.939   .     S
O259   Zn266   1.938   .     S
O260   Zn267   1.944   .     S
O261   Zn268   1.940   .     S
O262   Zn265   1.936   .     S
O263   Zn266   1.942   .     S
O264   Zn267   1.937   .     S
C269   O326    1.267   .     A
C269   O328    1.267   .     A
C269   C275    1.430   .     S
C270   C284    1.409   .     A
C270   C292    1.420   .     A
C270   O322    1.382   .     S
C271   C283    1.388   .     A
C271   C284    1.414   .     A
C271   O319    1.382   .     S
C272   O327    1.291   .     A
C272   C274    1.457   .     S
C272   O329    1.269   .     A
C273   C291    1.418   .     A
C273   C282    1.484   .     S
C273   C285    1.419   .     A
C274   C342    1.352   .     S
C274   H375    1.088   .     S
C276   C279    1.464   .     S
C276   C478    1.352   .     S
C276   C488    1.521   .     S
C277   C278    1.439   .     S
C278   O330    1.272   .     A
C278   O324    1.272   .     A
C279   O331    1.276   .     A
C279   O325    1.276   .     A
C280   C285    1.416   .     A
C280   C891    1.510   .     S
C280   C892    1.397   .     S
C281   C284    1.466   .     S
C281   O317    1.284   .     A
C281   O315    1.276   .     A
C282   O318    1.291   .     A
C282   O316    1.284   .     A
C283   H296    1.083   .     S
C283   C896    1.402   1_554 S
C285   O323    1.386   .     S
C286   H312    1.111   .     S
C286   H311    1.111   .     S
C286   C342    1.514   .     S
C286   H377    1.112   .     S
C287   H298    1.111   .     S
C287   H297    1.111   .     S
C288   H303    1.110   .     S
C288   H304    1.111   .     S
C288   C883    1.510   1_554 S
C288   H908    1.110   1_554 S
C289   H306    1.079   .     S
C289   C883    1.397   1_554 S
C289   C893    1.409   1_554 S
C290   C291    1.412   .     A
C290   C892    1.409   .     S
C290   C895    1.425   .     S
C291   C295    1.409   .     A
C292   C893    1.425   1_554 S
C292   C896    1.423   1_554 S
C293   C294    1.404   .     A
C293   C895    1.423   .     S
C293   C886    1.402   .     S
C294   C295    1.398   .     A
C294   O321    1.384   .     S
C295   H307    1.080   .     S
H300   O321    0.992   .     S
H301   O322    0.989   .     S
H302   O323    0.987   .     S
H305   C891    1.110   .     S
H309   O319    0.990   .     S
H313   C488    1.109   .     S
O314   Zn335   1.939   .     S
O314   Zn334   1.943   .     S
O314   Zn333   1.942   .     S
O314   Zn332   1.958   .     S
O315   Zn333   1.927   .     S
O316   Zn335   1.932   .     S
O317   Zn334   1.927   .     S
O318   Zn332   1.923   .     S
O320   H500    0.993   .     S
O320   C478    1.385   .     S
O324   Zn332   1.934   .     S
O325   Zn335   1.939   .     S
O326   Zn333   1.938   .     S
O327   Zn334   1.944   .     S
O328   Zn335   1.940   .     S
O329   Zn332   1.936   .     S
O330   Zn333   1.942   .     S
O331   Zn334   1.937   .     S
C336   O393    1.267   .     A
C336   O395    1.267   .     A
C336   C342    1.430   .     S
C337   C351    1.409   .     A
C337   C359    1.420   .     A
C337   O389    1.382   .     S
C338   C350    1.388   .     A
C338   C351    1.414   .     A
C338   O386    1.382   .     S
C339   O394    1.291   .     A
C339   C341    1.457   .     S
C339   O396    1.269   .     A
C340   C358    1.418   .     A
C340   C349    1.484   .     S
C340   C352    1.419   .     A
C341   C208    1.352   1_655 S
C341   H241    1.088   1_655 S
C343   C346    1.464   .     S
C343   C545    1.352   .     S
C343   C555    1.521   .     S
C344   C345    1.439   .     S
C345   O397    1.272   .     A
C345   O391    1.272   .     A
C346   O398    1.276   .     A
C346   O392    1.276   .     A
C347   C352    1.416   .     A
C347   C958    1.510   .     S
C347   C959    1.397   .     S
C348   C351    1.466   .     S
C348   O384    1.284   .     A
C348   O382    1.276   .     A
C349   O385    1.291   .     A
C349   O383    1.284   .     A
C350   H363    1.083   .     S
C350   C963    1.402   1_554 S
C352   O390    1.386   .     S
C353   H379    1.111   .     S
C353   H378    1.111   .     S
C353   C208    1.514   1_655 S
C353   H243    1.112   1_655 S
C354   H365    1.111   .     S
C354   H364    1.111   .     S
C355   H370    1.110   .     S
C355   H371    1.111   .     S
C355   C950    1.510   1_554 S
C355   H975    1.110   1_554 S
C356   H373    1.079   .     S
C356   C950    1.397   1_554 S
C356   C960    1.409   1_554 S
C357   C358    1.412   .     A
C357   C959    1.409   .     S
C357   C962    1.425   .     S
C358   C362    1.409   .     A
C359   C960    1.425   1_554 S
C359   C963    1.423   1_554 S
C360   C361    1.404   .     A
C360   C962    1.423   .     S
C360   C953    1.402   .     S
C361   C362    1.398   .     A
C361   O388    1.384   .     S
C362   H374    1.080   .     S
H367   O388    0.992   .     S
H368   O389    0.989   .     S
H369   O390    0.987   .     S
H372   C958    1.110   .     S
H376   O386    0.990   .     S
H380   C555    1.109   .     S
O381   Zn402   1.939   .     S
O381   Zn401   1.943   .     S
O381   Zn400   1.942   .     S
O381   Zn399   1.958   .     S
O382   Zn400   1.927   .     S
O383   Zn402   1.932   .     S
O384   Zn401   1.927   .     S
O385   Zn399   1.923   .     S
O387   H567    0.993   .     S
O387   C545    1.385   .     S
O391   Zn399   1.934   .     S
O392   Zn402   1.939   .     S
O393   Zn400   1.938   .     S
O394   Zn401   1.944   .     S
O395   Zn402   1.940   .     S
O396   Zn399   1.936   .     S
O397   Zn400   1.942   .     S
O398   Zn401   1.937   .     S
C403   O460    1.267   .     A
C403   O462    1.267   .     A
C403   C409    1.430   .     S
C404   C418    1.409   .     A
C404   C426    1.420   .     A
C404   O456    1.382   .     S
C405   C417    1.388   .     A
C405   C418    1.414   .     A
C405   O453    1.382   .     S
C406   O461    1.291   .     A
C406   C408    1.457   .     S
C406   O463    1.269   .     A
C407   C425    1.418   .     A
C407   C416    1.484   .     S
C407   C419    1.419   .     A
C408   C476    1.352   .     S
C408   H509    1.088   .     S
C409   C542    1.352   1_455 S
C409   C554    1.514   1_455 S
C410   C413    1.464   .     S
C410   C9      1.352   1_565 S
C410   C19     1.521   1_565 S
C411   C412    1.439   .     S
C412   O464    1.272   .     A
C412   O458    1.272   .     A
C413   O465    1.276   .     A
C413   O459    1.276   .     A
C414   C419    1.416   .     A
C414   C1025   1.510   .     S
C414   C1026   1.397   .     S
C415   C418    1.466   .     S
C415   O451    1.284   .     A
C415   O449    1.276   .     A
C416   O452    1.291   .     A
C416   O450    1.284   .     A
C417   H430    1.083   .     S
C417   C1030   1.402   1_554 S
C419   O457    1.386   .     S
C420   H446    1.111   .     S
C420   H445    1.111   .     S
C420   C476    1.514   .     S
C420   H511    1.112   .     S
C421   H432    1.111   .     S
C421   H431    1.111   .     S
C422   H437    1.110   .     S
C422   H438    1.111   .     S
C422   C1017   1.510   1_554 S
C422   H1042   1.110   1_554 S
C423   H440    1.079   .     S
C423   C1017   1.397   1_554 S
C423   C1027   1.409   1_554 S
C424   C425    1.412   .     A
C424   C1026   1.409   .     S
C424   C1029   1.425   .     S
C425   C429    1.409   .     A
C426   C1027   1.425   1_554 S
C426   C1030   1.423   1_554 S
C427   C428    1.404   .     A
C427   C1029   1.423   .     S
C427   C1020   1.402   .     S
C428   C429    1.398   .     A
C428   O455    1.384   .     S
C429   H441    1.080   .     S
H434   O455    0.992   .     S
H435   O456    0.989   .     S
H436   O457    0.987   .     S
H439   C1025   1.110   .     S
H442   C542    1.088   1_455 S
H443   O453    0.990   .     S
H444   C554    1.112   1_455 S
H447   C19     1.109   1_565 S
O448   Zn469   1.939   .     S
O448   Zn468   1.943   .     S
O448   Zn467   1.942   .     S
O448   Zn466   1.958   .     S
O449   Zn467   1.927   .     S
O450   Zn469   1.932   .     S
O451   Zn468   1.927   .     S
O452   Zn466   1.923   .     S
O454   H31     0.993   1_565 S
O454   C9      1.385   1_565 S
O458   Zn466   1.934   .     S
O459   Zn469   1.939   .     S
O460   Zn467   1.938   .     S
O461   Zn468   1.944   .     S
O462   Zn469   1.940   .     S
O463   Zn466   1.936   .     S
O464   Zn467   1.942   .     S
O465   Zn468   1.937   .     S
C470   O527    1.267   .     A
C470   O529    1.267   .     A
C470   C476    1.430   .     S
C471   C485    1.409   .     A
C471   C493    1.420   .     A
C471   O523    1.382   .     S
C472   C484    1.388   .     A
C472   C485    1.414   .     A
C472   O520    1.382   .     S
C473   O528    1.291   .     A
C473   C475    1.457   .     S
C473   O530    1.269   .     A
C474   C492    1.418   .     A
C474   C483    1.484   .     S
C474   C486    1.419   .     A
C475   C543    1.352   .     S
C475   H576    1.088   .     S
C477   C480    1.464   .     S
C477   C76     1.352   1_565 S
C477   C86     1.521   1_565 S
C478   C479    1.439   .     S
C479   O531    1.272   .     A
C479   O525    1.272   .     A
C480   O532    1.276   .     A
C480   O526    1.276   .     A
C481   C486    1.416   .     A
C481   C1092   1.510   .     S
C481   C1093   1.397   .     S
C482   C485    1.466   .     S
C482   O518    1.284   .     A
C482   O516    1.276   .     A
C483   O519    1.291   .     A
C483   O517    1.284   .     A
C484   H497    1.083   .     S
C484   C1097   1.402   1_554 S
C486   O524    1.386   .     S
C487   H513    1.111   .     S
C487   H512    1.111   .     S
C487   C543    1.514   .     S
C487   H578    1.112   .     S
C488   H499    1.111   .     S
C488   H498    1.111   .     S
C489   H504    1.110   .     S
C489   H505    1.111   .     S
C489   C1084   1.510   1_554 S
C489   H1109   1.110   1_554 S
C490   H507    1.079   .     S
C490   C1084   1.397   1_554 S
C490   C1094   1.409   1_554 S
C491   C492    1.412   .     A
C491   C1093   1.409   .     S
C491   C1096   1.425   .     S
C492   C496    1.409   .     A
C493   C1094   1.425   1_554 S
C493   C1097   1.423   1_554 S
C494   C495    1.404   .     A
C494   C1096   1.423   .     S
C494   C1087   1.402   .     S
C495   C496    1.398   .     A
C495   O522    1.384   .     S
C496   H508    1.080   .     S
H501   O522    0.992   .     S
H502   O523    0.989   .     S
H503   O524    0.987   .     S
H506   C1092   1.110   .     S
H510   O520    0.990   .     S
H514   C86     1.109   1_565 S
O515   Zn536   1.939   .     S
O515   Zn535   1.943   .     S
O515   Zn534   1.942   .     S
O515   Zn533   1.958   .     S
O516   Zn534   1.927   .     S
O517   Zn536   1.932   .     S
O518   Zn535   1.927   .     S
O519   Zn533   1.923   .     S
O521   H98     0.993   1_565 S
O521   C76     1.385   1_565 S
O525   Zn533   1.934   .     S
O526   Zn536   1.939   .     S
O527   Zn534   1.938   .     S
O528   Zn535   1.944   .     S
O529   Zn536   1.940   .     S
O530   Zn533   1.936   .     S
O531   Zn534   1.942   .     S
O532   Zn535   1.937   .     S
C537   O594    1.267   .     A
C537   O596    1.267   .     A
C537   C543    1.430   .     S
C538   C552    1.409   .     A
C538   C560    1.420   .     A
C538   O590    1.382   .     S
C539   C551    1.388   .     A
C539   C552    1.414   .     A
C539   O587    1.382   .     S
C540   O595    1.291   .     A
C540   C542    1.457   .     S
C540   O597    1.269   .     A
C541   C559    1.418   .     A
C541   C550    1.484   .     S
C541   C553    1.419   .     A
C542   C409    1.352   1_655 S
C542   H442    1.088   1_655 S
C544   C547    1.464   .     S
C544   C143    1.352   1_565 S
C544   C153    1.521   1_565 S
C545   C546    1.439   .     S
C546   O598    1.272   .     A
C546   O592    1.272   .     A
C547   O599    1.276   .     A
C547   O593    1.276   .     A
C548   C553    1.416   .     A
C548   C1159   1.510   .     S
C548   C1160   1.397   .     S
C549   C552    1.466   .     S
C549   O585    1.284   .     A
C549   O583    1.276   .     A
C550   O586    1.291   .     A
C550   O584    1.284   .     A
C551   H564    1.083   .     S
C551   C1164   1.402   1_554 S
C553   O591    1.386   .     S
C554   H580    1.111   .     S
C554   H579    1.111   .     S
C554   C409    1.514   1_655 S
C554   H444    1.112   1_655 S
C555   H566    1.111   .     S
C555   H565    1.111   .     S
C556   H571    1.110   .     S
C556   H572    1.111   .     S
C556   C1151   1.510   1_554 S
C556   H1176   1.110   1_554 S
C557   H574    1.079   .     S
C557   C1151   1.397   1_554 S
C557   C1161   1.409   1_554 S
C558   C559    1.412   .     A
C558   C1160   1.409   .     S
C558   C1163   1.425   .     S
C559   C563    1.409   .     A
C560   C1161   1.425   1_554 S
C560   C1164   1.423   1_554 S
C561   C562    1.404   .     A
C561   C1163   1.423   .     S
C561   C1154   1.402   .     S
C562   C563    1.398   .     A
C562   O589    1.384   .     S
C563   H575    1.080   .     S
H568   O589    0.992   .     S
H569   O590    0.989   .     S
H570   O591    0.987   .     S
H573   C1159   1.110   .     S
H577   O587    0.990   .     S
H581   C153    1.109   1_565 S
O582   Zn603   1.939   .     S
O582   Zn602   1.943   .     S
O582   Zn601   1.942   .     S
O582   Zn600   1.958   .     S
O583   Zn601   1.927   .     S
O584   Zn603   1.932   .     S
O585   Zn602   1.927   .     S
O586   Zn600   1.923   .     S
O588   H165    0.993   1_565 S
O588   C143    1.385   1_565 S
O592   Zn600   1.934   .     S
O593   Zn603   1.939   .     S
O594   Zn601   1.938   .     S
O595   Zn602   1.944   .     S
O596   Zn603   1.940   .     S
O597   Zn600   1.936   .     S
O598   Zn601   1.942   .     S
O599   Zn602   1.937   .     S
C604   O661    1.267   .     A
C604   O663    1.267   .     A
C604   C610    1.430   .     S
C605   C619    1.409   .     A
C605   C627    1.420   .     A
C605   O657    1.382   .     S
C606   C618    1.388   .     A
C606   C619    1.414   .     A
C606   O654    1.382   .     S
C607   O662    1.291   .     A
C607   C609    1.457   .     S
C607   O664    1.269   .     A
C608   C626    1.418   .     A
C608   C617    1.484   .     S
C608   C620    1.419   .     A
C609   C677    1.352   .     S
C609   H710    1.088   .     S
C610   C743    1.352   1_455 S
C610   C755    1.514   1_455 S
C611   C614    1.464   .     S
C611   C813    1.352   .     S
C611   C823    1.521   .     S
C612   C613    1.439   .     S
C612   C1013   1.352   1_545 S
C612   O1057   1.385   1_545 S
C613   O665    1.272   .     A
C613   O659    1.272   .     A
C614   O666    1.276   .     A
C614   O660    1.276   .     A
C615   C620    1.416   .     A
C615   C20     1.510   1_556 S
C615   C21     1.397   1_556 S
C616   C619    1.466   .     S
C616   O652    1.284   .     A
C616   O650    1.276   .     A
C617   O653    1.291   .     A
C617   O651    1.284   .     A
C618   H631    1.083   .     S
C620   O658    1.386   .     S
C621   H647    1.111   .     S
C621   H646    1.111   .     S
C621   C677    1.514   .     S
C621   H712    1.112   .     S
C622   H633    1.111   .     S
C622   H632    1.111   .     S
C622   C1013   1.521   1_545 S
C622   H1050   1.109   1_545 S
C623   H638    1.110   .     S
C623   H639    1.111   .     S
C624   H641    1.079   .     S
C625   C626    1.412   .     A
C625   C21     1.409   1_556 S
C625   C24     1.425   1_556 S
C626   C630    1.409   .     A
C628   C629    1.404   .     A
C628   C24     1.423   1_556 S
C628   C15     1.402   1_556 S
C629   C630    1.398   .     A
C629   O656    1.384   .     S
C630   H642    1.080   .     S
H634   O1057   0.993   1_545 S
H635   O656    0.992   .     S
H636   O657    0.989   .     S
H637   O658    0.987   .     S
H640   C20     1.110   1_556 S
H643   C743    1.088   1_455 S
H644   O654    0.990   .     S
H645   C755    1.112   1_455 S
H648   C823    1.109   .     S
O649   Zn670   1.939   .     S
O649   Zn669   1.943   .     S
O649   Zn668   1.942   .     S
O649   Zn667   1.958   .     S
O650   Zn668   1.927   .     S
O651   Zn670   1.932   .     S
O652   Zn669   1.927   .     S
O653   Zn667   1.923   .     S
O655   H835    0.993   .     S
O655   C813    1.385   .     S
O659   Zn667   1.934   .     S
O660   Zn670   1.939   .     S
O661   Zn668   1.938   .     S
O662   Zn669   1.944   .     S
O663   Zn670   1.940   .     S
O664   Zn667   1.936   .     S
O665   Zn668   1.942   .     S
O666   Zn669   1.937   .     S
C671   O728    1.267   .     A
C671   O730    1.267   .     A
C671   C677    1.430   .     S
C672   C686    1.409   .     A
C672   C694    1.420   .     A
C672   O724    1.382   .     S
C673   C685    1.388   .     A
C673   C686    1.414   .     A
C673   O721    1.382   .     S
C674   O729    1.291   .     A
C674   C676    1.457   .     S
C674   O731    1.269   .     A
C675   C693    1.418   .     A
C675   C684    1.484   .     S
C675   C687    1.419   .     A
C676   C744    1.352   .     S
C676   H777    1.088   .     S
C678   C681    1.464   .     S
C678   C880    1.352   .     S
C678   C890    1.521   .     S
C679   C680    1.439   .     S
C679   C1080   1.352   1_545 S
C679   O1124   1.385   1_545 S
C680   O732    1.272   .     A
C680   O726    1.272   .     A
C681   O733    1.276   .     A
C681   O727    1.276   .     A
C682   C687    1.416   .     A
C682   C87     1.510   1_556 S
C682   C88     1.397   1_556 S
C683   C686    1.466   .     S
C683   O719    1.284   .     A
C683   O717    1.276   .     A
C684   O720    1.291   .     A
C684   O718    1.284   .     A
C685   H698    1.083   .     S
C687   O725    1.386   .     S
C688   H714    1.111   .     S
C688   H713    1.111   .     S
C688   C744    1.514   .     S
C688   H779    1.112   .     S
C689   H700    1.111   .     S
C689   H699    1.111   .     S
C689   C1080   1.521   1_545 S
C689   H1117   1.109   1_545 S
C690   H705    1.110   .     S
C690   H706    1.111   .     S
C691   H708    1.079   .     S
C692   C693    1.412   .     A
C692   C88     1.409   1_556 S
C692   C91     1.425   1_556 S
C693   C697    1.409   .     A
C695   C696    1.404   .     A
C695   C91     1.423   1_556 S
C695   C82     1.402   1_556 S
C696   C697    1.398   .     A
C696   O723    1.384   .     S
C697   H709    1.080   .     S
H701   O1124   0.993   1_545 S
H702   O723    0.992   .     S
H703   O724    0.989   .     S
H704   O725    0.987   .     S
H707   C87     1.110   1_556 S
H711   O721    0.990   .     S
H715   C890    1.109   .     S
O716   Zn737   1.939   .     S
O716   Zn736   1.943   .     S
O716   Zn735   1.942   .     S
O716   Zn734   1.958   .     S
O717   Zn735   1.927   .     S
O718   Zn737   1.932   .     S
O719   Zn736   1.927   .     S
O720   Zn734   1.923   .     S
O722   H902    0.993   .     S
O722   C880    1.385   .     S
O726   Zn734   1.934   .     S
O727   Zn737   1.939   .     S
O728   Zn735   1.938   .     S
O729   Zn736   1.944   .     S
O730   Zn737   1.940   .     S
O731   Zn734   1.936   .     S
O732   Zn735   1.942   .     S
O733   Zn736   1.937   .     S
C738   O795    1.267   .     A
C738   O797    1.267   .     A
C738   C744    1.430   .     S
C739   C753    1.409   .     A
C739   C761    1.420   .     A
C739   O791    1.382   .     S
C740   C752    1.388   .     A
C740   C753    1.414   .     A
C740   O788    1.382   .     S
C741   O796    1.291   .     A
C741   C743    1.457   .     S
C741   O798    1.269   .     A
C742   C760    1.418   .     A
C742   C751    1.484   .     S
C742   C754    1.419   .     A
C743   C610    1.352   1_655 S
C743   H643    1.088   1_655 S
C745   C748    1.464   .     S
C745   C947    1.352   .     S
C745   C957    1.521   .     S
C746   C747    1.439   .     S
C746   C1147   1.352   1_545 S
C746   O1191   1.385   1_545 S
C747   O799    1.272   .     A
C747   O793    1.272   .     A
C748   O800    1.276   .     A
C748   O794    1.276   .     A
C749   C754    1.416   .     A
C749   C154    1.510   1_556 S
C749   C155    1.397   1_556 S
C750   C753    1.466   .     S
C750   O786    1.284   .     A
C750   O784    1.276   .     A
C751   O787    1.291   .     A
C751   O785    1.284   .     A
C752   H765    1.083   .     S
C754   O792    1.386   .     S
C755   H781    1.111   .     S
C755   H780    1.111   .     S
C755   C610    1.514   1_655 S
C755   H645    1.112   1_655 S
C756   H767    1.111   .     S
C756   H766    1.111   .     S
C756   C1147   1.521   1_545 S
C756   H1184   1.109   1_545 S
C757   H772    1.110   .     S
C757   H773    1.111   .     S
C758   H775    1.079   .     S
C759   C760    1.412   .     A
C759   C155    1.409   1_556 S
C759   C158    1.425   1_556 S
C760   C764    1.409   .     A
C762   C763    1.404   .     A
C762   C158    1.423   1_556 S
C762   C149    1.402   1_556 S
C763   C764    1.398   .     A
C763   O790    1.384   .     S
C764   H776    1.080   .     S
H768   O1191   0.993   1_545 S
H769   O790    0.992   .     S
H770   O791    0.989   .     S
H771   O792    0.987   .     S
H774   C154    1.110   1_556 S
H778   O788    0.990   .     S
H782   C957    1.109   .     S
O783   Zn804   1.939   .     S
O783   Zn803   1.943   .     S
O783   Zn802   1.942   .     S
O783   Zn801   1.958   .     S
O784   Zn802   1.927   .     S
O785   Zn804   1.932   .     S
O786   Zn803   1.927   .     S
O787   Zn801   1.923   .     S
O789   H969    0.993   .     S
O789   C947    1.385   .     S
O793   Zn801   1.934   .     S
O794   Zn804   1.939   .     S
O795   Zn802   1.938   .     S
O796   Zn803   1.944   .     S
O797   Zn804   1.940   .     S
O798   Zn801   1.936   .     S
O799   Zn802   1.942   .     S
O800   Zn803   1.937   .     S
C805   O862    1.267   .     A
C805   O864    1.267   .     A
C805   C811    1.430   .     S
C806   C820    1.409   .     A
C806   C828    1.420   .     A
C806   O858    1.382   .     S
C807   C819    1.388   .     A
C807   C820    1.414   .     A
C807   O855    1.382   .     S
C808   O863    1.291   .     A
C808   C810    1.457   .     S
C808   O865    1.269   .     A
C809   C827    1.418   .     A
C809   C818    1.484   .     S
C809   C821    1.419   .     A
C810   C878    1.352   .     S
C810   H911    1.088   .     S
C811   C944    1.352   1_455 S
C811   C956    1.514   1_455 S
C812   C815    1.464   .     S
C812   C1014   1.352   .     S
C812   C1024   1.521   .     S
C813   C814    1.439   .     S
C814   O866    1.272   .     A
C814   O860    1.272   .     A
C815   O867    1.276   .     A
C815   O861    1.276   .     A
C816   C821    1.416   .     A
C816   C221    1.510   1_556 S
C816   C222    1.397   1_556 S
C817   C820    1.466   .     S
C817   O853    1.284   .     A
C817   O851    1.276   .     A
C818   O854    1.291   .     A
C818   O852    1.284   .     A
C819   H832    1.083   .     S
C821   O859    1.386   .     S
C822   H848    1.111   .     S
C822   H847    1.111   .     S
C822   C878    1.514   .     S
C822   H913    1.112   .     S
C823   H834    1.111   .     S
C823   H833    1.111   .     S
C824   H839    1.110   .     S
C824   H840    1.111   .     S
C825   H842    1.079   .     S
C826   C827    1.412   .     A
C826   C222    1.409   1_556 S
C826   C225    1.425   1_556 S
C827   C831    1.409   .     A
C829   C830    1.404   .     A
C829   C225    1.423   1_556 S
C829   C216    1.402   1_556 S
C830   C831    1.398   .     A
C830   O857    1.384   .     S
C831   H843    1.080   .     S
H836   O857    0.992   .     S
H837   O858    0.989   .     S
H838   O859    0.987   .     S
H841   C221    1.110   1_556 S
H844   C944    1.088   1_455 S
H845   O855    0.990   .     S
H846   C956    1.112   1_455 S
H849   C1024   1.109   .     S
O850   Zn871   1.939   .     S
O850   Zn870   1.943   .     S
O850   Zn869   1.942   .     S
O850   Zn868   1.958   .     S
O851   Zn869   1.927   .     S
O852   Zn871   1.932   .     S
O853   Zn870   1.927   .     S
O854   Zn868   1.923   .     S
O856   H1036   0.993   .     S
O856   C1014   1.385   .     S
O860   Zn868   1.934   .     S
O861   Zn871   1.939   .     S
O862   Zn869   1.938   .     S
O863   Zn870   1.944   .     S
O864   Zn871   1.940   .     S
O865   Zn868   1.936   .     S
O866   Zn869   1.942   .     S
O867   Zn870   1.937   .     S
C872   O929    1.267   .     A
C872   O931    1.267   .     A
C872   C878    1.430   .     S
C873   C887    1.409   .     A
C873   C895    1.420   .     A
C873   O925    1.382   .     S
C874   C886    1.388   .     A
C874   C887    1.414   .     A
C874   O922    1.382   .     S
C875   O930    1.291   .     A
C875   C877    1.457   .     S
C875   O932    1.269   .     A
C876   C894    1.418   .     A
C876   C885    1.484   .     S
C876   C888    1.419   .     A
C877   C945    1.352   .     S
C877   H978    1.088   .     S
C879   C882    1.464   .     S
C879   C1081   1.352   .     S
C879   C1091   1.521   .     S
C880   C881    1.439   .     S
C881   O933    1.272   .     A
C881   O927    1.272   .     A
C882   O934    1.276   .     A
C882   O928    1.276   .     A
C883   C888    1.416   .     A
C883   C288    1.510   1_556 S
C883   C289    1.397   1_556 S
C884   C887    1.466   .     S
C884   O920    1.284   .     A
C884   O918    1.276   .     A
C885   O921    1.291   .     A
C885   O919    1.284   .     A
C886   H899    1.083   .     S
C888   O926    1.386   .     S
C889   H915    1.111   .     S
C889   H914    1.111   .     S
C889   C945    1.514   .     S
C889   H980    1.112   .     S
C890   H901    1.111   .     S
C890   H900    1.111   .     S
C891   H906    1.110   .     S
C891   H907    1.111   .     S
C892   H909    1.079   .     S
C893   C894    1.412   .     A
C893   C289    1.409   1_556 S
C893   C292    1.425   1_556 S
C894   C898    1.409   .     A
C896   C897    1.404   .     A
C896   C292    1.423   1_556 S
C896   C283    1.402   1_556 S
C897   C898    1.398   .     A
C897   O924    1.384   .     S
C898   H910    1.080   .     S
H903   O924    0.992   .     S
H904   O925    0.989   .     S
H905   O926    0.987   .     S
H908   C288    1.110   1_556 S
H912   O922    0.990   .     S
H916   C1091   1.109   .     S
O917   Zn938   1.939   .     S
O917   Zn937   1.943   .     S
O917   Zn936   1.942   .     S
O917   Zn935   1.958   .     S
O918   Zn936   1.927   .     S
O919   Zn938   1.932   .     S
O920   Zn937   1.927   .     S
O921   Zn935   1.923   .     S
O923   H1103   0.993   .     S
O923   C1081   1.385   .     S
O927   Zn935   1.934   .     S
O928   Zn938   1.939   .     S
O929   Zn936   1.938   .     S
O930   Zn937   1.944   .     S
O931   Zn938   1.940   .     S
O932   Zn935   1.936   .     S
O933   Zn936   1.942   .     S
O934   Zn937   1.937   .     S
C939   O996    1.267   .     A
C939   O998    1.267   .     A
C939   C945    1.430   .     S
C940   C954    1.409   .     A
C940   C962    1.420   .     A
C940   O992    1.382   .     S
C941   C953    1.388   .     A
C941   C954    1.414   .     A
C941   O989    1.382   .     S
C942   O997    1.291   .     A
C942   C944    1.457   .     S
C942   O999    1.269   .     A
C943   C961    1.418   .     A
C943   C952    1.484   .     S
C943   C955    1.419   .     A
C944   C811    1.352   1_655 S
C944   H844    1.088   1_655 S
C946   C949    1.464   .     S
C946   C1148   1.352   .     S
C946   C1158   1.521   .     S
C947   C948    1.439   .     S
C948   O1000   1.272   .     A
C948   O994    1.272   .     A
C949   O1001   1.276   .     A
C949   O995    1.276   .     A
C950   C955    1.416   .     A
C950   C355    1.510   1_556 S
C950   C356    1.397   1_556 S
C951   C954    1.466   .     S
C951   O987    1.284   .     A
C951   O985    1.276   .     A
C952   O988    1.291   .     A
C952   O986    1.284   .     A
C953   H966    1.083   .     S
C955   O993    1.386   .     S
C956   H982    1.111   .     S
C956   H981    1.111   .     S
C956   C811    1.514   1_655 S
C956   H846    1.112   1_655 S
C957   H968    1.111   .     S
C957   H967    1.111   .     S
C958   H973    1.110   .     S
C958   H974    1.111   .     S
C959   H976    1.079   .     S
C960   C961    1.412   .     A
C960   C356    1.409   1_556 S
C960   C359    1.425   1_556 S
C961   C965    1.409   .     A
C963   C964    1.404   .     A
C963   C359    1.423   1_556 S
C963   C350    1.402   1_556 S
C964   C965    1.398   .     A
C964   O991    1.384   .     S
C965   H977    1.080   .     S
H970   O991    0.992   .     S
H971   O992    0.989   .     S
H972   O993    0.987   .     S
H975   C355    1.110   1_556 S
H979   O989    0.990   .     S
H983   C1158   1.109   .     S
O984   Zn1005  1.939   .     S
O984   Zn1004  1.943   .     S
O984   Zn1003  1.942   .     S
O984   Zn1002  1.958   .     S
O985   Zn1003  1.927   .     S
O986   Zn1005  1.932   .     S
O987   Zn1004  1.927   .     S
O988   Zn1002  1.923   .     S
O990   H1170   0.993   .     S
O990   C1148   1.385   .     S
O994   Zn1002  1.934   .     S
O995   Zn1005  1.939   .     S
O996   Zn1003  1.938   .     S
O997   Zn1004  1.944   .     S
O998   Zn1005  1.940   .     S
O999   Zn1002  1.936   .     S
O1000  Zn1003  1.942   .     S
O1001  Zn1004  1.937   .     S
C1006  O1063   1.267   .     A
C1006  O1065   1.267   .     A
C1006  C1012   1.430   .     S
C1007  C1021   1.409   .     A
C1007  C1029   1.420   .     A
C1007  O1059   1.382   .     S
C1008  C1020   1.388   .     A
C1008  C1021   1.414   .     A
C1008  O1056   1.382   .     S
C1009  O1064   1.291   .     A
C1009  C1011   1.457   .     S
C1009  O1066   1.269   .     A
C1010  C1028   1.418   .     A
C1010  C1019   1.484   .     S
C1010  C1022   1.419   .     A
C1011  C1079   1.352   .     S
C1011  H1112   1.088   .     S
C1012  C1145   1.352   1_455 S
C1012  C1157   1.514   1_455 S
C1013  C1016   1.464   .     S
C1013  C612    1.352   1_565 S
C1013  C622    1.521   1_565 S
C1014  C1015   1.439   .     S
C1015  O1067   1.272   .     A
C1015  O1061   1.272   .     A
C1016  O1068   1.276   .     A
C1016  O1062   1.276   .     A
C1017  C1022   1.416   .     A
C1017  C422    1.510   1_556 S
C1017  C423    1.397   1_556 S
C1018  C1021   1.466   .     S
C1018  O1054   1.284   .     A
C1018  O1052   1.276   .     A
C1019  O1055   1.291   .     A
C1019  O1053   1.284   .     A
C1020  H1033   1.083   .     S
C1022  O1060   1.386   .     S
C1023  H1049   1.111   .     S
C1023  H1048   1.111   .     S
C1023  C1079   1.514   .     S
C1023  H1114   1.112   .     S
C1024  H1035   1.111   .     S
C1024  H1034   1.111   .     S
C1025  H1040   1.110   .     S
C1025  H1041   1.111   .     S
C1026  H1043   1.079   .     S
C1027  C1028   1.412   .     A
C1027  C423    1.409   1_556 S
C1027  C426    1.425   1_556 S
C1028  C1032   1.409   .     A
C1030  C1031   1.404   .     A
C1030  C426    1.423   1_556 S
C1030  C417    1.402   1_556 S
C1031  C1032   1.398   .     A
C1031  O1058   1.384   .     S
C1032  H1044   1.080   .     S
H1037  O1058   0.992   .     S
H1038  O1059   0.989   .     S
H1039  O1060   0.987   .     S
H1042  C422    1.110   1_556 S
H1045  C1145   1.088   1_455 S
H1046  O1056   0.990   .     S
H1047  C1157   1.112   1_455 S
H1050  C622    1.109   1_565 S
O1051  Zn1072  1.939   .     S
O1051  Zn1071  1.943   .     S
O1051  Zn1070  1.942   .     S
O1051  Zn1069  1.958   .     S
O1052  Zn1070  1.927   .     S
O1053  Zn1072  1.932   .     S
O1054  Zn1071  1.927   .     S
O1055  Zn1069  1.923   .     S
O1057  H634    0.993   1_565 S
O1057  C612    1.385   1_565 S
O1061  Zn1069  1.934   .     S
O1062  Zn1072  1.939   .     S
O1063  Zn1070  1.938   .     S
O1064  Zn1071  1.944   .     S
O1065  Zn1072  1.940   .     S
O1066  Zn1069  1.936   .     S
O1067  Zn1070  1.942   .     S
O1068  Zn1071  1.937   .     S
C1073  O1130   1.267   .     A
C1073  O1132   1.267   .     A
C1073  C1079   1.430   .     S
C1074  C1088   1.409   .     A
C1074  C1096   1.420   .     A
C1074  O1126   1.382   .     S
C1075  C1087   1.388   .     A
C1075  C1088   1.414   .     A
C1075  O1123   1.382   .     S
C1076  O1131   1.291   .     A
C1076  C1078   1.457   .     S
C1076  O1133   1.269   .     A
C1077  C1095   1.418   .     A
C1077  C1086   1.484   .     S
C1077  C1089   1.419   .     A
C1078  C1146   1.352   .     S
C1078  H1179   1.088   .     S
C1080  C1083   1.464   .     S
C1080  C679    1.352   1_565 S
C1080  C689    1.521   1_565 S
C1081  C1082   1.439   .     S
C1082  O1134   1.272   .     A
C1082  O1128   1.272   .     A
C1083  O1135   1.276   .     A
C1083  O1129   1.276   .     A
C1084  C1089   1.416   .     A
C1084  C489    1.510   1_556 S
C1084  C490    1.397   1_556 S
C1085  C1088   1.466   .     S
C1085  O1121   1.284   .     A
C1085  O1119   1.276   .     A
C1086  O1122   1.291   .     A
C1086  O1120   1.284   .     A
C1087  H1100   1.083   .     S
C1089  O1127   1.386   .     S
C1090  H1116   1.111   .     S
C1090  H1115   1.111   .     S
C1090  C1146   1.514   .     S
C1090  H1181   1.112   .     S
C1091  H1102   1.111   .     S
C1091  H1101   1.111   .     S
C1092  H1107   1.110   .     S
C1092  H1108   1.111   .     S
C1093  H1110   1.079   .     S
C1094  C1095   1.412   .     A
C1094  C490    1.409   1_556 S
C1094  C493    1.425   1_556 S
C1095  C1099   1.409   .     A
C1097  C1098   1.404   .     A
C1097  C493    1.423   1_556 S
C1097  C484    1.402   1_556 S
C1098  C1099   1.398   .     A
C1098  O1125   1.384   .     S
C1099  H1111   1.080   .     S
H1104  O1125   0.992   .     S
H1105  O1126   0.989   .     S
H1106  O1127   0.987   .     S
H1109  C489    1.110   1_556 S
H1113  O1123   0.990   .     S
H1117  C689    1.109   1_565 S
O1118  Zn1139  1.939   .     S
O1118  Zn1138  1.943   .     S
O1118  Zn1137  1.942   .     S
O1118  Zn1136  1.958   .     S
O1119  Zn1137  1.927   .     S
O1120  Zn1139  1.932   .     S
O1121  Zn1138  1.927   .     S
O1122  Zn1136  1.923   .     S
O1124  H701    0.993   1_565 S
O1124  C679    1.385   1_565 S
O1128  Zn1136  1.934   .     S
O1129  Zn1139  1.939   .     S
O1130  Zn1137  1.938   .     S
O1131  Zn1138  1.944   .     S
O1132  Zn1139  1.940   .     S
O1133  Zn1136  1.936   .     S
O1134  Zn1137  1.942   .     S
O1135  Zn1138  1.937   .     S
C1140  O1197   1.267   .     A
C1140  O1199   1.267   .     A
C1140  C1146   1.430   .     S
C1141  C1155   1.409   .     A
C1141  C1163   1.420   .     A
C1141  O1193   1.382   .     S
C1142  C1154   1.388   .     A
C1142  C1155   1.414   .     A
C1142  O1190   1.382   .     S
C1143  O1198   1.291   .     A
C1143  C1145   1.457   .     S
C1143  O1200   1.269   .     A
C1144  C1162   1.418   .     A
C1144  C1153   1.484   .     S
C1144  C1156   1.419   .     A
C1145  C1012   1.352   1_655 S
C1145  H1045   1.088   1_655 S
C1147  C1150   1.464   .     S
C1147  C746    1.352   1_565 S
C1147  C756    1.521   1_565 S
C1148  C1149   1.439   .     S
C1149  O1201   1.272   .     A
C1149  O1195   1.272   .     A
C1150  O1202   1.276   .     A
C1150  O1196   1.276   .     A
C1151  C1156   1.416   .     A
C1151  C556    1.510   1_556 S
C1151  C557    1.397   1_556 S
C1152  C1155   1.466   .     S
C1152  O1188   1.284   .     A
C1152  O1186   1.276   .     A
C1153  O1189   1.291   .     A
C1153  O1187   1.284   .     A
C1154  H1167   1.083   .     S
C1156  O1194   1.386   .     S
C1157  H1183   1.111   .     S
C1157  H1182   1.111   .     S
C1157  C1012   1.514   1_655 S
C1157  H1047   1.112   1_655 S
C1158  H1169   1.111   .     S
C1158  H1168   1.111   .     S
C1159  H1174   1.110   .     S
C1159  H1175   1.111   .     S
C1160  H1177   1.079   .     S
C1161  C1162   1.412   .     A
C1161  C557    1.409   1_556 S
C1161  C560    1.425   1_556 S
C1162  C1166   1.409   .     A
C1164  C1165   1.404   .     A
C1164  C560    1.423   1_556 S
C1164  C551    1.402   1_556 S
C1165  C1166   1.398   .     A
C1165  O1192   1.384   .     S
C1166  H1178   1.080   .     S
H1171  O1192   0.992   .     S
H1172  O1193   0.989   .     S
H1173  O1194   0.987   .     S
H1176  C556    1.110   1_556 S
H1180  O1190   0.990   .     S
H1184  C756    1.109   1_565 S
O1185  Zn1206  1.939   .     S
O1185  Zn1205  1.943   .     S
O1185  Zn1204  1.942   .     S
O1185  Zn1203  1.958   .     S
O1186  Zn1204  1.927   .     S
O1187  Zn1206  1.932   .     S
O1188  Zn1205  1.927   .     S
O1189  Zn1203  1.923   .     S
O1191  H768    0.993   1_565 S
O1191  C746    1.385   1_565 S
O1195  Zn1203  1.934   .     S
O1196  Zn1206  1.939   .     S
O1197  Zn1204  1.938   .     S
O1198  Zn1205  1.944   .     S
O1199  Zn1206  1.940   .     S
O1200  Zn1203  1.936   .     S
O1201  Zn1204  1.942   .     S
O1202  Zn1205  1.937   .     S
