data_str_m1_o10_o16_pcu_sym.20
_audit_creation_date              2020-01-03
_audit_creation_method            'Materials Studio'
_symmetry_space_group_name_H-M    'P1'
_symmetry_Int_Tables_number       1
_symmetry_cell_setting            triclinic
loop_
_symmetry_equiv_pos_as_xyz
  x,y,z
_cell_length_a                    32.6730
_cell_length_b                    32.6419
_cell_length_c                    31.1668
_cell_angle_alpha                 96.9623
_cell_angle_beta                  74.6198
_cell_angle_gamma                 98.3695
loop_
_atom_site_label
_atom_site_type_symbol
_atom_site_fract_x
_atom_site_fract_y
_atom_site_fract_z
_atom_site_U_iso_or_equiv
_atom_site_adp_type
_atom_site_occupancy
C1     C     0.05311   0.16023   0.25940   0.00000  Uiso   1.00
C2     C     0.17265   0.16744   0.06063   0.00000  Uiso   1.00
C3     C     0.20586   0.10497   0.05923   0.00000  Uiso   1.00
C4     C     0.28057   0.17364   0.24026   0.00000  Uiso   1.00
C5     C     0.14589   0.19794   0.41893   0.00000  Uiso   1.00
C6     C     0.32617   0.17527   0.23678   0.00000  Uiso   1.00
C7     C     0.00797   0.15710   0.26517   0.00000  Uiso   1.00
C8     C     0.17968   0.32255   0.23727   0.00000  Uiso   1.00
C9     C     0.15036   0.01249   0.26402   0.00000  Uiso   1.00
C10    C     0.15597   0.05620   0.26016   0.00000  Uiso   1.00
C11    C     0.17618   0.27781   0.24023   0.00000  Uiso   1.00
C12    C     0.14994   0.25491   0.47685   0.00000  Uiso   1.00
C13    C     0.18543   0.14773   0.12964   0.00000  Uiso   1.00
C14    C     0.14866   0.18508   0.37095   0.00000  Uiso   1.00
C15    C     0.20180   0.09293   0.01623   0.00000  Uiso   1.00
C16    C     0.19018   0.14128   0.08183   0.00000  Uiso   1.00
C17    C     0.14097   0.23997   0.43583   0.00000  Uiso   1.00
C18    C     0.31547   0.13570   0.30320   0.00000  Uiso   1.00
C19    C     0.20956   0.00392   0.16522   0.00000  Uiso   1.00
C20    C     0.24695   0.02832   0.13479   0.00000  Uiso   1.00
C21    C     0.11018   0.32967   0.29299   0.00000  Uiso   1.00
C22    C     0.14662   0.19789   0.08864   0.00000  Uiso   1.00
C23    C     0.16336   0.22873   0.00095   0.00000  Uiso   1.00
C24    C     0.13015   0.26924   0.41024   0.00000  Uiso   1.00
C25    C     0.14721   0.29784   0.49432   0.00000  Uiso   1.00
C26    C     0.16299   0.18579   0.48828   0.00000  Uiso   1.00
C27    C     0.15478   0.17034   0.44640   0.00000  Uiso   1.00
C28    C     0.17366   0.15817   0.01467   0.00000  Uiso   1.00
C29    C     0.18413   0.11830   0.49460   0.00000  Uiso   1.00
C30    C     0.17443   0.10310   0.45436   0.00000  Uiso   1.00
C31    C     0.15689   0.12772   0.43244   0.00000  Uiso   1.00
H32    H     0.21841   0.08448   0.07611   0.00000  Uiso   1.00
H33    H     0.24320   0.02393   0.10009   0.00000  Uiso   1.00
H34    H     0.24808   0.06194   0.14633   0.00000  Uiso   1.00
H35    H     0.17882   0.07142   0.44064   0.00000  Uiso   1.00
H36    H     0.21147   0.06325   0.00029   0.00000  Uiso   1.00
H37    H     0.17564   0.24304   0.02880   0.00000  Uiso   1.00
H38    H     0.14601   0.11291   0.40388   0.00000  Uiso   1.00
H39    H     0.01505   0.19164   0.20998   0.00000  Uiso   1.00
H40    H     0.17967   0.01627   0.16464   0.00000  Uiso   1.00
H41    H     0.20815   0.30409   0.15162   0.00000  Uiso   1.00
H42    H     0.27743   0.01719   0.13504   0.00000  Uiso   1.00
N43    N     0.29499   0.11861   0.33361   0.00000  Uiso   1.00
N44    N     0.07798   0.31695   0.31606   0.00000  Uiso   1.00
N45    N     0.12584   0.22196   0.11118   0.00000  Uiso   1.00
N46    N     0.12158   0.29277   0.39001   0.00000  Uiso   1.00
N47    N     0.14482   0.33212   0.00839   0.00000  Uiso   1.00
O48    O     0.16667   0.16667   0.25000   0.00000  Uiso   1.00
O49    O     0.15451   0.12637   0.15458   0.00000  Uiso   1.00
O50    O     0.12940   0.20391   0.34968   0.00000  Uiso   1.00
O51    O     0.20824   0.17759   0.14606   0.00000  Uiso   1.00
O52    O     0.17451   0.15880   0.34968   0.00000  Uiso   1.00
O53    O     0.21571   0.00832   0.20882   0.00000  Uiso   1.00
O54    O     0.17930   0.08019   0.28213   0.00000  Uiso   1.00
O55    O     0.14632   0.26085   0.27013   0.00000  Uiso   1.00
O56    O     0.07412   0.13291   0.23413   0.00000  Uiso   1.00
O57    O     0.26693   0.19272   0.21360   0.00000  Uiso   1.00
O58    O     0.07071   0.18878   0.28213   0.00000  Uiso   1.00
O59    O     0.25491   0.15226   0.27013   0.00000  Uiso   1.00
O60    O     0.13760   0.06944   0.23413   0.00000  Uiso   1.00
O61    O     0.20345   0.25620   0.21360   0.00000  Uiso   1.00
Zn62   Zn    0.19338   0.13994   0.28734   0.00000  Uiso   1.00
Zn63   Zn    0.13379   0.12458   0.21875   0.00000  Uiso   1.00
Zn64   Zn    0.21056   0.19775   0.20657   0.00000  Uiso   1.00
Zn65   Zn    0.12893   0.20439   0.28733   0.00000  Uiso   1.00
C66    C     0.38644   0.16023   0.25940   0.00000  Uiso   1.00
C67    C     0.50598   0.16744   0.06063   0.00000  Uiso   1.00
C68    C     0.53919   0.10497   0.05923   0.00000  Uiso   1.00
C69    C     0.61390   0.17364   0.24026   0.00000  Uiso   1.00
C70    C     0.47923   0.19794   0.41893   0.00000  Uiso   1.00
C71    C     0.65951   0.17527   0.23678   0.00000  Uiso   1.00
C72    C     0.34130   0.15710   0.26517   0.00000  Uiso   1.00
C73    C     0.51301   0.32255   0.23727   0.00000  Uiso   1.00
C74    C     0.48369   0.01249   0.26402   0.00000  Uiso   1.00
C75    C     0.48930   0.05620   0.26016   0.00000  Uiso   1.00
C76    C     0.50952   0.27781   0.24023   0.00000  Uiso   1.00
C77    C     0.48327   0.25491   0.47685   0.00000  Uiso   1.00
C78    C     0.51876   0.14773   0.12964   0.00000  Uiso   1.00
C79    C     0.48199   0.18508   0.37095   0.00000  Uiso   1.00
C80    C     0.53514   0.09293   0.01623   0.00000  Uiso   1.00
C81    C     0.52351   0.14128   0.08183   0.00000  Uiso   1.00
C82    C     0.47430   0.23997   0.43583   0.00000  Uiso   1.00
C83    C     0.64880   0.13570   0.30320   0.00000  Uiso   1.00
C84    C     0.54290   0.00392   0.16522   0.00000  Uiso   1.00
C85    C     0.58029   0.02832   0.13479   0.00000  Uiso   1.00
C86    C     0.44351   0.32967   0.29299   0.00000  Uiso   1.00
C87    C     0.47995   0.19789   0.08864   0.00000  Uiso   1.00
C88    C     0.49669   0.22873   0.00095   0.00000  Uiso   1.00
C89    C     0.46348   0.26924   0.41024   0.00000  Uiso   1.00
C90    C     0.48054   0.29784   0.49432   0.00000  Uiso   1.00
C91    C     0.49632   0.18579   0.48828   0.00000  Uiso   1.00
C92    C     0.48811   0.17034   0.44640   0.00000  Uiso   1.00
C93    C     0.50700   0.15817   0.01467   0.00000  Uiso   1.00
C94    C     0.51747   0.11830   0.49460   0.00000  Uiso   1.00
C95    C     0.50776   0.10310   0.45436   0.00000  Uiso   1.00
C96    C     0.49022   0.12772   0.43244   0.00000  Uiso   1.00
H97    H     0.55174   0.08448   0.07611   0.00000  Uiso   1.00
H98    H     0.57653   0.02393   0.10009   0.00000  Uiso   1.00
H99    H     0.58141   0.06194   0.14633   0.00000  Uiso   1.00
H100   H     0.51216   0.07142   0.44064   0.00000  Uiso   1.00
H101   H     0.54480   0.06325   0.00029   0.00000  Uiso   1.00
H102   H     0.50897   0.24304   0.02880   0.00000  Uiso   1.00
H103   H     0.47934   0.11291   0.40388   0.00000  Uiso   1.00
H104   H     0.34839   0.19164   0.20998   0.00000  Uiso   1.00
H105   H     0.51300   0.01627   0.16464   0.00000  Uiso   1.00
H106   H     0.54148   0.30409   0.15162   0.00000  Uiso   1.00
H107   H     0.61076   0.01719   0.13504   0.00000  Uiso   1.00
N108   N     0.62833   0.11861   0.33361   0.00000  Uiso   1.00
N109   N     0.41132   0.31695   0.31606   0.00000  Uiso   1.00
N110   N     0.45917   0.22196   0.11118   0.00000  Uiso   1.00
N111   N     0.45492   0.29277   0.39001   0.00000  Uiso   1.00
N112   N     0.47815   0.33212   0.00839   0.00000  Uiso   1.00
O113   O     0.50000   0.16667   0.25000   0.00000  Uiso   1.00
O114   O     0.48784   0.12637   0.15458   0.00000  Uiso   1.00
O115   O     0.46274   0.20391   0.34968   0.00000  Uiso   1.00
O116   O     0.54157   0.17759   0.14606   0.00000  Uiso   1.00
O117   O     0.50785   0.15880   0.34968   0.00000  Uiso   1.00
O118   O     0.54905   0.00832   0.20882   0.00000  Uiso   1.00
O119   O     0.51264   0.08019   0.28213   0.00000  Uiso   1.00
O120   O     0.47965   0.26085   0.27013   0.00000  Uiso   1.00
O121   O     0.40745   0.13291   0.23413   0.00000  Uiso   1.00
O122   O     0.60026   0.19272   0.21360   0.00000  Uiso   1.00
O123   O     0.40405   0.18878   0.28213   0.00000  Uiso   1.00
O124   O     0.58824   0.15226   0.27013   0.00000  Uiso   1.00
O125   O     0.47093   0.06944   0.23413   0.00000  Uiso   1.00
O126   O     0.53678   0.25620   0.21360   0.00000  Uiso   1.00
Zn127  Zn    0.52672   0.13994   0.28734   0.00000  Uiso   1.00
Zn128  Zn    0.46713   0.12458   0.21875   0.00000  Uiso   1.00
Zn129  Zn    0.54389   0.19775   0.20657   0.00000  Uiso   1.00
Zn130  Zn    0.46226   0.20439   0.28733   0.00000  Uiso   1.00
C131   C     0.71978   0.16023   0.25940   0.00000  Uiso   1.00
C132   C     0.83931   0.16744   0.06063   0.00000  Uiso   1.00
C133   C     0.87252   0.10497   0.05923   0.00000  Uiso   1.00
C134   C     0.94723   0.17364   0.24026   0.00000  Uiso   1.00
C135   C     0.81256   0.19794   0.41893   0.00000  Uiso   1.00
C136   C     0.99284   0.17527   0.23678   0.00000  Uiso   1.00
C137   C     0.67463   0.15710   0.26517   0.00000  Uiso   1.00
C138   C     0.84634   0.32255   0.23727   0.00000  Uiso   1.00
C139   C     0.81702   0.01249   0.26402   0.00000  Uiso   1.00
C140   C     0.82264   0.05620   0.26016   0.00000  Uiso   1.00
C141   C     0.84285   0.27781   0.24023   0.00000  Uiso   1.00
C142   C     0.81661   0.25491   0.47685   0.00000  Uiso   1.00
C143   C     0.85210   0.14773   0.12964   0.00000  Uiso   1.00
C144   C     0.81533   0.18508   0.37095   0.00000  Uiso   1.00
C145   C     0.86847   0.09293   0.01623   0.00000  Uiso   1.00
C146   C     0.85685   0.14128   0.08183   0.00000  Uiso   1.00
C147   C     0.80764   0.23997   0.43583   0.00000  Uiso   1.00
C148   C     0.98213   0.13570   0.30320   0.00000  Uiso   1.00
C149   C     0.87623   0.00392   0.16522   0.00000  Uiso   1.00
C150   C     0.91362   0.02832   0.13479   0.00000  Uiso   1.00
C151   C     0.77684   0.32967   0.29299   0.00000  Uiso   1.00
C152   C     0.81329   0.19789   0.08864   0.00000  Uiso   1.00
C153   C     0.83002   0.22873   0.00095   0.00000  Uiso   1.00
C154   C     0.79682   0.26924   0.41024   0.00000  Uiso   1.00
C155   C     0.81388   0.29784   0.49432   0.00000  Uiso   1.00
C156   C     0.82965   0.18579   0.48828   0.00000  Uiso   1.00
C157   C     0.82145   0.17034   0.44640   0.00000  Uiso   1.00
C158   C     0.84033   0.15817   0.01467   0.00000  Uiso   1.00
C159   C     0.85080   0.11830   0.49460   0.00000  Uiso   1.00
C160   C     0.84109   0.10310   0.45436   0.00000  Uiso   1.00
C161   C     0.82356   0.12772   0.43244   0.00000  Uiso   1.00
H162   H     0.88507   0.08448   0.07611   0.00000  Uiso   1.00
H163   H     0.90986   0.02393   0.10009   0.00000  Uiso   1.00
H164   H     0.91475   0.06194   0.14633   0.00000  Uiso   1.00
H165   H     0.84549   0.07142   0.44064   0.00000  Uiso   1.00
H166   H     0.87813   0.06325   0.00029   0.00000  Uiso   1.00
H167   H     0.84230   0.24304   0.02880   0.00000  Uiso   1.00
H168   H     0.81268   0.11291   0.40388   0.00000  Uiso   1.00
H169   H     0.68172   0.19164   0.20998   0.00000  Uiso   1.00
H170   H     0.84634   0.01627   0.16464   0.00000  Uiso   1.00
H171   H     0.87482   0.30409   0.15162   0.00000  Uiso   1.00
H172   H     0.94410   0.01719   0.13504   0.00000  Uiso   1.00
N173   N     0.96166   0.11861   0.33361   0.00000  Uiso   1.00
N174   N     0.74465   0.31695   0.31606   0.00000  Uiso   1.00
N175   N     0.79251   0.22196   0.11118   0.00000  Uiso   1.00
N176   N     0.78825   0.29277   0.39001   0.00000  Uiso   1.00
N177   N     0.81149   0.33212   0.00839   0.00000  Uiso   1.00
O178   O     0.83333   0.16667   0.25000   0.00000  Uiso   1.00
O179   O     0.82118   0.12637   0.15458   0.00000  Uiso   1.00
O180   O     0.79607   0.20391   0.34968   0.00000  Uiso   1.00
O181   O     0.87491   0.17759   0.14606   0.00000  Uiso   1.00
O182   O     0.84118   0.15880   0.34968   0.00000  Uiso   1.00
O183   O     0.88238   0.00832   0.20882   0.00000  Uiso   1.00
O184   O     0.84597   0.08019   0.28213   0.00000  Uiso   1.00
O185   O     0.81298   0.26085   0.27013   0.00000  Uiso   1.00
O186   O     0.74078   0.13291   0.23413   0.00000  Uiso   1.00
O187   O     0.93360   0.19272   0.21360   0.00000  Uiso   1.00
O188   O     0.73738   0.18878   0.28213   0.00000  Uiso   1.00
O189   O     0.92158   0.15226   0.27013   0.00000  Uiso   1.00
O190   O     0.80426   0.06944   0.23413   0.00000  Uiso   1.00
O191   O     0.87012   0.25620   0.21360   0.00000  Uiso   1.00
Zn192  Zn    0.86005   0.13994   0.28734   0.00000  Uiso   1.00
Zn193  Zn    0.80046   0.12458   0.21875   0.00000  Uiso   1.00
Zn194  Zn    0.87723   0.19775   0.20657   0.00000  Uiso   1.00
Zn195  Zn    0.79560   0.20439   0.28733   0.00000  Uiso   1.00
C196   C     0.05311   0.49356   0.25940   0.00000  Uiso   1.00
C197   C     0.17265   0.50077   0.06063   0.00000  Uiso   1.00
C198   C     0.20586   0.43831   0.05923   0.00000  Uiso   1.00
C199   C     0.28057   0.50698   0.24026   0.00000  Uiso   1.00
C200   C     0.14589   0.53127   0.41893   0.00000  Uiso   1.00
C201   C     0.32617   0.50860   0.23678   0.00000  Uiso   1.00
C202   C     0.00797   0.49044   0.26517   0.00000  Uiso   1.00
C203   C     0.17968   0.65588   0.23727   0.00000  Uiso   1.00
C204   C     0.15036   0.34583   0.26402   0.00000  Uiso   1.00
C205   C     0.15597   0.38953   0.26016   0.00000  Uiso   1.00
C206   C     0.17618   0.61114   0.24023   0.00000  Uiso   1.00
C207   C     0.14994   0.58824   0.47685   0.00000  Uiso   1.00
C208   C     0.18543   0.48107   0.12964   0.00000  Uiso   1.00
C209   C     0.14866   0.51842   0.37095   0.00000  Uiso   1.00
C210   C     0.20180   0.42626   0.01623   0.00000  Uiso   1.00
C211   C     0.19018   0.47462   0.08183   0.00000  Uiso   1.00
C212   C     0.14097   0.57330   0.43583   0.00000  Uiso   1.00
C213   C     0.31547   0.46904   0.30320   0.00000  Uiso   1.00
C214   C     0.20956   0.33725   0.16522   0.00000  Uiso   1.00
C215   C     0.24695   0.36165   0.13479   0.00000  Uiso   1.00
C216   C     0.11018   0.66300   0.29299   0.00000  Uiso   1.00
C217   C     0.14662   0.53122   0.08864   0.00000  Uiso   1.00
C218   C     0.16336   0.56206   0.00095   0.00000  Uiso   1.00
C219   C     0.13015   0.60257   0.41024   0.00000  Uiso   1.00
C220   C     0.14721   0.63118   0.49432   0.00000  Uiso   1.00
C221   C     0.16299   0.51912   0.48828   0.00000  Uiso   1.00
C222   C     0.15478   0.50367   0.44640   0.00000  Uiso   1.00
C223   C     0.17366   0.49150   0.01467   0.00000  Uiso   1.00
C224   C     0.18413   0.45163   0.49460   0.00000  Uiso   1.00
C225   C     0.17443   0.43643   0.45436   0.00000  Uiso   1.00
C226   C     0.15689   0.46106   0.43244   0.00000  Uiso   1.00
H227   H     0.21841   0.41781   0.07611   0.00000  Uiso   1.00
H228   H     0.24320   0.35726   0.10009   0.00000  Uiso   1.00
H229   H     0.24808   0.39527   0.14633   0.00000  Uiso   1.00
H230   H     0.17882   0.40476   0.44064   0.00000  Uiso   1.00
H231   H     0.21147   0.39658   0.00029   0.00000  Uiso   1.00
H232   H     0.17564   0.57637   0.02880   0.00000  Uiso   1.00
H233   H     0.14601   0.44624   0.40388   0.00000  Uiso   1.00
H234   H     0.01505   0.52497   0.20998   0.00000  Uiso   1.00
H235   H     0.17967   0.34961   0.16464   0.00000  Uiso   1.00
H236   H     0.20815   0.63742   0.15162   0.00000  Uiso   1.00
H237   H     0.27743   0.35053   0.13504   0.00000  Uiso   1.00
N238   N     0.29499   0.45195   0.33361   0.00000  Uiso   1.00
N239   N     0.07798   0.65028   0.31606   0.00000  Uiso   1.00
N240   N     0.12584   0.55530   0.11118   0.00000  Uiso   1.00
N241   N     0.12158   0.62610   0.39001   0.00000  Uiso   1.00
N242   N     0.14482   0.66545   0.00839   0.00000  Uiso   1.00
O243   O     0.16667   0.50000   0.25000   0.00000  Uiso   1.00
O244   O     0.15451   0.45970   0.15458   0.00000  Uiso   1.00
O245   O     0.12940   0.53724   0.34968   0.00000  Uiso   1.00
O246   O     0.20824   0.51092   0.14606   0.00000  Uiso   1.00
O247   O     0.17451   0.49213   0.34968   0.00000  Uiso   1.00
O248   O     0.21571   0.34166   0.20882   0.00000  Uiso   1.00
O249   O     0.17930   0.41352   0.28213   0.00000  Uiso   1.00
O250   O     0.14632   0.59418   0.27013   0.00000  Uiso   1.00
O251   O     0.07412   0.46625   0.23413   0.00000  Uiso   1.00
O252   O     0.26693   0.52605   0.21360   0.00000  Uiso   1.00
O253   O     0.07071   0.52211   0.28213   0.00000  Uiso   1.00
O254   O     0.25491   0.48559   0.27013   0.00000  Uiso   1.00
O255   O     0.13760   0.40277   0.23413   0.00000  Uiso   1.00
O256   O     0.20345   0.58953   0.21360   0.00000  Uiso   1.00
Zn257  Zn    0.19338   0.47327   0.28734   0.00000  Uiso   1.00
Zn258  Zn    0.13379   0.45791   0.21875   0.00000  Uiso   1.00
Zn259  Zn    0.21056   0.53109   0.20657   0.00000  Uiso   1.00
Zn260  Zn    0.12893   0.53773   0.28733   0.00000  Uiso   1.00
C261   C     0.38644   0.49356   0.25940   0.00000  Uiso   1.00
C262   C     0.50598   0.50077   0.06063   0.00000  Uiso   1.00
C263   C     0.53919   0.43831   0.05923   0.00000  Uiso   1.00
C264   C     0.61390   0.50698   0.24026   0.00000  Uiso   1.00
C265   C     0.47923   0.53127   0.41893   0.00000  Uiso   1.00
C266   C     0.65951   0.50860   0.23678   0.00000  Uiso   1.00
C267   C     0.34130   0.49044   0.26517   0.00000  Uiso   1.00
C268   C     0.51301   0.65588   0.23727   0.00000  Uiso   1.00
C269   C     0.48369   0.34583   0.26402   0.00000  Uiso   1.00
C270   C     0.48930   0.38953   0.26016   0.00000  Uiso   1.00
C271   C     0.50952   0.61114   0.24023   0.00000  Uiso   1.00
C272   C     0.48327   0.58824   0.47685   0.00000  Uiso   1.00
C273   C     0.51876   0.48107   0.12964   0.00000  Uiso   1.00
C274   C     0.48199   0.51842   0.37095   0.00000  Uiso   1.00
C275   C     0.53514   0.42626   0.01623   0.00000  Uiso   1.00
C276   C     0.52351   0.47462   0.08183   0.00000  Uiso   1.00
C277   C     0.47430   0.57330   0.43583   0.00000  Uiso   1.00
C278   C     0.64880   0.46904   0.30320   0.00000  Uiso   1.00
C279   C     0.54290   0.33725   0.16522   0.00000  Uiso   1.00
C280   C     0.58029   0.36165   0.13479   0.00000  Uiso   1.00
C281   C     0.44351   0.66300   0.29299   0.00000  Uiso   1.00
C282   C     0.47995   0.53122   0.08864   0.00000  Uiso   1.00
C283   C     0.49669   0.56206   0.00095   0.00000  Uiso   1.00
C284   C     0.46348   0.60257   0.41024   0.00000  Uiso   1.00
C285   C     0.48054   0.63118   0.49432   0.00000  Uiso   1.00
C286   C     0.49632   0.51912   0.48828   0.00000  Uiso   1.00
C287   C     0.48811   0.50367   0.44640   0.00000  Uiso   1.00
C288   C     0.50700   0.49150   0.01467   0.00000  Uiso   1.00
C289   C     0.51747   0.45163   0.49460   0.00000  Uiso   1.00
C290   C     0.50776   0.43643   0.45436   0.00000  Uiso   1.00
C291   C     0.49022   0.46106   0.43244   0.00000  Uiso   1.00
H292   H     0.55174   0.41781   0.07611   0.00000  Uiso   1.00
H293   H     0.57653   0.35726   0.10009   0.00000  Uiso   1.00
H294   H     0.58141   0.39527   0.14633   0.00000  Uiso   1.00
H295   H     0.51216   0.40476   0.44064   0.00000  Uiso   1.00
H296   H     0.54480   0.39658   0.00029   0.00000  Uiso   1.00
H297   H     0.50897   0.57637   0.02880   0.00000  Uiso   1.00
H298   H     0.47934   0.44624   0.40388   0.00000  Uiso   1.00
H299   H     0.34839   0.52497   0.20998   0.00000  Uiso   1.00
H300   H     0.51300   0.34961   0.16464   0.00000  Uiso   1.00
H301   H     0.54148   0.63742   0.15162   0.00000  Uiso   1.00
H302   H     0.61076   0.35053   0.13504   0.00000  Uiso   1.00
N303   N     0.62833   0.45195   0.33361   0.00000  Uiso   1.00
N304   N     0.41132   0.65028   0.31606   0.00000  Uiso   1.00
N305   N     0.45917   0.55530   0.11118   0.00000  Uiso   1.00
N306   N     0.45492   0.62610   0.39001   0.00000  Uiso   1.00
N307   N     0.47815   0.66545   0.00839   0.00000  Uiso   1.00
O308   O     0.50000   0.50000   0.25000   0.00000  Uiso   1.00
O309   O     0.48784   0.45970   0.15458   0.00000  Uiso   1.00
O310   O     0.46274   0.53724   0.34968   0.00000  Uiso   1.00
O311   O     0.54157   0.51092   0.14606   0.00000  Uiso   1.00
O312   O     0.50785   0.49213   0.34968   0.00000  Uiso   1.00
O313   O     0.54905   0.34166   0.20882   0.00000  Uiso   1.00
O314   O     0.51264   0.41352   0.28213   0.00000  Uiso   1.00
O315   O     0.47965   0.59418   0.27013   0.00000  Uiso   1.00
O316   O     0.40745   0.46625   0.23413   0.00000  Uiso   1.00
O317   O     0.60026   0.52605   0.21360   0.00000  Uiso   1.00
O318   O     0.40405   0.52211   0.28213   0.00000  Uiso   1.00
O319   O     0.58824   0.48559   0.27013   0.00000  Uiso   1.00
O320   O     0.47093   0.40277   0.23413   0.00000  Uiso   1.00
O321   O     0.53678   0.58953   0.21360   0.00000  Uiso   1.00
Zn322  Zn    0.52672   0.47327   0.28734   0.00000  Uiso   1.00
Zn323  Zn    0.46713   0.45791   0.21875   0.00000  Uiso   1.00
Zn324  Zn    0.54389   0.53109   0.20657   0.00000  Uiso   1.00
Zn325  Zn    0.46226   0.53773   0.28733   0.00000  Uiso   1.00
C326   C     0.71978   0.49356   0.25940   0.00000  Uiso   1.00
C327   C     0.83931   0.50077   0.06063   0.00000  Uiso   1.00
C328   C     0.87252   0.43831   0.05923   0.00000  Uiso   1.00
C329   C     0.94723   0.50698   0.24026   0.00000  Uiso   1.00
C330   C     0.81256   0.53127   0.41893   0.00000  Uiso   1.00
C331   C     0.99284   0.50860   0.23678   0.00000  Uiso   1.00
C332   C     0.67463   0.49044   0.26517   0.00000  Uiso   1.00
C333   C     0.84634   0.65588   0.23727   0.00000  Uiso   1.00
C334   C     0.81702   0.34583   0.26402   0.00000  Uiso   1.00
C335   C     0.82264   0.38953   0.26016   0.00000  Uiso   1.00
C336   C     0.84285   0.61114   0.24023   0.00000  Uiso   1.00
C337   C     0.81661   0.58824   0.47685   0.00000  Uiso   1.00
C338   C     0.85210   0.48107   0.12964   0.00000  Uiso   1.00
C339   C     0.81533   0.51842   0.37095   0.00000  Uiso   1.00
C340   C     0.86847   0.42626   0.01623   0.00000  Uiso   1.00
C341   C     0.85685   0.47462   0.08183   0.00000  Uiso   1.00
C342   C     0.80764   0.57330   0.43583   0.00000  Uiso   1.00
C343   C     0.98213   0.46904   0.30320   0.00000  Uiso   1.00
C344   C     0.87623   0.33725   0.16522   0.00000  Uiso   1.00
C345   C     0.91362   0.36165   0.13479   0.00000  Uiso   1.00
C346   C     0.77684   0.66300   0.29299   0.00000  Uiso   1.00
C347   C     0.81329   0.53122   0.08864   0.00000  Uiso   1.00
C348   C     0.83002   0.56206   0.00095   0.00000  Uiso   1.00
C349   C     0.79682   0.60257   0.41024   0.00000  Uiso   1.00
C350   C     0.81388   0.63118   0.49432   0.00000  Uiso   1.00
C351   C     0.82965   0.51912   0.48828   0.00000  Uiso   1.00
C352   C     0.82145   0.50367   0.44640   0.00000  Uiso   1.00
C353   C     0.84033   0.49150   0.01467   0.00000  Uiso   1.00
C354   C     0.85080   0.45163   0.49460   0.00000  Uiso   1.00
C355   C     0.84109   0.43643   0.45436   0.00000  Uiso   1.00
C356   C     0.82356   0.46106   0.43244   0.00000  Uiso   1.00
H357   H     0.88507   0.41781   0.07611   0.00000  Uiso   1.00
H358   H     0.90986   0.35726   0.10009   0.00000  Uiso   1.00
H359   H     0.91475   0.39527   0.14633   0.00000  Uiso   1.00
H360   H     0.84549   0.40476   0.44064   0.00000  Uiso   1.00
H361   H     0.87813   0.39658   0.00029   0.00000  Uiso   1.00
H362   H     0.84230   0.57637   0.02880   0.00000  Uiso   1.00
H363   H     0.81268   0.44624   0.40388   0.00000  Uiso   1.00
H364   H     0.68172   0.52497   0.20998   0.00000  Uiso   1.00
H365   H     0.84634   0.34961   0.16464   0.00000  Uiso   1.00
H366   H     0.87482   0.63742   0.15162   0.00000  Uiso   1.00
H367   H     0.94410   0.35053   0.13504   0.00000  Uiso   1.00
N368   N     0.96166   0.45195   0.33361   0.00000  Uiso   1.00
N369   N     0.74465   0.65028   0.31606   0.00000  Uiso   1.00
N370   N     0.79251   0.55530   0.11118   0.00000  Uiso   1.00
N371   N     0.78825   0.62610   0.39001   0.00000  Uiso   1.00
N372   N     0.81149   0.66545   0.00839   0.00000  Uiso   1.00
O373   O     0.83333   0.50000   0.25000   0.00000  Uiso   1.00
O374   O     0.82118   0.45970   0.15458   0.00000  Uiso   1.00
O375   O     0.79607   0.53724   0.34968   0.00000  Uiso   1.00
O376   O     0.87491   0.51092   0.14606   0.00000  Uiso   1.00
O377   O     0.84118   0.49213   0.34968   0.00000  Uiso   1.00
O378   O     0.88238   0.34166   0.20882   0.00000  Uiso   1.00
O379   O     0.84597   0.41352   0.28213   0.00000  Uiso   1.00
O380   O     0.81298   0.59418   0.27013   0.00000  Uiso   1.00
O381   O     0.74078   0.46625   0.23413   0.00000  Uiso   1.00
O382   O     0.93360   0.52605   0.21360   0.00000  Uiso   1.00
O383   O     0.73738   0.52211   0.28213   0.00000  Uiso   1.00
O384   O     0.92158   0.48559   0.27013   0.00000  Uiso   1.00
O385   O     0.80426   0.40277   0.23413   0.00000  Uiso   1.00
O386   O     0.87012   0.58953   0.21360   0.00000  Uiso   1.00
Zn387  Zn    0.86005   0.47327   0.28734   0.00000  Uiso   1.00
Zn388  Zn    0.80046   0.45791   0.21875   0.00000  Uiso   1.00
Zn389  Zn    0.87723   0.53109   0.20657   0.00000  Uiso   1.00
Zn390  Zn    0.79560   0.53773   0.28733   0.00000  Uiso   1.00
C391   C     0.05311   0.82689   0.25940   0.00000  Uiso   1.00
C392   C     0.17265   0.83411   0.06063   0.00000  Uiso   1.00
C393   C     0.20586   0.77164   0.05923   0.00000  Uiso   1.00
C394   C     0.28057   0.84031   0.24026   0.00000  Uiso   1.00
C395   C     0.14589   0.86461   0.41893   0.00000  Uiso   1.00
C396   C     0.32617   0.84194   0.23678   0.00000  Uiso   1.00
C397   C     0.00797   0.82377   0.26517   0.00000  Uiso   1.00
C398   C     0.17968   0.98922   0.23727   0.00000  Uiso   1.00
C399   C     0.15036   0.67916   0.26402   0.00000  Uiso   1.00
C400   C     0.15597   0.72286   0.26016   0.00000  Uiso   1.00
C401   C     0.17618   0.94447   0.24023   0.00000  Uiso   1.00
C402   C     0.14994   0.92157   0.47685   0.00000  Uiso   1.00
C403   C     0.18543   0.81440   0.12964   0.00000  Uiso   1.00
C404   C     0.14866   0.85175   0.37095   0.00000  Uiso   1.00
C405   C     0.20180   0.75959   0.01623   0.00000  Uiso   1.00
C406   C     0.19018   0.80795   0.08183   0.00000  Uiso   1.00
C407   C     0.14097   0.90664   0.43583   0.00000  Uiso   1.00
C408   C     0.31547   0.80237   0.30320   0.00000  Uiso   1.00
C409   C     0.20956   0.67059   0.16522   0.00000  Uiso   1.00
C410   C     0.24695   0.69499   0.13479   0.00000  Uiso   1.00
C411   C     0.11018   0.99633   0.29299   0.00000  Uiso   1.00
C412   C     0.14662   0.86456   0.08864   0.00000  Uiso   1.00
C413   C     0.16336   0.89539   0.00095   0.00000  Uiso   1.00
C414   C     0.13015   0.93590   0.41024   0.00000  Uiso   1.00
C415   C     0.14721   0.96451   0.49432   0.00000  Uiso   1.00
C416   C     0.16299   0.85245   0.48828   0.00000  Uiso   1.00
C417   C     0.15478   0.83700   0.44640   0.00000  Uiso   1.00
C418   C     0.17366   0.82484   0.01467   0.00000  Uiso   1.00
C419   C     0.18413   0.78497   0.49460   0.00000  Uiso   1.00
C420   C     0.17443   0.76976   0.45436   0.00000  Uiso   1.00
C421   C     0.15689   0.79439   0.43244   0.00000  Uiso   1.00
H422   H     0.21841   0.75114   0.07611   0.00000  Uiso   1.00
H423   H     0.24320   0.69059   0.10009   0.00000  Uiso   1.00
H424   H     0.24808   0.72860   0.14633   0.00000  Uiso   1.00
H425   H     0.17882   0.73809   0.44064   0.00000  Uiso   1.00
H426   H     0.21147   0.72992   0.00029   0.00000  Uiso   1.00
H427   H     0.17564   0.90971   0.02880   0.00000  Uiso   1.00
H428   H     0.14601   0.77957   0.40388   0.00000  Uiso   1.00
H429   H     0.01505   0.85830   0.20998   0.00000  Uiso   1.00
H430   H     0.17967   0.68294   0.16464   0.00000  Uiso   1.00
H431   H     0.20815   0.97076   0.15162   0.00000  Uiso   1.00
H432   H     0.27743   0.68386   0.13504   0.00000  Uiso   1.00
N433   N     0.29499   0.78528   0.33361   0.00000  Uiso   1.00
N434   N     0.07798   0.98362   0.31606   0.00000  Uiso   1.00
N435   N     0.12584   0.88863   0.11118   0.00000  Uiso   1.00
N436   N     0.12158   0.95943   0.39001   0.00000  Uiso   1.00
N437   N     0.14482   0.99878   0.00839   0.00000  Uiso   1.00
O438   O     0.16667   0.83333   0.25000   0.00000  Uiso   1.00
O439   O     0.15451   0.79304   0.15458   0.00000  Uiso   1.00
O440   O     0.12940   0.87058   0.34968   0.00000  Uiso   1.00
O441   O     0.20824   0.84425   0.14606   0.00000  Uiso   1.00
O442   O     0.17451   0.82546   0.34968   0.00000  Uiso   1.00
O443   O     0.21571   0.67499   0.20882   0.00000  Uiso   1.00
O444   O     0.17930   0.74686   0.28213   0.00000  Uiso   1.00
O445   O     0.14632   0.92751   0.27013   0.00000  Uiso   1.00
O446   O     0.07412   0.79958   0.23413   0.00000  Uiso   1.00
O447   O     0.26693   0.85939   0.21360   0.00000  Uiso   1.00
O448   O     0.07071   0.85544   0.28213   0.00000  Uiso   1.00
O449   O     0.25491   0.81892   0.27013   0.00000  Uiso   1.00
O450   O     0.13760   0.73610   0.23413   0.00000  Uiso   1.00
O451   O     0.20345   0.92286   0.21360   0.00000  Uiso   1.00
Zn452  Zn    0.19338   0.80661   0.28734   0.00000  Uiso   1.00
Zn453  Zn    0.13379   0.79124   0.21875   0.00000  Uiso   1.00
Zn454  Zn    0.21056   0.86442   0.20657   0.00000  Uiso   1.00
Zn455  Zn    0.12893   0.87106   0.28733   0.00000  Uiso   1.00
C456   C     0.38644   0.82689   0.25940   0.00000  Uiso   1.00
C457   C     0.50598   0.83411   0.06063   0.00000  Uiso   1.00
C458   C     0.53919   0.77164   0.05923   0.00000  Uiso   1.00
C459   C     0.61390   0.84031   0.24026   0.00000  Uiso   1.00
C460   C     0.47923   0.86461   0.41893   0.00000  Uiso   1.00
C461   C     0.65951   0.84194   0.23678   0.00000  Uiso   1.00
C462   C     0.34130   0.82377   0.26517   0.00000  Uiso   1.00
C463   C     0.51301   0.98922   0.23727   0.00000  Uiso   1.00
C464   C     0.48369   0.67916   0.26402   0.00000  Uiso   1.00
C465   C     0.48930   0.72286   0.26016   0.00000  Uiso   1.00
C466   C     0.50952   0.94447   0.24023   0.00000  Uiso   1.00
C467   C     0.48327   0.92157   0.47685   0.00000  Uiso   1.00
C468   C     0.51876   0.81440   0.12964   0.00000  Uiso   1.00
C469   C     0.48199   0.85175   0.37095   0.00000  Uiso   1.00
C470   C     0.53514   0.75959   0.01623   0.00000  Uiso   1.00
C471   C     0.52351   0.80795   0.08183   0.00000  Uiso   1.00
C472   C     0.47430   0.90664   0.43583   0.00000  Uiso   1.00
C473   C     0.64880   0.80237   0.30320   0.00000  Uiso   1.00
C474   C     0.54290   0.67059   0.16522   0.00000  Uiso   1.00
C475   C     0.58029   0.69499   0.13479   0.00000  Uiso   1.00
C476   C     0.44351   0.99633   0.29299   0.00000  Uiso   1.00
C477   C     0.47995   0.86456   0.08864   0.00000  Uiso   1.00
C478   C     0.49669   0.89539   0.00095   0.00000  Uiso   1.00
C479   C     0.46348   0.93590   0.41024   0.00000  Uiso   1.00
C480   C     0.48054   0.96451   0.49432   0.00000  Uiso   1.00
C481   C     0.49632   0.85245   0.48828   0.00000  Uiso   1.00
C482   C     0.48811   0.83700   0.44640   0.00000  Uiso   1.00
C483   C     0.50700   0.82484   0.01467   0.00000  Uiso   1.00
C484   C     0.51747   0.78497   0.49460   0.00000  Uiso   1.00
C485   C     0.50776   0.76976   0.45436   0.00000  Uiso   1.00
C486   C     0.49022   0.79439   0.43244   0.00000  Uiso   1.00
H487   H     0.55174   0.75114   0.07611   0.00000  Uiso   1.00
H488   H     0.57653   0.69059   0.10009   0.00000  Uiso   1.00
H489   H     0.58141   0.72860   0.14633   0.00000  Uiso   1.00
H490   H     0.51216   0.73809   0.44064   0.00000  Uiso   1.00
H491   H     0.54480   0.72992   0.00029   0.00000  Uiso   1.00
H492   H     0.50897   0.90971   0.02880   0.00000  Uiso   1.00
H493   H     0.47934   0.77957   0.40388   0.00000  Uiso   1.00
H494   H     0.34839   0.85830   0.20998   0.00000  Uiso   1.00
H495   H     0.51300   0.68294   0.16464   0.00000  Uiso   1.00
H496   H     0.54148   0.97076   0.15162   0.00000  Uiso   1.00
H497   H     0.61076   0.68386   0.13504   0.00000  Uiso   1.00
N498   N     0.62833   0.78528   0.33361   0.00000  Uiso   1.00
N499   N     0.41132   0.98362   0.31606   0.00000  Uiso   1.00
N500   N     0.45917   0.88863   0.11118   0.00000  Uiso   1.00
N501   N     0.45492   0.95943   0.39001   0.00000  Uiso   1.00
N502   N     0.47815   0.99878   0.00839   0.00000  Uiso   1.00
O503   O     0.50000   0.83333   0.25000   0.00000  Uiso   1.00
O504   O     0.48784   0.79304   0.15458   0.00000  Uiso   1.00
O505   O     0.46274   0.87058   0.34968   0.00000  Uiso   1.00
O506   O     0.54157   0.84425   0.14606   0.00000  Uiso   1.00
O507   O     0.50785   0.82546   0.34968   0.00000  Uiso   1.00
O508   O     0.54905   0.67499   0.20882   0.00000  Uiso   1.00
O509   O     0.51264   0.74686   0.28213   0.00000  Uiso   1.00
O510   O     0.47965   0.92751   0.27013   0.00000  Uiso   1.00
O511   O     0.40745   0.79958   0.23413   0.00000  Uiso   1.00
O512   O     0.60026   0.85939   0.21360   0.00000  Uiso   1.00
O513   O     0.40405   0.85544   0.28213   0.00000  Uiso   1.00
O514   O     0.58824   0.81892   0.27013   0.00000  Uiso   1.00
O515   O     0.47093   0.73610   0.23413   0.00000  Uiso   1.00
O516   O     0.53678   0.92286   0.21360   0.00000  Uiso   1.00
Zn517  Zn    0.52672   0.80661   0.28734   0.00000  Uiso   1.00
Zn518  Zn    0.46713   0.79124   0.21875   0.00000  Uiso   1.00
Zn519  Zn    0.54389   0.86442   0.20657   0.00000  Uiso   1.00
Zn520  Zn    0.46226   0.87106   0.28733   0.00000  Uiso   1.00
C521   C     0.71978   0.82689   0.25940   0.00000  Uiso   1.00
C522   C     0.83931   0.83411   0.06063   0.00000  Uiso   1.00
C523   C     0.87252   0.77164   0.05923   0.00000  Uiso   1.00
C524   C     0.94723   0.84031   0.24026   0.00000  Uiso   1.00
C525   C     0.81256   0.86461   0.41893   0.00000  Uiso   1.00
C526   C     0.99284   0.84194   0.23678   0.00000  Uiso   1.00
C527   C     0.67463   0.82377   0.26517   0.00000  Uiso   1.00
C528   C     0.84634   0.98922   0.23727   0.00000  Uiso   1.00
C529   C     0.81702   0.67916   0.26402   0.00000  Uiso   1.00
C530   C     0.82264   0.72286   0.26016   0.00000  Uiso   1.00
C531   C     0.84285   0.94447   0.24023   0.00000  Uiso   1.00
C532   C     0.81661   0.92157   0.47685   0.00000  Uiso   1.00
C533   C     0.85210   0.81440   0.12964   0.00000  Uiso   1.00
C534   C     0.81533   0.85175   0.37095   0.00000  Uiso   1.00
C535   C     0.86847   0.75959   0.01623   0.00000  Uiso   1.00
C536   C     0.85685   0.80795   0.08183   0.00000  Uiso   1.00
C537   C     0.80764   0.90664   0.43583   0.00000  Uiso   1.00
C538   C     0.98213   0.80237   0.30320   0.00000  Uiso   1.00
C539   C     0.87623   0.67059   0.16522   0.00000  Uiso   1.00
C540   C     0.91362   0.69499   0.13479   0.00000  Uiso   1.00
C541   C     0.77684   0.99633   0.29299   0.00000  Uiso   1.00
C542   C     0.81329   0.86456   0.08864   0.00000  Uiso   1.00
C543   C     0.83002   0.89539   0.00095   0.00000  Uiso   1.00
C544   C     0.79682   0.93590   0.41024   0.00000  Uiso   1.00
C545   C     0.81388   0.96451   0.49432   0.00000  Uiso   1.00
C546   C     0.82965   0.85245   0.48828   0.00000  Uiso   1.00
C547   C     0.82145   0.83700   0.44640   0.00000  Uiso   1.00
C548   C     0.84033   0.82484   0.01467   0.00000  Uiso   1.00
C549   C     0.85080   0.78497   0.49460   0.00000  Uiso   1.00
C550   C     0.84109   0.76976   0.45436   0.00000  Uiso   1.00
C551   C     0.82356   0.79439   0.43244   0.00000  Uiso   1.00
H552   H     0.88507   0.75114   0.07611   0.00000  Uiso   1.00
H553   H     0.90986   0.69059   0.10009   0.00000  Uiso   1.00
H554   H     0.91475   0.72860   0.14633   0.00000  Uiso   1.00
H555   H     0.84549   0.73809   0.44064   0.00000  Uiso   1.00
H556   H     0.87813   0.72992   0.00029   0.00000  Uiso   1.00
H557   H     0.84230   0.90971   0.02880   0.00000  Uiso   1.00
H558   H     0.81268   0.77957   0.40388   0.00000  Uiso   1.00
H559   H     0.68172   0.85830   0.20998   0.00000  Uiso   1.00
H560   H     0.84634   0.68294   0.16464   0.00000  Uiso   1.00
H561   H     0.87482   0.97076   0.15162   0.00000  Uiso   1.00
H562   H     0.94410   0.68386   0.13504   0.00000  Uiso   1.00
N563   N     0.96166   0.78528   0.33361   0.00000  Uiso   1.00
N564   N     0.74465   0.98362   0.31606   0.00000  Uiso   1.00
N565   N     0.79251   0.88863   0.11118   0.00000  Uiso   1.00
N566   N     0.78825   0.95943   0.39001   0.00000  Uiso   1.00
N567   N     0.81149   0.99878   0.00839   0.00000  Uiso   1.00
O568   O     0.83333   0.83333   0.25000   0.00000  Uiso   1.00
O569   O     0.82118   0.79304   0.15458   0.00000  Uiso   1.00
O570   O     0.79607   0.87058   0.34968   0.00000  Uiso   1.00
O571   O     0.87491   0.84425   0.14606   0.00000  Uiso   1.00
O572   O     0.84118   0.82546   0.34968   0.00000  Uiso   1.00
O573   O     0.88238   0.67499   0.20882   0.00000  Uiso   1.00
O574   O     0.84597   0.74686   0.28213   0.00000  Uiso   1.00
O575   O     0.81298   0.92751   0.27013   0.00000  Uiso   1.00
O576   O     0.74078   0.79958   0.23413   0.00000  Uiso   1.00
O577   O     0.93360   0.85939   0.21360   0.00000  Uiso   1.00
O578   O     0.73738   0.85544   0.28213   0.00000  Uiso   1.00
O579   O     0.92158   0.81892   0.27013   0.00000  Uiso   1.00
O580   O     0.80426   0.73610   0.23413   0.00000  Uiso   1.00
O581   O     0.87012   0.92286   0.21360   0.00000  Uiso   1.00
Zn582  Zn    0.86005   0.80661   0.28734   0.00000  Uiso   1.00
Zn583  Zn    0.80046   0.79124   0.21875   0.00000  Uiso   1.00
Zn584  Zn    0.87723   0.86442   0.20657   0.00000  Uiso   1.00
Zn585  Zn    0.79560   0.87106   0.28733   0.00000  Uiso   1.00
C586   C     0.05311   0.16023   0.75940   0.00000  Uiso   1.00
C587   C     0.17265   0.16744   0.56063   0.00000  Uiso   1.00
C588   C     0.20586   0.10497   0.55923   0.00000  Uiso   1.00
C589   C     0.28057   0.17364   0.74026   0.00000  Uiso   1.00
C590   C     0.14589   0.19794   0.91893   0.00000  Uiso   1.00
C591   C     0.32617   0.17527   0.73678   0.00000  Uiso   1.00
C592   C     0.00797   0.15710   0.76517   0.00000  Uiso   1.00
C593   C     0.17968   0.32255   0.73727   0.00000  Uiso   1.00
C594   C     0.15036   0.01249   0.76402   0.00000  Uiso   1.00
C595   C     0.15597   0.05620   0.76016   0.00000  Uiso   1.00
C596   C     0.17618   0.27781   0.74023   0.00000  Uiso   1.00
C597   C     0.14994   0.25491   0.97685   0.00000  Uiso   1.00
C598   C     0.18543   0.14773   0.62964   0.00000  Uiso   1.00
C599   C     0.14866   0.18508   0.87095   0.00000  Uiso   1.00
C600   C     0.20180   0.09293   0.51623   0.00000  Uiso   1.00
C601   C     0.19018   0.14128   0.58183   0.00000  Uiso   1.00
C602   C     0.14097   0.23997   0.93583   0.00000  Uiso   1.00
C603   C     0.31547   0.13570   0.80320   0.00000  Uiso   1.00
C604   C     0.20956   0.00392   0.66522   0.00000  Uiso   1.00
C605   C     0.24695   0.02832   0.63479   0.00000  Uiso   1.00
C606   C     0.11018   0.32967   0.79299   0.00000  Uiso   1.00
C607   C     0.14662   0.19789   0.58864   0.00000  Uiso   1.00
C608   C     0.16336   0.22873   0.50095   0.00000  Uiso   1.00
C609   C     0.13015   0.26924   0.91024   0.00000  Uiso   1.00
C610   C     0.14721   0.29784   0.99432   0.00000  Uiso   1.00
C611   C     0.16299   0.18579   0.98828   0.00000  Uiso   1.00
C612   C     0.15478   0.17034   0.94640   0.00000  Uiso   1.00
C613   C     0.17366   0.15817   0.51467   0.00000  Uiso   1.00
C614   C     0.18413   0.11830   0.99460   0.00000  Uiso   1.00
C615   C     0.17443   0.10310   0.95436   0.00000  Uiso   1.00
C616   C     0.15689   0.12772   0.93244   0.00000  Uiso   1.00
H617   H     0.21841   0.08448   0.57611   0.00000  Uiso   1.00
H618   H     0.24320   0.02393   0.60009   0.00000  Uiso   1.00
H619   H     0.24808   0.06194   0.64633   0.00000  Uiso   1.00
H620   H     0.17882   0.07142   0.94064   0.00000  Uiso   1.00
H621   H     0.21147   0.06325   0.50029   0.00000  Uiso   1.00
H622   H     0.17564   0.24304   0.52880   0.00000  Uiso   1.00
H623   H     0.14601   0.11291   0.90388   0.00000  Uiso   1.00
H624   H     0.01505   0.19164   0.70998   0.00000  Uiso   1.00
H625   H     0.17967   0.01627   0.66464   0.00000  Uiso   1.00
H626   H     0.20815   0.30409   0.65162   0.00000  Uiso   1.00
H627   H     0.27743   0.01719   0.63504   0.00000  Uiso   1.00
N628   N     0.29499   0.11861   0.83361   0.00000  Uiso   1.00
N629   N     0.07798   0.31695   0.81606   0.00000  Uiso   1.00
N630   N     0.12584   0.22196   0.61118   0.00000  Uiso   1.00
N631   N     0.12158   0.29277   0.89001   0.00000  Uiso   1.00
N632   N     0.14482   0.33212   0.50839   0.00000  Uiso   1.00
O633   O     0.16667   0.16667   0.75000   0.00000  Uiso   1.00
O634   O     0.15451   0.12637   0.65458   0.00000  Uiso   1.00
O635   O     0.12940   0.20391   0.84968   0.00000  Uiso   1.00
O636   O     0.20824   0.17759   0.64606   0.00000  Uiso   1.00
O637   O     0.17451   0.15880   0.84968   0.00000  Uiso   1.00
O638   O     0.21571   0.00832   0.70882   0.00000  Uiso   1.00
O639   O     0.17930   0.08019   0.78213   0.00000  Uiso   1.00
O640   O     0.14632   0.26085   0.77013   0.00000  Uiso   1.00
O641   O     0.07412   0.13291   0.73413   0.00000  Uiso   1.00
O642   O     0.26693   0.19272   0.71360   0.00000  Uiso   1.00
O643   O     0.07071   0.18878   0.78213   0.00000  Uiso   1.00
O644   O     0.25491   0.15226   0.77013   0.00000  Uiso   1.00
O645   O     0.13760   0.06944   0.73413   0.00000  Uiso   1.00
O646   O     0.20345   0.25620   0.71360   0.00000  Uiso   1.00
Zn647  Zn    0.19338   0.13994   0.78734   0.00000  Uiso   1.00
Zn648  Zn    0.13379   0.12458   0.71875   0.00000  Uiso   1.00
Zn649  Zn    0.21056   0.19775   0.70657   0.00000  Uiso   1.00
Zn650  Zn    0.12893   0.20439   0.78733   0.00000  Uiso   1.00
C651   C     0.38644   0.16023   0.75940   0.00000  Uiso   1.00
C652   C     0.50598   0.16744   0.56063   0.00000  Uiso   1.00
C653   C     0.53919   0.10497   0.55923   0.00000  Uiso   1.00
C654   C     0.61390   0.17364   0.74026   0.00000  Uiso   1.00
C655   C     0.47923   0.19794   0.91893   0.00000  Uiso   1.00
C656   C     0.65951   0.17527   0.73678   0.00000  Uiso   1.00
C657   C     0.34130   0.15710   0.76517   0.00000  Uiso   1.00
C658   C     0.51301   0.32255   0.73727   0.00000  Uiso   1.00
C659   C     0.48369   0.01249   0.76402   0.00000  Uiso   1.00
C660   C     0.48930   0.05620   0.76016   0.00000  Uiso   1.00
C661   C     0.50952   0.27781   0.74023   0.00000  Uiso   1.00
C662   C     0.48327   0.25491   0.97685   0.00000  Uiso   1.00
C663   C     0.51876   0.14773   0.62964   0.00000  Uiso   1.00
C664   C     0.48199   0.18508   0.87095   0.00000  Uiso   1.00
C665   C     0.53514   0.09293   0.51623   0.00000  Uiso   1.00
C666   C     0.52351   0.14128   0.58183   0.00000  Uiso   1.00
C667   C     0.47430   0.23997   0.93583   0.00000  Uiso   1.00
C668   C     0.64880   0.13570   0.80320   0.00000  Uiso   1.00
C669   C     0.54290   0.00392   0.66522   0.00000  Uiso   1.00
C670   C     0.58029   0.02832   0.63479   0.00000  Uiso   1.00
C671   C     0.44351   0.32967   0.79299   0.00000  Uiso   1.00
C672   C     0.47995   0.19789   0.58864   0.00000  Uiso   1.00
C673   C     0.49669   0.22873   0.50095   0.00000  Uiso   1.00
C674   C     0.46348   0.26924   0.91024   0.00000  Uiso   1.00
C675   C     0.48054   0.29784   0.99432   0.00000  Uiso   1.00
C676   C     0.49632   0.18579   0.98828   0.00000  Uiso   1.00
C677   C     0.48811   0.17034   0.94640   0.00000  Uiso   1.00
C678   C     0.50700   0.15817   0.51467   0.00000  Uiso   1.00
C679   C     0.51747   0.11830   0.99460   0.00000  Uiso   1.00
C680   C     0.50776   0.10310   0.95436   0.00000  Uiso   1.00
C681   C     0.49022   0.12772   0.93244   0.00000  Uiso   1.00
H682   H     0.55174   0.08448   0.57611   0.00000  Uiso   1.00
H683   H     0.57653   0.02393   0.60009   0.00000  Uiso   1.00
H684   H     0.58141   0.06194   0.64633   0.00000  Uiso   1.00
H685   H     0.51216   0.07142   0.94064   0.00000  Uiso   1.00
H686   H     0.54480   0.06325   0.50029   0.00000  Uiso   1.00
H687   H     0.50897   0.24304   0.52880   0.00000  Uiso   1.00
H688   H     0.47934   0.11291   0.90388   0.00000  Uiso   1.00
H689   H     0.34839   0.19164   0.70998   0.00000  Uiso   1.00
H690   H     0.51300   0.01627   0.66464   0.00000  Uiso   1.00
H691   H     0.54148   0.30409   0.65162   0.00000  Uiso   1.00
H692   H     0.61076   0.01719   0.63504   0.00000  Uiso   1.00
N693   N     0.62833   0.11861   0.83361   0.00000  Uiso   1.00
N694   N     0.41132   0.31695   0.81606   0.00000  Uiso   1.00
N695   N     0.45917   0.22196   0.61118   0.00000  Uiso   1.00
N696   N     0.45492   0.29277   0.89001   0.00000  Uiso   1.00
N697   N     0.47815   0.33212   0.50839   0.00000  Uiso   1.00
O698   O     0.50000   0.16667   0.75000   0.00000  Uiso   1.00
O699   O     0.48784   0.12637   0.65458   0.00000  Uiso   1.00
O700   O     0.46274   0.20391   0.84968   0.00000  Uiso   1.00
O701   O     0.54157   0.17759   0.64606   0.00000  Uiso   1.00
O702   O     0.50785   0.15880   0.84968   0.00000  Uiso   1.00
O703   O     0.54905   0.00832   0.70882   0.00000  Uiso   1.00
O704   O     0.51264   0.08019   0.78213   0.00000  Uiso   1.00
O705   O     0.47965   0.26085   0.77013   0.00000  Uiso   1.00
O706   O     0.40745   0.13291   0.73413   0.00000  Uiso   1.00
O707   O     0.60026   0.19272   0.71360   0.00000  Uiso   1.00
O708   O     0.40405   0.18878   0.78213   0.00000  Uiso   1.00
O709   O     0.58824   0.15226   0.77013   0.00000  Uiso   1.00
O710   O     0.47093   0.06944   0.73413   0.00000  Uiso   1.00
O711   O     0.53678   0.25620   0.71360   0.00000  Uiso   1.00
Zn712  Zn    0.52672   0.13994   0.78734   0.00000  Uiso   1.00
Zn713  Zn    0.46713   0.12458   0.71875   0.00000  Uiso   1.00
Zn714  Zn    0.54389   0.19775   0.70657   0.00000  Uiso   1.00
Zn715  Zn    0.46226   0.20439   0.78733   0.00000  Uiso   1.00
C716   C     0.71978   0.16023   0.75940   0.00000  Uiso   1.00
C717   C     0.83931   0.16744   0.56063   0.00000  Uiso   1.00
C718   C     0.87252   0.10497   0.55923   0.00000  Uiso   1.00
C719   C     0.94723   0.17364   0.74026   0.00000  Uiso   1.00
C720   C     0.81256   0.19794   0.91893   0.00000  Uiso   1.00
C721   C     0.99284   0.17527   0.73678   0.00000  Uiso   1.00
C722   C     0.67463   0.15710   0.76517   0.00000  Uiso   1.00
C723   C     0.84634   0.32255   0.73727   0.00000  Uiso   1.00
C724   C     0.81702   0.01249   0.76402   0.00000  Uiso   1.00
C725   C     0.82264   0.05620   0.76016   0.00000  Uiso   1.00
C726   C     0.84285   0.27781   0.74023   0.00000  Uiso   1.00
C727   C     0.81661   0.25491   0.97685   0.00000  Uiso   1.00
C728   C     0.85210   0.14773   0.62964   0.00000  Uiso   1.00
C729   C     0.81533   0.18508   0.87095   0.00000  Uiso   1.00
C730   C     0.86847   0.09293   0.51623   0.00000  Uiso   1.00
C731   C     0.85685   0.14128   0.58183   0.00000  Uiso   1.00
C732   C     0.80764   0.23997   0.93583   0.00000  Uiso   1.00
C733   C     0.98213   0.13570   0.80320   0.00000  Uiso   1.00
C734   C     0.87623   0.00392   0.66522   0.00000  Uiso   1.00
C735   C     0.91362   0.02832   0.63479   0.00000  Uiso   1.00
C736   C     0.77684   0.32967   0.79299   0.00000  Uiso   1.00
C737   C     0.81329   0.19789   0.58864   0.00000  Uiso   1.00
C738   C     0.83002   0.22873   0.50095   0.00000  Uiso   1.00
C739   C     0.79682   0.26924   0.91024   0.00000  Uiso   1.00
C740   C     0.81388   0.29784   0.99432   0.00000  Uiso   1.00
C741   C     0.82965   0.18579   0.98828   0.00000  Uiso   1.00
C742   C     0.82145   0.17034   0.94640   0.00000  Uiso   1.00
C743   C     0.84033   0.15817   0.51467   0.00000  Uiso   1.00
C744   C     0.85080   0.11830   0.99460   0.00000  Uiso   1.00
C745   C     0.84109   0.10310   0.95436   0.00000  Uiso   1.00
C746   C     0.82356   0.12772   0.93244   0.00000  Uiso   1.00
H747   H     0.88507   0.08448   0.57611   0.00000  Uiso   1.00
H748   H     0.90986   0.02393   0.60009   0.00000  Uiso   1.00
H749   H     0.91475   0.06194   0.64633   0.00000  Uiso   1.00
H750   H     0.84549   0.07142   0.94064   0.00000  Uiso   1.00
H751   H     0.87813   0.06325   0.50029   0.00000  Uiso   1.00
H752   H     0.84230   0.24304   0.52880   0.00000  Uiso   1.00
H753   H     0.81268   0.11291   0.90388   0.00000  Uiso   1.00
H754   H     0.68172   0.19164   0.70998   0.00000  Uiso   1.00
H755   H     0.84634   0.01627   0.66464   0.00000  Uiso   1.00
H756   H     0.87482   0.30409   0.65162   0.00000  Uiso   1.00
H757   H     0.94410   0.01719   0.63504   0.00000  Uiso   1.00
N758   N     0.96166   0.11861   0.83361   0.00000  Uiso   1.00
N759   N     0.74465   0.31695   0.81606   0.00000  Uiso   1.00
N760   N     0.79251   0.22196   0.61118   0.00000  Uiso   1.00
N761   N     0.78825   0.29277   0.89001   0.00000  Uiso   1.00
N762   N     0.81149   0.33212   0.50839   0.00000  Uiso   1.00
O763   O     0.83333   0.16667   0.75000   0.00000  Uiso   1.00
O764   O     0.82118   0.12637   0.65458   0.00000  Uiso   1.00
O765   O     0.79607   0.20391   0.84968   0.00000  Uiso   1.00
O766   O     0.87491   0.17759   0.64606   0.00000  Uiso   1.00
O767   O     0.84118   0.15880   0.84968   0.00000  Uiso   1.00
O768   O     0.88238   0.00832   0.70882   0.00000  Uiso   1.00
O769   O     0.84597   0.08019   0.78213   0.00000  Uiso   1.00
O770   O     0.81298   0.26085   0.77013   0.00000  Uiso   1.00
O771   O     0.74078   0.13291   0.73413   0.00000  Uiso   1.00
O772   O     0.93360   0.19272   0.71360   0.00000  Uiso   1.00
O773   O     0.73738   0.18878   0.78213   0.00000  Uiso   1.00
O774   O     0.92158   0.15226   0.77013   0.00000  Uiso   1.00
O775   O     0.80426   0.06944   0.73413   0.00000  Uiso   1.00
O776   O     0.87012   0.25620   0.71360   0.00000  Uiso   1.00
Zn777  Zn    0.86005   0.13994   0.78734   0.00000  Uiso   1.00
Zn778  Zn    0.80046   0.12458   0.71875   0.00000  Uiso   1.00
Zn779  Zn    0.87723   0.19775   0.70657   0.00000  Uiso   1.00
Zn780  Zn    0.79560   0.20439   0.78733   0.00000  Uiso   1.00
C781   C     0.05311   0.49356   0.75940   0.00000  Uiso   1.00
C782   C     0.17265   0.50077   0.56063   0.00000  Uiso   1.00
C783   C     0.20586   0.43831   0.55923   0.00000  Uiso   1.00
C784   C     0.28057   0.50698   0.74026   0.00000  Uiso   1.00
C785   C     0.14589   0.53127   0.91893   0.00000  Uiso   1.00
C786   C     0.32617   0.50860   0.73678   0.00000  Uiso   1.00
C787   C     0.00797   0.49044   0.76517   0.00000  Uiso   1.00
C788   C     0.17968   0.65588   0.73727   0.00000  Uiso   1.00
C789   C     0.15036   0.34583   0.76402   0.00000  Uiso   1.00
C790   C     0.15597   0.38953   0.76016   0.00000  Uiso   1.00
C791   C     0.17618   0.61114   0.74023   0.00000  Uiso   1.00
C792   C     0.14994   0.58824   0.97685   0.00000  Uiso   1.00
C793   C     0.18543   0.48107   0.62964   0.00000  Uiso   1.00
C794   C     0.14866   0.51842   0.87095   0.00000  Uiso   1.00
C795   C     0.20180   0.42626   0.51623   0.00000  Uiso   1.00
C796   C     0.19018   0.47462   0.58183   0.00000  Uiso   1.00
C797   C     0.14097   0.57330   0.93583   0.00000  Uiso   1.00
C798   C     0.31547   0.46904   0.80320   0.00000  Uiso   1.00
C799   C     0.20956   0.33725   0.66522   0.00000  Uiso   1.00
C800   C     0.24695   0.36165   0.63479   0.00000  Uiso   1.00
C801   C     0.11018   0.66300   0.79299   0.00000  Uiso   1.00
C802   C     0.14662   0.53122   0.58864   0.00000  Uiso   1.00
C803   C     0.16336   0.56206   0.50095   0.00000  Uiso   1.00
C804   C     0.13015   0.60257   0.91024   0.00000  Uiso   1.00
C805   C     0.14721   0.63118   0.99432   0.00000  Uiso   1.00
C806   C     0.16299   0.51912   0.98828   0.00000  Uiso   1.00
C807   C     0.15478   0.50367   0.94640   0.00000  Uiso   1.00
C808   C     0.17366   0.49150   0.51467   0.00000  Uiso   1.00
C809   C     0.18413   0.45163   0.99460   0.00000  Uiso   1.00
C810   C     0.17443   0.43643   0.95436   0.00000  Uiso   1.00
C811   C     0.15689   0.46106   0.93244   0.00000  Uiso   1.00
H812   H     0.21841   0.41781   0.57611   0.00000  Uiso   1.00
H813   H     0.24320   0.35726   0.60009   0.00000  Uiso   1.00
H814   H     0.24808   0.39527   0.64633   0.00000  Uiso   1.00
H815   H     0.17882   0.40476   0.94064   0.00000  Uiso   1.00
H816   H     0.21147   0.39658   0.50029   0.00000  Uiso   1.00
H817   H     0.17564   0.57637   0.52880   0.00000  Uiso   1.00
H818   H     0.14601   0.44624   0.90388   0.00000  Uiso   1.00
H819   H     0.01505   0.52497   0.70998   0.00000  Uiso   1.00
H820   H     0.17967   0.34961   0.66464   0.00000  Uiso   1.00
H821   H     0.20815   0.63742   0.65162   0.00000  Uiso   1.00
H822   H     0.27743   0.35053   0.63504   0.00000  Uiso   1.00
N823   N     0.29499   0.45195   0.83361   0.00000  Uiso   1.00
N824   N     0.07798   0.65028   0.81606   0.00000  Uiso   1.00
N825   N     0.12584   0.55530   0.61118   0.00000  Uiso   1.00
N826   N     0.12158   0.62610   0.89001   0.00000  Uiso   1.00
N827   N     0.14482   0.66545   0.50839   0.00000  Uiso   1.00
O828   O     0.16667   0.50000   0.75000   0.00000  Uiso   1.00
O829   O     0.15451   0.45970   0.65458   0.00000  Uiso   1.00
O830   O     0.12940   0.53724   0.84968   0.00000  Uiso   1.00
O831   O     0.20824   0.51092   0.64606   0.00000  Uiso   1.00
O832   O     0.17451   0.49213   0.84968   0.00000  Uiso   1.00
O833   O     0.21571   0.34166   0.70882   0.00000  Uiso   1.00
O834   O     0.17930   0.41352   0.78213   0.00000  Uiso   1.00
O835   O     0.14632   0.59418   0.77013   0.00000  Uiso   1.00
O836   O     0.07412   0.46625   0.73413   0.00000  Uiso   1.00
O837   O     0.26693   0.52605   0.71360   0.00000  Uiso   1.00
O838   O     0.07071   0.52211   0.78213   0.00000  Uiso   1.00
O839   O     0.25491   0.48559   0.77013   0.00000  Uiso   1.00
O840   O     0.13760   0.40277   0.73413   0.00000  Uiso   1.00
O841   O     0.20345   0.58953   0.71360   0.00000  Uiso   1.00
Zn842  Zn    0.19338   0.47327   0.78734   0.00000  Uiso   1.00
Zn843  Zn    0.13379   0.45791   0.71875   0.00000  Uiso   1.00
Zn844  Zn    0.21056   0.53109   0.70657   0.00000  Uiso   1.00
Zn845  Zn    0.12893   0.53773   0.78733   0.00000  Uiso   1.00
C846   C     0.38644   0.49356   0.75940   0.00000  Uiso   1.00
C847   C     0.50598   0.50077   0.56063   0.00000  Uiso   1.00
C848   C     0.53919   0.43831   0.55923   0.00000  Uiso   1.00
C849   C     0.61390   0.50698   0.74026   0.00000  Uiso   1.00
C850   C     0.47923   0.53127   0.91893   0.00000  Uiso   1.00
C851   C     0.65951   0.50860   0.73678   0.00000  Uiso   1.00
C852   C     0.34130   0.49044   0.76517   0.00000  Uiso   1.00
C853   C     0.51301   0.65588   0.73727   0.00000  Uiso   1.00
C854   C     0.48369   0.34583   0.76402   0.00000  Uiso   1.00
C855   C     0.48930   0.38953   0.76016   0.00000  Uiso   1.00
C856   C     0.50952   0.61114   0.74023   0.00000  Uiso   1.00
C857   C     0.48327   0.58824   0.97685   0.00000  Uiso   1.00
C858   C     0.51876   0.48107   0.62964   0.00000  Uiso   1.00
C859   C     0.48199   0.51842   0.87095   0.00000  Uiso   1.00
C860   C     0.53514   0.42626   0.51623   0.00000  Uiso   1.00
C861   C     0.52351   0.47462   0.58183   0.00000  Uiso   1.00
C862   C     0.47430   0.57330   0.93583   0.00000  Uiso   1.00
C863   C     0.64880   0.46904   0.80320   0.00000  Uiso   1.00
C864   C     0.54290   0.33725   0.66522   0.00000  Uiso   1.00
C865   C     0.58029   0.36165   0.63479   0.00000  Uiso   1.00
C866   C     0.44351   0.66300   0.79299   0.00000  Uiso   1.00
C867   C     0.47995   0.53122   0.58864   0.00000  Uiso   1.00
C868   C     0.49669   0.56206   0.50095   0.00000  Uiso   1.00
C869   C     0.46348   0.60257   0.91024   0.00000  Uiso   1.00
C870   C     0.48054   0.63118   0.99432   0.00000  Uiso   1.00
C871   C     0.49632   0.51912   0.98828   0.00000  Uiso   1.00
C872   C     0.48811   0.50367   0.94640   0.00000  Uiso   1.00
C873   C     0.50700   0.49150   0.51467   0.00000  Uiso   1.00
C874   C     0.51747   0.45163   0.99460   0.00000  Uiso   1.00
C875   C     0.50776   0.43643   0.95436   0.00000  Uiso   1.00
C876   C     0.49022   0.46106   0.93244   0.00000  Uiso   1.00
H877   H     0.55174   0.41781   0.57611   0.00000  Uiso   1.00
H878   H     0.57653   0.35726   0.60009   0.00000  Uiso   1.00
H879   H     0.58141   0.39527   0.64633   0.00000  Uiso   1.00
H880   H     0.51216   0.40476   0.94064   0.00000  Uiso   1.00
H881   H     0.54480   0.39658   0.50029   0.00000  Uiso   1.00
H882   H     0.50897   0.57637   0.52880   0.00000  Uiso   1.00
H883   H     0.47934   0.44624   0.90388   0.00000  Uiso   1.00
H884   H     0.34839   0.52497   0.70998   0.00000  Uiso   1.00
H885   H     0.51300   0.34961   0.66464   0.00000  Uiso   1.00
H886   H     0.54148   0.63742   0.65162   0.00000  Uiso   1.00
H887   H     0.61076   0.35053   0.63504   0.00000  Uiso   1.00
N888   N     0.62833   0.45195   0.83361   0.00000  Uiso   1.00
N889   N     0.41132   0.65028   0.81606   0.00000  Uiso   1.00
N890   N     0.45917   0.55530   0.61118   0.00000  Uiso   1.00
N891   N     0.45492   0.62610   0.89001   0.00000  Uiso   1.00
N892   N     0.47815   0.66545   0.50839   0.00000  Uiso   1.00
O893   O     0.50000   0.50000   0.75000   0.00000  Uiso   1.00
O894   O     0.48784   0.45970   0.65458   0.00000  Uiso   1.00
O895   O     0.46274   0.53724   0.84968   0.00000  Uiso   1.00
O896   O     0.54157   0.51092   0.64606   0.00000  Uiso   1.00
O897   O     0.50785   0.49213   0.84968   0.00000  Uiso   1.00
O898   O     0.54905   0.34166   0.70882   0.00000  Uiso   1.00
O899   O     0.51264   0.41352   0.78213   0.00000  Uiso   1.00
O900   O     0.47965   0.59418   0.77013   0.00000  Uiso   1.00
O901   O     0.40745   0.46625   0.73413   0.00000  Uiso   1.00
O902   O     0.60026   0.52605   0.71360   0.00000  Uiso   1.00
O903   O     0.40405   0.52211   0.78213   0.00000  Uiso   1.00
O904   O     0.58824   0.48559   0.77013   0.00000  Uiso   1.00
O905   O     0.47093   0.40277   0.73413   0.00000  Uiso   1.00
O906   O     0.53678   0.58953   0.71360   0.00000  Uiso   1.00
Zn907  Zn    0.52672   0.47327   0.78734   0.00000  Uiso   1.00
Zn908  Zn    0.46713   0.45791   0.71875   0.00000  Uiso   1.00
Zn909  Zn    0.54389   0.53109   0.70657   0.00000  Uiso   1.00
Zn910  Zn    0.46226   0.53773   0.78733   0.00000  Uiso   1.00
C911   C     0.71978   0.49356   0.75940   0.00000  Uiso   1.00
C912   C     0.83931   0.50077   0.56063   0.00000  Uiso   1.00
C913   C     0.87252   0.43831   0.55923   0.00000  Uiso   1.00
C914   C     0.94723   0.50698   0.74026   0.00000  Uiso   1.00
C915   C     0.81256   0.53127   0.91893   0.00000  Uiso   1.00
C916   C     0.99284   0.50860   0.73678   0.00000  Uiso   1.00
C917   C     0.67463   0.49044   0.76517   0.00000  Uiso   1.00
C918   C     0.84634   0.65588   0.73727   0.00000  Uiso   1.00
C919   C     0.81702   0.34583   0.76402   0.00000  Uiso   1.00
C920   C     0.82264   0.38953   0.76016   0.00000  Uiso   1.00
C921   C     0.84285   0.61114   0.74023   0.00000  Uiso   1.00
C922   C     0.81661   0.58824   0.97685   0.00000  Uiso   1.00
C923   C     0.85210   0.48107   0.62964   0.00000  Uiso   1.00
C924   C     0.81533   0.51842   0.87095   0.00000  Uiso   1.00
C925   C     0.86847   0.42626   0.51623   0.00000  Uiso   1.00
C926   C     0.85685   0.47462   0.58183   0.00000  Uiso   1.00
C927   C     0.80764   0.57330   0.93583   0.00000  Uiso   1.00
C928   C     0.98213   0.46904   0.80320   0.00000  Uiso   1.00
C929   C     0.87623   0.33725   0.66522   0.00000  Uiso   1.00
C930   C     0.91362   0.36165   0.63479   0.00000  Uiso   1.00
C931   C     0.77684   0.66300   0.79299   0.00000  Uiso   1.00
C932   C     0.81329   0.53122   0.58864   0.00000  Uiso   1.00
C933   C     0.83002   0.56206   0.50095   0.00000  Uiso   1.00
C934   C     0.79682   0.60257   0.91024   0.00000  Uiso   1.00
C935   C     0.81388   0.63118   0.99432   0.00000  Uiso   1.00
C936   C     0.82965   0.51912   0.98828   0.00000  Uiso   1.00
C937   C     0.82145   0.50367   0.94640   0.00000  Uiso   1.00
C938   C     0.84033   0.49150   0.51467   0.00000  Uiso   1.00
C939   C     0.85080   0.45163   0.99460   0.00000  Uiso   1.00
C940   C     0.84109   0.43643   0.95436   0.00000  Uiso   1.00
C941   C     0.82356   0.46106   0.93244   0.00000  Uiso   1.00
H942   H     0.88507   0.41781   0.57611   0.00000  Uiso   1.00
H943   H     0.90986   0.35726   0.60009   0.00000  Uiso   1.00
H944   H     0.91475   0.39527   0.64633   0.00000  Uiso   1.00
H945   H     0.84549   0.40476   0.94064   0.00000  Uiso   1.00
H946   H     0.87813   0.39658   0.50029   0.00000  Uiso   1.00
H947   H     0.84230   0.57637   0.52880   0.00000  Uiso   1.00
H948   H     0.81268   0.44624   0.90388   0.00000  Uiso   1.00
H949   H     0.68172   0.52497   0.70998   0.00000  Uiso   1.00
H950   H     0.84634   0.34961   0.66464   0.00000  Uiso   1.00
H951   H     0.87482   0.63742   0.65162   0.00000  Uiso   1.00
H952   H     0.94410   0.35053   0.63504   0.00000  Uiso   1.00
N953   N     0.96166   0.45195   0.83361   0.00000  Uiso   1.00
N954   N     0.74465   0.65028   0.81606   0.00000  Uiso   1.00
N955   N     0.79251   0.55530   0.61118   0.00000  Uiso   1.00
N956   N     0.78825   0.62610   0.89001   0.00000  Uiso   1.00
N957   N     0.81149   0.66545   0.50839   0.00000  Uiso   1.00
O958   O     0.83333   0.50000   0.75000   0.00000  Uiso   1.00
O959   O     0.82118   0.45970   0.65458   0.00000  Uiso   1.00
O960   O     0.79607   0.53724   0.84968   0.00000  Uiso   1.00
O961   O     0.87491   0.51092   0.64606   0.00000  Uiso   1.00
O962   O     0.84118   0.49213   0.84968   0.00000  Uiso   1.00
O963   O     0.88238   0.34166   0.70882   0.00000  Uiso   1.00
O964   O     0.84597   0.41352   0.78213   0.00000  Uiso   1.00
O965   O     0.81298   0.59418   0.77013   0.00000  Uiso   1.00
O966   O     0.74078   0.46625   0.73413   0.00000  Uiso   1.00
O967   O     0.93360   0.52605   0.71360   0.00000  Uiso   1.00
O968   O     0.73738   0.52211   0.78213   0.00000  Uiso   1.00
O969   O     0.92158   0.48559   0.77013   0.00000  Uiso   1.00
O970   O     0.80426   0.40277   0.73413   0.00000  Uiso   1.00
O971   O     0.87012   0.58953   0.71360   0.00000  Uiso   1.00
Zn972  Zn    0.86005   0.47327   0.78734   0.00000  Uiso   1.00
Zn973  Zn    0.80046   0.45791   0.71875   0.00000  Uiso   1.00
Zn974  Zn    0.87723   0.53109   0.70657   0.00000  Uiso   1.00
Zn975  Zn    0.79560   0.53773   0.78733   0.00000  Uiso   1.00
C976   C     0.05311   0.82689   0.75940   0.00000  Uiso   1.00
C977   C     0.17265   0.83411   0.56063   0.00000  Uiso   1.00
C978   C     0.20586   0.77164   0.55923   0.00000  Uiso   1.00
C979   C     0.28057   0.84031   0.74026   0.00000  Uiso   1.00
C980   C     0.14589   0.86461   0.91893   0.00000  Uiso   1.00
C981   C     0.32617   0.84194   0.73678   0.00000  Uiso   1.00
C982   C     0.00797   0.82377   0.76517   0.00000  Uiso   1.00
C983   C     0.17968   0.98922   0.73727   0.00000  Uiso   1.00
C984   C     0.15036   0.67916   0.76402   0.00000  Uiso   1.00
C985   C     0.15597   0.72286   0.76016   0.00000  Uiso   1.00
C986   C     0.17618   0.94447   0.74023   0.00000  Uiso   1.00
C987   C     0.14994   0.92157   0.97685   0.00000  Uiso   1.00
C988   C     0.18543   0.81440   0.62964   0.00000  Uiso   1.00
C989   C     0.14866   0.85175   0.87095   0.00000  Uiso   1.00
C990   C     0.20180   0.75959   0.51623   0.00000  Uiso   1.00
C991   C     0.19018   0.80795   0.58183   0.00000  Uiso   1.00
C992   C     0.14097   0.90664   0.93583   0.00000  Uiso   1.00
C993   C     0.31547   0.80237   0.80320   0.00000  Uiso   1.00
C994   C     0.20956   0.67059   0.66522   0.00000  Uiso   1.00
C995   C     0.24695   0.69499   0.63479   0.00000  Uiso   1.00
C996   C     0.11018   0.99633   0.79299   0.00000  Uiso   1.00
C997   C     0.14662   0.86456   0.58864   0.00000  Uiso   1.00
C998   C     0.16336   0.89539   0.50095   0.00000  Uiso   1.00
C999   C     0.13015   0.93590   0.91024   0.00000  Uiso   1.00
C1000  C     0.14721   0.96451   0.99432   0.00000  Uiso   1.00
C1001  C     0.16299   0.85245   0.98828   0.00000  Uiso   1.00
C1002  C     0.15478   0.83700   0.94640   0.00000  Uiso   1.00
C1003  C     0.17366   0.82484   0.51467   0.00000  Uiso   1.00
C1004  C     0.18413   0.78497   0.99460   0.00000  Uiso   1.00
C1005  C     0.17443   0.76976   0.95436   0.00000  Uiso   1.00
C1006  C     0.15689   0.79439   0.93244   0.00000  Uiso   1.00
H1007  H     0.21841   0.75114   0.57611   0.00000  Uiso   1.00
H1008  H     0.24320   0.69059   0.60009   0.00000  Uiso   1.00
H1009  H     0.24808   0.72860   0.64633   0.00000  Uiso   1.00
H1010  H     0.17882   0.73809   0.94064   0.00000  Uiso   1.00
H1011  H     0.21147   0.72992   0.50029   0.00000  Uiso   1.00
H1012  H     0.17564   0.90971   0.52880   0.00000  Uiso   1.00
H1013  H     0.14601   0.77957   0.90388   0.00000  Uiso   1.00
H1014  H     0.01505   0.85830   0.70998   0.00000  Uiso   1.00
H1015  H     0.17967   0.68294   0.66464   0.00000  Uiso   1.00
H1016  H     0.20815   0.97076   0.65162   0.00000  Uiso   1.00
H1017  H     0.27743   0.68386   0.63504   0.00000  Uiso   1.00
N1018  N     0.29499   0.78528   0.83361   0.00000  Uiso   1.00
N1019  N     0.07798   0.98362   0.81606   0.00000  Uiso   1.00
N1020  N     0.12584   0.88863   0.61118   0.00000  Uiso   1.00
N1021  N     0.12158   0.95943   0.89001   0.00000  Uiso   1.00
N1022  N     0.14482   0.99878   0.50839   0.00000  Uiso   1.00
O1023  O     0.16667   0.83333   0.75000   0.00000  Uiso   1.00
O1024  O     0.15451   0.79304   0.65458   0.00000  Uiso   1.00
O1025  O     0.12940   0.87058   0.84968   0.00000  Uiso   1.00
O1026  O     0.20824   0.84425   0.64606   0.00000  Uiso   1.00
O1027  O     0.17451   0.82546   0.84968   0.00000  Uiso   1.00
O1028  O     0.21571   0.67499   0.70882   0.00000  Uiso   1.00
O1029  O     0.17930   0.74686   0.78213   0.00000  Uiso   1.00
O1030  O     0.14632   0.92751   0.77013   0.00000  Uiso   1.00
O1031  O     0.07412   0.79958   0.73413   0.00000  Uiso   1.00
O1032  O     0.26693   0.85939   0.71360   0.00000  Uiso   1.00
O1033  O     0.07071   0.85544   0.78213   0.00000  Uiso   1.00
O1034  O     0.25491   0.81892   0.77013   0.00000  Uiso   1.00
O1035  O     0.13760   0.73610   0.73413   0.00000  Uiso   1.00
O1036  O     0.20345   0.92286   0.71360   0.00000  Uiso   1.00
Zn1037 Zn    0.19338   0.80661   0.78734   0.00000  Uiso   1.00
Zn1038 Zn    0.13379   0.79124   0.71875   0.00000  Uiso   1.00
Zn1039 Zn    0.21056   0.86442   0.70657   0.00000  Uiso   1.00
Zn1040 Zn    0.12893   0.87106   0.78733   0.00000  Uiso   1.00
C1041  C     0.38644   0.82689   0.75940   0.00000  Uiso   1.00
C1042  C     0.50598   0.83411   0.56063   0.00000  Uiso   1.00
C1043  C     0.53919   0.77164   0.55923   0.00000  Uiso   1.00
C1044  C     0.61390   0.84031   0.74026   0.00000  Uiso   1.00
C1045  C     0.47923   0.86461   0.91893   0.00000  Uiso   1.00
C1046  C     0.65951   0.84194   0.73678   0.00000  Uiso   1.00
C1047  C     0.34130   0.82377   0.76517   0.00000  Uiso   1.00
C1048  C     0.51301   0.98922   0.73727   0.00000  Uiso   1.00
C1049  C     0.48369   0.67916   0.76402   0.00000  Uiso   1.00
C1050  C     0.48930   0.72286   0.76016   0.00000  Uiso   1.00
C1051  C     0.50952   0.94447   0.74023   0.00000  Uiso   1.00
C1052  C     0.48327   0.92157   0.97685   0.00000  Uiso   1.00
C1053  C     0.51876   0.81440   0.62964   0.00000  Uiso   1.00
C1054  C     0.48199   0.85175   0.87095   0.00000  Uiso   1.00
C1055  C     0.53514   0.75959   0.51623   0.00000  Uiso   1.00
C1056  C     0.52351   0.80795   0.58183   0.00000  Uiso   1.00
C1057  C     0.47430   0.90664   0.93583   0.00000  Uiso   1.00
C1058  C     0.64880   0.80237   0.80320   0.00000  Uiso   1.00
C1059  C     0.54290   0.67059   0.66522   0.00000  Uiso   1.00
C1060  C     0.58029   0.69499   0.63479   0.00000  Uiso   1.00
C1061  C     0.44351   0.99633   0.79299   0.00000  Uiso   1.00
C1062  C     0.47995   0.86456   0.58864   0.00000  Uiso   1.00
C1063  C     0.49669   0.89539   0.50095   0.00000  Uiso   1.00
C1064  C     0.46348   0.93590   0.91024   0.00000  Uiso   1.00
C1065  C     0.48054   0.96451   0.99432   0.00000  Uiso   1.00
C1066  C     0.49632   0.85245   0.98828   0.00000  Uiso   1.00
C1067  C     0.48811   0.83700   0.94640   0.00000  Uiso   1.00
C1068  C     0.50700   0.82484   0.51467   0.00000  Uiso   1.00
C1069  C     0.51747   0.78497   0.99460   0.00000  Uiso   1.00
C1070  C     0.50776   0.76976   0.95436   0.00000  Uiso   1.00
C1071  C     0.49022   0.79439   0.93244   0.00000  Uiso   1.00
H1072  H     0.55174   0.75114   0.57611   0.00000  Uiso   1.00
H1073  H     0.57653   0.69059   0.60009   0.00000  Uiso   1.00
H1074  H     0.58141   0.72860   0.64633   0.00000  Uiso   1.00
H1075  H     0.51216   0.73809   0.94064   0.00000  Uiso   1.00
H1076  H     0.54480   0.72992   0.50029   0.00000  Uiso   1.00
H1077  H     0.50897   0.90971   0.52880   0.00000  Uiso   1.00
H1078  H     0.47934   0.77957   0.90388   0.00000  Uiso   1.00
H1079  H     0.34839   0.85830   0.70998   0.00000  Uiso   1.00
H1080  H     0.51300   0.68294   0.66464   0.00000  Uiso   1.00
H1081  H     0.54148   0.97076   0.65162   0.00000  Uiso   1.00
H1082  H     0.61076   0.68386   0.63504   0.00000  Uiso   1.00
N1083  N     0.62833   0.78528   0.83361   0.00000  Uiso   1.00
N1084  N     0.41132   0.98362   0.81606   0.00000  Uiso   1.00
N1085  N     0.45917   0.88863   0.61118   0.00000  Uiso   1.00
N1086  N     0.45492   0.95943   0.89001   0.00000  Uiso   1.00
N1087  N     0.47815   0.99878   0.50839   0.00000  Uiso   1.00
O1088  O     0.50000   0.83333   0.75000   0.00000  Uiso   1.00
O1089  O     0.48784   0.79304   0.65458   0.00000  Uiso   1.00
O1090  O     0.46274   0.87058   0.84968   0.00000  Uiso   1.00
O1091  O     0.54157   0.84425   0.64606   0.00000  Uiso   1.00
O1092  O     0.50785   0.82546   0.84968   0.00000  Uiso   1.00
O1093  O     0.54905   0.67499   0.70882   0.00000  Uiso   1.00
O1094  O     0.51264   0.74686   0.78213   0.00000  Uiso   1.00
O1095  O     0.47965   0.92751   0.77013   0.00000  Uiso   1.00
O1096  O     0.40745   0.79958   0.73413   0.00000  Uiso   1.00
O1097  O     0.60026   0.85939   0.71360   0.00000  Uiso   1.00
O1098  O     0.40405   0.85544   0.78213   0.00000  Uiso   1.00
O1099  O     0.58824   0.81892   0.77013   0.00000  Uiso   1.00
O1100  O     0.47093   0.73610   0.73413   0.00000  Uiso   1.00
O1101  O     0.53678   0.92286   0.71360   0.00000  Uiso   1.00
Zn1102 Zn    0.52672   0.80661   0.78734   0.00000  Uiso   1.00
Zn1103 Zn    0.46713   0.79124   0.71875   0.00000  Uiso   1.00
Zn1104 Zn    0.54389   0.86442   0.70657   0.00000  Uiso   1.00
Zn1105 Zn    0.46226   0.87106   0.78733   0.00000  Uiso   1.00
C1106  C     0.71978   0.82689   0.75940   0.00000  Uiso   1.00
C1107  C     0.83931   0.83411   0.56063   0.00000  Uiso   1.00
C1108  C     0.87252   0.77164   0.55923   0.00000  Uiso   1.00
C1109  C     0.94723   0.84031   0.74026   0.00000  Uiso   1.00
C1110  C     0.81256   0.86461   0.91893   0.00000  Uiso   1.00
C1111  C     0.99284   0.84194   0.73678   0.00000  Uiso   1.00
C1112  C     0.67463   0.82377   0.76517   0.00000  Uiso   1.00
C1113  C     0.84634   0.98922   0.73727   0.00000  Uiso   1.00
C1114  C     0.81702   0.67916   0.76402   0.00000  Uiso   1.00
C1115  C     0.82264   0.72286   0.76016   0.00000  Uiso   1.00
C1116  C     0.84285   0.94447   0.74023   0.00000  Uiso   1.00
C1117  C     0.81661   0.92157   0.97685   0.00000  Uiso   1.00
C1118  C     0.85210   0.81440   0.62964   0.00000  Uiso   1.00
C1119  C     0.81533   0.85175   0.87095   0.00000  Uiso   1.00
C1120  C     0.86847   0.75959   0.51623   0.00000  Uiso   1.00
C1121  C     0.85685   0.80795   0.58183   0.00000  Uiso   1.00
C1122  C     0.80764   0.90664   0.93583   0.00000  Uiso   1.00
C1123  C     0.98213   0.80237   0.80320   0.00000  Uiso   1.00
C1124  C     0.87623   0.67059   0.66522   0.00000  Uiso   1.00
C1125  C     0.91362   0.69499   0.63479   0.00000  Uiso   1.00
C1126  C     0.77684   0.99633   0.79299   0.00000  Uiso   1.00
C1127  C     0.81329   0.86456   0.58864   0.00000  Uiso   1.00
C1128  C     0.83002   0.89539   0.50095   0.00000  Uiso   1.00
C1129  C     0.79682   0.93590   0.91024   0.00000  Uiso   1.00
C1130  C     0.81388   0.96451   0.99432   0.00000  Uiso   1.00
C1131  C     0.82965   0.85245   0.98828   0.00000  Uiso   1.00
C1132  C     0.82145   0.83700   0.94640   0.00000  Uiso   1.00
C1133  C     0.84033   0.82484   0.51467   0.00000  Uiso   1.00
C1134  C     0.85080   0.78497   0.99460   0.00000  Uiso   1.00
C1135  C     0.84109   0.76976   0.95436   0.00000  Uiso   1.00
C1136  C     0.82356   0.79439   0.93244   0.00000  Uiso   1.00
H1137  H     0.88507   0.75114   0.57611   0.00000  Uiso   1.00
H1138  H     0.90986   0.69059   0.60009   0.00000  Uiso   1.00
H1139  H     0.91475   0.72860   0.64633   0.00000  Uiso   1.00
H1140  H     0.84549   0.73809   0.94064   0.00000  Uiso   1.00
H1141  H     0.87813   0.72992   0.50029   0.00000  Uiso   1.00
H1142  H     0.84230   0.90971   0.52880   0.00000  Uiso   1.00
H1143  H     0.81268   0.77957   0.90388   0.00000  Uiso   1.00
H1144  H     0.68172   0.85830   0.70998   0.00000  Uiso   1.00
H1145  H     0.84634   0.68294   0.66464   0.00000  Uiso   1.00
H1146  H     0.87482   0.97076   0.65162   0.00000  Uiso   1.00
H1147  H     0.94410   0.68386   0.63504   0.00000  Uiso   1.00
N1148  N     0.96166   0.78528   0.83361   0.00000  Uiso   1.00
N1149  N     0.74465   0.98362   0.81606   0.00000  Uiso   1.00
N1150  N     0.79251   0.88863   0.61118   0.00000  Uiso   1.00
N1151  N     0.78825   0.95943   0.89001   0.00000  Uiso   1.00
N1152  N     0.81149   0.99878   0.50839   0.00000  Uiso   1.00
O1153  O     0.83333   0.83333   0.75000   0.00000  Uiso   1.00
O1154  O     0.82118   0.79304   0.65458   0.00000  Uiso   1.00
O1155  O     0.79607   0.87058   0.84968   0.00000  Uiso   1.00
O1156  O     0.87491   0.84425   0.64606   0.00000  Uiso   1.00
O1157  O     0.84118   0.82546   0.84968   0.00000  Uiso   1.00
O1158  O     0.88238   0.67499   0.70882   0.00000  Uiso   1.00
O1159  O     0.84597   0.74686   0.78213   0.00000  Uiso   1.00
O1160  O     0.81298   0.92751   0.77013   0.00000  Uiso   1.00
O1161  O     0.74078   0.79958   0.73413   0.00000  Uiso   1.00
O1162  O     0.93360   0.85939   0.71360   0.00000  Uiso   1.00
O1163  O     0.73738   0.85544   0.78213   0.00000  Uiso   1.00
O1164  O     0.92158   0.81892   0.77013   0.00000  Uiso   1.00
O1165  O     0.80426   0.73610   0.73413   0.00000  Uiso   1.00
O1166  O     0.87012   0.92286   0.71360   0.00000  Uiso   1.00
Zn1167 Zn    0.86005   0.80661   0.78734   0.00000  Uiso   1.00
Zn1168 Zn    0.80046   0.79124   0.71875   0.00000  Uiso   1.00
Zn1169 Zn    0.87723   0.86442   0.70657   0.00000  Uiso   1.00
Zn1170 Zn    0.79560   0.87106   0.78733   0.00000  Uiso   1.00
loop_
_geom_bond_atom_site_label_1
_geom_bond_atom_site_label_2
_geom_bond_distance
_geom_bond_site_symmetry_2
_ccdc_geom_bond_type
C1     O58     1.265   .     A
C1     O56     1.268   .     A
C1     C7      1.428   .     S
C2     C22     1.454   .     S
C2     C16     1.405   .     A
C2     C28     1.420   .     A
C3     C16     1.395   .     A
C3     H32     1.083   .     S
C3     C15     1.386   .     A
C4     O57     1.296   .     A
C4     O59     1.277   .     A
C4     C6      1.459   .     S
C5     C14     1.486   .     S
C5     C27     1.423   .     A
C5     C17     1.425   .     A
C6     C72     1.350   .     S
C6     H104    1.088   .     S
C7     C136    1.350   1_455 S
C7     C148    1.450   1_455 S
C8     C11     1.460   .     S
C8     C204    1.351   .     S
C8     O248    1.389   .     S
C9     C10     1.427   .     S
C9     C398    1.351   1_545 S
C9     C411    1.450   1_545 S
C10    O60     1.274   .     A
C10    O54     1.279   .     A
C11    O61     1.276   .     A
C11    O55     1.270   .     A
C12    C17     1.401   .     A
C12    C25     1.447   .     S
C12    C608    1.388   .     S
C13    O49     1.273   .     A
C13    O51     1.279   .     A
C13    C16     1.449   .     S
C14    O50     1.283   .     A
C14    O52     1.290   .     A
C15    H36     1.084   .     S
C15    C614    1.398   1_554 S
C17    C24     1.451   .     S
C18    N43     1.158   .     T
C18    C72     1.450   .     S
C19    C20     1.520   .     S
C19    O53     1.413   .     S
C19    H40     1.115   .     S
C19    H431    1.113   1_545 S
C20    H34     1.111   .     S
C20    H42     1.111   .     S
C20    H33     1.110   .     S
C21    N44     1.158   .     T
C21    C204    1.450   .     S
C22    N45     1.158   .     T
C23    H37     1.079   .     S
C23    C597    1.388   1_554 S
C23    C611    1.409   1_554 S
C24    N46     1.157   .     T
C25    N632    1.157   .     S
C26    C27     1.420   .     A
C26    C608    1.409   .     S
C26    C613    1.426   .     S
C27    C31     1.412   .     A
C28    C611    1.426   1_554 S
C28    C614    1.421   1_554 S
C29    C30     1.391   .     A
C29    C613    1.421   .     S
C29    C600    1.398   .     S
C30    C31     1.384   .     A
C30    H35     1.084   .     S
C31    H38     1.080   .     S
H39    C136    1.088   1_455 S
H41    C214    1.113   .     S
N47    C610    1.157   1_554 S
O48    Zn65    1.930   .     S
O48    Zn62    1.971   .     S
O48    Zn64    1.949   .     S
O48    Zn63    1.947   .     S
O49    Zn63    1.939   .     S
O50    Zn65    1.949   .     S
O51    Zn64    1.938   .     S
O52    Zn62    1.929   .     S
O53    C398    1.389   1_545 S
O54    Zn62    1.935   .     S
O55    Zn65    1.944   .     S
O56    Zn63    1.932   .     S
O57    Zn64    1.944   .     S
O58    Zn65    1.941   .     S
O59    Zn62    1.933   .     S
O60    Zn63    1.947   .     S
O61    Zn64    1.934   .     S
C66    O123    1.265   .     A
C66    O121    1.268   .     A
C66    C72     1.428   .     S
C67    C87     1.454   .     S
C67    C81     1.405   .     A
C67    C93     1.420   .     A
C68    C81     1.395   .     A
C68    H97     1.083   .     S
C68    C80     1.386   .     A
C69    O122    1.296   .     A
C69    O124    1.277   .     A
C69    C71     1.459   .     S
C70    C79     1.486   .     S
C70    C92     1.423   .     A
C70    C82     1.425   .     A
C71    C137    1.350   .     S
C71    H169    1.088   .     S
C73    C76     1.460   .     S
C73    C269    1.351   .     S
C73    O313    1.389   .     S
C74    C75     1.427   .     S
C74    C463    1.351   1_545 S
C74    C476    1.450   1_545 S
C75    O125    1.274   .     A
C75    O119    1.279   .     A
C76    O126    1.276   .     A
C76    O120    1.270   .     A
C77    C82     1.401   .     A
C77    C90     1.447   .     S
C77    C673    1.388   .     S
C78    O114    1.273   .     A
C78    O116    1.279   .     A
C78    C81     1.449   .     S
C79    O115    1.283   .     A
C79    O117    1.290   .     A
C80    H101    1.084   .     S
C80    C679    1.398   1_554 S
C82    C89     1.451   .     S
C83    N108    1.158   .     T
C83    C137    1.450   .     S
C84    C85     1.520   .     S
C84    O118    1.413   .     S
C84    H105    1.115   .     S
C84    H496    1.113   1_545 S
C85    H99     1.111   .     S
C85    H107    1.111   .     S
C85    H98     1.110   .     S
C86    N109    1.158   .     T
C86    C269    1.450   .     S
C87    N110    1.158   .     T
C88    H102    1.079   .     S
C88    C662    1.388   1_554 S
C88    C676    1.409   1_554 S
C89    N111    1.157   .     T
C90    N697    1.157   .     S
C91    C92     1.420   .     A
C91    C673    1.409   .     S
C91    C678    1.426   .     S
C92    C96     1.412   .     A
C93    C676    1.426   1_554 S
C93    C679    1.421   1_554 S
C94    C95     1.391   .     A
C94    C678    1.421   .     S
C94    C665    1.398   .     S
C95    C96     1.384   .     A
C95    H100    1.084   .     S
C96    H103    1.080   .     S
H106   C279    1.113   .     S
N112   C675    1.157   1_554 S
O113   Zn130   1.930   .     S
O113   Zn127   1.971   .     S
O113   Zn129   1.949   .     S
O113   Zn128   1.947   .     S
O114   Zn128   1.939   .     S
O115   Zn130   1.949   .     S
O116   Zn129   1.938   .     S
O117   Zn127   1.929   .     S
O118   C463    1.389   1_545 S
O119   Zn127   1.935   .     S
O120   Zn130   1.944   .     S
O121   Zn128   1.932   .     S
O122   Zn129   1.944   .     S
O123   Zn130   1.941   .     S
O124   Zn127   1.933   .     S
O125   Zn128   1.947   .     S
O126   Zn129   1.934   .     S
C131   O188    1.265   .     A
C131   O186    1.268   .     A
C131   C137    1.428   .     S
C132   C152    1.454   .     S
C132   C146    1.405   .     A
C132   C158    1.420   .     A
C133   C146    1.395   .     A
C133   H162    1.083   .     S
C133   C145    1.386   .     A
C134   O187    1.296   .     A
C134   O189    1.277   .     A
C134   C136    1.459   .     S
C135   C144    1.486   .     S
C135   C157    1.423   .     A
C135   C147    1.425   .     A
C136   C7      1.350   1_655 S
C136   H39     1.088   1_655 S
C138   C141    1.460   .     S
C138   C334    1.351   .     S
C138   O378    1.389   .     S
C139   C140    1.427   .     S
C139   C528    1.351   1_545 S
C139   C541    1.450   1_545 S
C140   O190    1.274   .     A
C140   O184    1.279   .     A
C141   O191    1.276   .     A
C141   O185    1.270   .     A
C142   C147    1.401   .     A
C142   C155    1.447   .     S
C142   C738    1.388   .     S
C143   O179    1.273   .     A
C143   O181    1.279   .     A
C143   C146    1.449   .     S
C144   O180    1.283   .     A
C144   O182    1.290   .     A
C145   H166    1.084   .     S
C145   C744    1.398   1_554 S
C147   C154    1.451   .     S
C148   N173    1.158   .     T
C148   C7      1.450   1_655 S
C149   C150    1.520   .     S
C149   O183    1.413   .     S
C149   H170    1.115   .     S
C149   H561    1.113   1_545 S
C150   H164    1.111   .     S
C150   H172    1.111   .     S
C150   H163    1.110   .     S
C151   N174    1.158   .     T
C151   C334    1.450   .     S
C152   N175    1.158   .     T
C153   H167    1.079   .     S
C153   C727    1.388   1_554 S
C153   C741    1.409   1_554 S
C154   N176    1.157   .     T
C155   N762    1.157   .     S
C156   C157    1.420   .     A
C156   C738    1.409   .     S
C156   C743    1.426   .     S
C157   C161    1.412   .     A
C158   C741    1.426   1_554 S
C158   C744    1.421   1_554 S
C159   C160    1.391   .     A
C159   C743    1.421   .     S
C159   C730    1.398   .     S
C160   C161    1.384   .     A
C160   H165    1.084   .     S
C161   H168    1.080   .     S
H171   C344    1.113   .     S
N177   C740    1.157   1_554 S
O178   Zn195   1.930   .     S
O178   Zn192   1.971   .     S
O178   Zn194   1.949   .     S
O178   Zn193   1.947   .     S
O179   Zn193   1.939   .     S
O180   Zn195   1.949   .     S
O181   Zn194   1.938   .     S
O182   Zn192   1.929   .     S
O183   C528    1.389   1_545 S
O184   Zn192   1.935   .     S
O185   Zn195   1.944   .     S
O186   Zn193   1.932   .     S
O187   Zn194   1.944   .     S
O188   Zn195   1.941   .     S
O189   Zn192   1.933   .     S
O190   Zn193   1.947   .     S
O191   Zn194   1.934   .     S
C196   O253    1.265   .     A
C196   O251    1.268   .     A
C196   C202    1.428   .     S
C197   C217    1.454   .     S
C197   C211    1.405   .     A
C197   C223    1.420   .     A
C198   C211    1.395   .     A
C198   H227    1.083   .     S
C198   C210    1.386   .     A
C199   O252    1.296   .     A
C199   O254    1.277   .     A
C199   C201    1.459   .     S
C200   C209    1.486   .     S
C200   C222    1.423   .     A
C200   C212    1.425   .     A
C201   C267    1.350   .     S
C201   H299    1.088   .     S
C202   C331    1.350   1_455 S
C202   C343    1.450   1_455 S
C203   C206    1.460   .     S
C203   C399    1.351   .     S
C203   O443    1.389   .     S
C204   C205    1.427   .     S
C205   O255    1.274   .     A
C205   O249    1.279   .     A
C206   O256    1.276   .     A
C206   O250    1.270   .     A
C207   C212    1.401   .     A
C207   C220    1.447   .     S
C207   C803    1.388   .     S
C208   O244    1.273   .     A
C208   O246    1.279   .     A
C208   C211    1.449   .     S
C209   O245    1.283   .     A
C209   O247    1.290   .     A
C210   H231    1.084   .     S
C210   C809    1.398   1_554 S
C212   C219    1.451   .     S
C213   N238    1.158   .     T
C213   C267    1.450   .     S
C214   C215    1.520   .     S
C214   O248    1.413   .     S
C214   H235    1.115   .     S
C215   H229    1.111   .     S
C215   H237    1.111   .     S
C215   H228    1.110   .     S
C216   N239    1.158   .     T
C216   C399    1.450   .     S
C217   N240    1.158   .     T
C218   H232    1.079   .     S
C218   C792    1.388   1_554 S
C218   C806    1.409   1_554 S
C219   N241    1.157   .     T
C220   N827    1.157   .     S
C221   C222    1.420   .     A
C221   C803    1.409   .     S
C221   C808    1.426   .     S
C222   C226    1.412   .     A
C223   C806    1.426   1_554 S
C223   C809    1.421   1_554 S
C224   C225    1.391   .     A
C224   C808    1.421   .     S
C224   C795    1.398   .     S
C225   C226    1.384   .     A
C225   H230    1.084   .     S
C226   H233    1.080   .     S
H234   C331    1.088   1_455 S
H236   C409    1.113   .     S
N242   C805    1.157   1_554 S
O243   Zn260   1.930   .     S
O243   Zn257   1.971   .     S
O243   Zn259   1.949   .     S
O243   Zn258   1.947   .     S
O244   Zn258   1.939   .     S
O245   Zn260   1.949   .     S
O246   Zn259   1.938   .     S
O247   Zn257   1.929   .     S
O249   Zn257   1.935   .     S
O250   Zn260   1.944   .     S
O251   Zn258   1.932   .     S
O252   Zn259   1.944   .     S
O253   Zn260   1.941   .     S
O254   Zn257   1.933   .     S
O255   Zn258   1.947   .     S
O256   Zn259   1.934   .     S
C261   O318    1.265   .     A
C261   O316    1.268   .     A
C261   C267    1.428   .     S
C262   C282    1.454   .     S
C262   C276    1.405   .     A
C262   C288    1.420   .     A
C263   C276    1.395   .     A
C263   H292    1.083   .     S
C263   C275    1.386   .     A
C264   O317    1.296   .     A
C264   O319    1.277   .     A
C264   C266    1.459   .     S
C265   C274    1.486   .     S
C265   C287    1.423   .     A
C265   C277    1.425   .     A
C266   C332    1.350   .     S
C266   H364    1.088   .     S
C268   C271    1.460   .     S
C268   C464    1.351   .     S
C268   O508    1.389   .     S
C269   C270    1.427   .     S
C270   O320    1.274   .     A
C270   O314    1.279   .     A
C271   O321    1.276   .     A
C271   O315    1.270   .     A
C272   C277    1.401   .     A
C272   C285    1.447   .     S
C272   C868    1.388   .     S
C273   O309    1.273   .     A
C273   O311    1.279   .     A
C273   C276    1.449   .     S
C274   O310    1.283   .     A
C274   O312    1.290   .     A
C275   H296    1.084   .     S
C275   C874    1.398   1_554 S
C277   C284    1.451   .     S
C278   N303    1.158   .     T
C278   C332    1.450   .     S
C279   C280    1.520   .     S
C279   O313    1.413   .     S
C279   H300    1.115   .     S
C280   H294    1.111   .     S
C280   H302    1.111   .     S
C280   H293    1.110   .     S
C281   N304    1.158   .     T
C281   C464    1.450   .     S
C282   N305    1.158   .     T
C283   H297    1.079   .     S
C283   C857    1.388   1_554 S
C283   C871    1.409   1_554 S
C284   N306    1.157   .     T
C285   N892    1.157   .     S
C286   C287    1.420   .     A
C286   C868    1.409   .     S
C286   C873    1.426   .     S
C287   C291    1.412   .     A
C288   C871    1.426   1_554 S
C288   C874    1.421   1_554 S
C289   C290    1.391   .     A
C289   C873    1.421   .     S
C289   C860    1.398   .     S
C290   C291    1.384   .     A
C290   H295    1.084   .     S
C291   H298    1.080   .     S
H301   C474    1.113   .     S
N307   C870    1.157   1_554 S
O308   Zn325   1.930   .     S
O308   Zn322   1.971   .     S
O308   Zn324   1.949   .     S
O308   Zn323   1.947   .     S
O309   Zn323   1.939   .     S
O310   Zn325   1.949   .     S
O311   Zn324   1.938   .     S
O312   Zn322   1.929   .     S
O314   Zn322   1.935   .     S
O315   Zn325   1.944   .     S
O316   Zn323   1.932   .     S
O317   Zn324   1.944   .     S
O318   Zn325   1.941   .     S
O319   Zn322   1.933   .     S
O320   Zn323   1.947   .     S
O321   Zn324   1.934   .     S
C326   O383    1.265   .     A
C326   O381    1.268   .     A
C326   C332    1.428   .     S
C327   C347    1.454   .     S
C327   C341    1.405   .     A
C327   C353    1.420   .     A
C328   C341    1.395   .     A
C328   H357    1.083   .     S
C328   C340    1.386   .     A
C329   O382    1.296   .     A
C329   O384    1.277   .     A
C329   C331    1.459   .     S
C330   C339    1.486   .     S
C330   C352    1.423   .     A
C330   C342    1.425   .     A
C331   C202    1.350   1_655 S
C331   H234    1.088   1_655 S
C333   C336    1.460   .     S
C333   C529    1.351   .     S
C333   O573    1.389   .     S
C334   C335    1.427   .     S
C335   O385    1.274   .     A
C335   O379    1.279   .     A
C336   O386    1.276   .     A
C336   O380    1.270   .     A
C337   C342    1.401   .     A
C337   C350    1.447   .     S
C337   C933    1.388   .     S
C338   O374    1.273   .     A
C338   O376    1.279   .     A
C338   C341    1.449   .     S
C339   O375    1.283   .     A
C339   O377    1.290   .     A
C340   H361    1.084   .     S
C340   C939    1.398   1_554 S
C342   C349    1.451   .     S
C343   N368    1.158   .     T
C343   C202    1.450   1_655 S
C344   C345    1.520   .     S
C344   O378    1.413   .     S
C344   H365    1.115   .     S
C345   H359    1.111   .     S
C345   H367    1.111   .     S
C345   H358    1.110   .     S
C346   N369    1.158   .     T
C346   C529    1.450   .     S
C347   N370    1.158   .     T
C348   H362    1.079   .     S
C348   C922    1.388   1_554 S
C348   C936    1.409   1_554 S
C349   N371    1.157   .     T
C350   N957    1.157   .     S
C351   C352    1.420   .     A
C351   C933    1.409   .     S
C351   C938    1.426   .     S
C352   C356    1.412   .     A
C353   C936    1.426   1_554 S
C353   C939    1.421   1_554 S
C354   C355    1.391   .     A
C354   C938    1.421   .     S
C354   C925    1.398   .     S
C355   C356    1.384   .     A
C355   H360    1.084   .     S
C356   H363    1.080   .     S
H366   C539    1.113   .     S
N372   C935    1.157   1_554 S
O373   Zn390   1.930   .     S
O373   Zn387   1.971   .     S
O373   Zn389   1.949   .     S
O373   Zn388   1.947   .     S
O374   Zn388   1.939   .     S
O375   Zn390   1.949   .     S
O376   Zn389   1.938   .     S
O377   Zn387   1.929   .     S
O379   Zn387   1.935   .     S
O380   Zn390   1.944   .     S
O381   Zn388   1.932   .     S
O382   Zn389   1.944   .     S
O383   Zn390   1.941   .     S
O384   Zn387   1.933   .     S
O385   Zn388   1.947   .     S
O386   Zn389   1.934   .     S
C391   O448    1.265   .     A
C391   O446    1.268   .     A
C391   C397    1.428   .     S
C392   C412    1.454   .     S
C392   C406    1.405   .     A
C392   C418    1.420   .     A
C393   C406    1.395   .     A
C393   H422    1.083   .     S
C393   C405    1.386   .     A
C394   O447    1.296   .     A
C394   O449    1.277   .     A
C394   C396    1.459   .     S
C395   C404    1.486   .     S
C395   C417    1.423   .     A
C395   C407    1.425   .     A
C396   C462    1.350   .     S
C396   H494    1.088   .     S
C397   C526    1.350   1_455 S
C397   C538    1.450   1_455 S
C398   C401    1.460   .     S
C398   C9      1.351   1_565 S
C398   O53     1.389   1_565 S
C399   C400    1.427   .     S
C400   O450    1.274   .     A
C400   O444    1.279   .     A
C401   O451    1.276   .     A
C401   O445    1.270   .     A
C402   C407    1.401   .     A
C402   C415    1.447   .     S
C402   C998    1.388   .     S
C403   O439    1.273   .     A
C403   O441    1.279   .     A
C403   C406    1.449   .     S
C404   O440    1.283   .     A
C404   O442    1.290   .     A
C405   H426    1.084   .     S
C405   C1004   1.398   1_554 S
C407   C414    1.451   .     S
C408   N433    1.158   .     T
C408   C462    1.450   .     S
C409   C410    1.520   .     S
C409   O443    1.413   .     S
C409   H430    1.115   .     S
C410   H424    1.111   .     S
C410   H432    1.111   .     S
C410   H423    1.110   .     S
C411   N434    1.158   .     T
C411   C9      1.450   1_565 S
C412   N435    1.158   .     T
C413   H427    1.079   .     S
C413   C987    1.388   1_554 S
C413   C1001   1.409   1_554 S
C414   N436    1.157   .     T
C415   N1022   1.157   .     S
C416   C417    1.420   .     A
C416   C998    1.409   .     S
C416   C1003   1.426   .     S
C417   C421    1.412   .     A
C418   C1001   1.426   1_554 S
C418   C1004   1.421   1_554 S
C419   C420    1.391   .     A
C419   C1003   1.421   .     S
C419   C990    1.398   .     S
C420   C421    1.384   .     A
C420   H425    1.084   .     S
C421   H428    1.080   .     S
H429   C526    1.088   1_455 S
H431   C19     1.113   1_565 S
N437   C1000   1.157   1_554 S
O438   Zn455   1.930   .     S
O438   Zn452   1.971   .     S
O438   Zn454   1.949   .     S
O438   Zn453   1.947   .     S
O439   Zn453   1.939   .     S
O440   Zn455   1.949   .     S
O441   Zn454   1.938   .     S
O442   Zn452   1.929   .     S
O444   Zn452   1.935   .     S
O445   Zn455   1.944   .     S
O446   Zn453   1.932   .     S
O447   Zn454   1.944   .     S
O448   Zn455   1.941   .     S
O449   Zn452   1.933   .     S
O450   Zn453   1.947   .     S
O451   Zn454   1.934   .     S
C456   O513    1.265   .     A
C456   O511    1.268   .     A
C456   C462    1.428   .     S
C457   C477    1.454   .     S
C457   C471    1.405   .     A
C457   C483    1.420   .     A
C458   C471    1.395   .     A
C458   H487    1.083   .     S
C458   C470    1.386   .     A
C459   O512    1.296   .     A
C459   O514    1.277   .     A
C459   C461    1.459   .     S
C460   C469    1.486   .     S
C460   C482    1.423   .     A
C460   C472    1.425   .     A
C461   C527    1.350   .     S
C461   H559    1.088   .     S
C463   C466    1.460   .     S
C463   C74     1.351   1_565 S
C463   O118    1.389   1_565 S
C464   C465    1.427   .     S
C465   O515    1.274   .     A
C465   O509    1.279   .     A
C466   O516    1.276   .     A
C466   O510    1.270   .     A
C467   C472    1.401   .     A
C467   C480    1.447   .     S
C467   C1063   1.388   .     S
C468   O504    1.273   .     A
C468   O506    1.279   .     A
C468   C471    1.449   .     S
C469   O505    1.283   .     A
C469   O507    1.290   .     A
C470   H491    1.084   .     S
C470   C1069   1.398   1_554 S
C472   C479    1.451   .     S
C473   N498    1.158   .     T
C473   C527    1.450   .     S
C474   C475    1.520   .     S
C474   O508    1.413   .     S
C474   H495    1.115   .     S
C475   H489    1.111   .     S
C475   H497    1.111   .     S
C475   H488    1.110   .     S
C476   N499    1.158   .     T
C476   C74     1.450   1_565 S
C477   N500    1.158   .     T
C478   H492    1.079   .     S
C478   C1052   1.388   1_554 S
C478   C1066   1.409   1_554 S
C479   N501    1.157   .     T
C480   N1087   1.157   .     S
C481   C482    1.420   .     A
C481   C1063   1.409   .     S
C481   C1068   1.426   .     S
C482   C486    1.412   .     A
C483   C1066   1.426   1_554 S
C483   C1069   1.421   1_554 S
C484   C485    1.391   .     A
C484   C1068   1.421   .     S
C484   C1055   1.398   .     S
C485   C486    1.384   .     A
C485   H490    1.084   .     S
C486   H493    1.080   .     S
H496   C84     1.113   1_565 S
N502   C1065   1.157   1_554 S
O503   Zn520   1.930   .     S
O503   Zn517   1.971   .     S
O503   Zn519   1.949   .     S
O503   Zn518   1.947   .     S
O504   Zn518   1.939   .     S
O505   Zn520   1.949   .     S
O506   Zn519   1.938   .     S
O507   Zn517   1.929   .     S
O509   Zn517   1.935   .     S
O510   Zn520   1.944   .     S
O511   Zn518   1.932   .     S
O512   Zn519   1.944   .     S
O513   Zn520   1.941   .     S
O514   Zn517   1.933   .     S
O515   Zn518   1.947   .     S
O516   Zn519   1.934   .     S
C521   O578    1.265   .     A
C521   O576    1.268   .     A
C521   C527    1.428   .     S
C522   C542    1.454   .     S
C522   C536    1.405   .     A
C522   C548    1.420   .     A
C523   C536    1.395   .     A
C523   H552    1.083   .     S
C523   C535    1.386   .     A
C524   O577    1.296   .     A
C524   O579    1.277   .     A
C524   C526    1.459   .     S
C525   C534    1.486   .     S
C525   C547    1.423   .     A
C525   C537    1.425   .     A
C526   C397    1.350   1_655 S
C526   H429    1.088   1_655 S
C528   C531    1.460   .     S
C528   C139    1.351   1_565 S
C528   O183    1.389   1_565 S
C529   C530    1.427   .     S
C530   O580    1.274   .     A
C530   O574    1.279   .     A
C531   O581    1.276   .     A
C531   O575    1.270   .     A
C532   C537    1.401   .     A
C532   C545    1.447   .     S
C532   C1128   1.388   .     S
C533   O569    1.273   .     A
C533   O571    1.279   .     A
C533   C536    1.449   .     S
C534   O570    1.283   .     A
C534   O572    1.290   .     A
C535   H556    1.084   .     S
C535   C1134   1.398   1_554 S
C537   C544    1.451   .     S
C538   N563    1.158   .     T
C538   C397    1.450   1_655 S
C539   C540    1.520   .     S
C539   O573    1.413   .     S
C539   H560    1.115   .     S
C540   H554    1.111   .     S
C540   H562    1.111   .     S
C540   H553    1.110   .     S
C541   N564    1.158   .     T
C541   C139    1.450   1_565 S
C542   N565    1.158   .     T
C543   H557    1.079   .     S
C543   C1117   1.388   1_554 S
C543   C1131   1.409   1_554 S
C544   N566    1.157   .     T
C545   N1152   1.157   .     S
C546   C547    1.420   .     A
C546   C1128   1.409   .     S
C546   C1133   1.426   .     S
C547   C551    1.412   .     A
C548   C1131   1.426   1_554 S
C548   C1134   1.421   1_554 S
C549   C550    1.391   .     A
C549   C1133   1.421   .     S
C549   C1120   1.398   .     S
C550   C551    1.384   .     A
C550   H555    1.084   .     S
C551   H558    1.080   .     S
H561   C149    1.113   1_565 S
N567   C1130   1.157   1_554 S
O568   Zn585   1.930   .     S
O568   Zn582   1.971   .     S
O568   Zn584   1.949   .     S
O568   Zn583   1.947   .     S
O569   Zn583   1.939   .     S
O570   Zn585   1.949   .     S
O571   Zn584   1.938   .     S
O572   Zn582   1.929   .     S
O574   Zn582   1.935   .     S
O575   Zn585   1.944   .     S
O576   Zn583   1.932   .     S
O577   Zn584   1.944   .     S
O578   Zn585   1.941   .     S
O579   Zn582   1.933   .     S
O580   Zn583   1.947   .     S
O581   Zn584   1.934   .     S
C586   O643    1.265   .     A
C586   O641    1.268   .     A
C586   C592    1.428   .     S
C587   C607    1.454   .     S
C587   C601    1.405   .     A
C587   C613    1.420   .     A
C588   C601    1.395   .     A
C588   H617    1.083   .     S
C588   C600    1.386   .     A
C589   O642    1.296   .     A
C589   O644    1.277   .     A
C589   C591    1.459   .     S
C590   C599    1.486   .     S
C590   C612    1.423   .     A
C590   C602    1.425   .     A
C591   C657    1.350   .     S
C591   H689    1.088   .     S
C592   C721    1.350   1_455 S
C592   C733    1.450   1_455 S
C593   C596    1.460   .     S
C593   C789    1.351   .     S
C593   O833    1.389   .     S
C594   C595    1.427   .     S
C594   C983    1.351   1_545 S
C594   C996    1.450   1_545 S
C595   O645    1.274   .     A
C595   O639    1.279   .     A
C596   O646    1.276   .     A
C596   O640    1.270   .     A
C597   C602    1.401   .     A
C597   C610    1.447   .     S
C597   C23     1.388   1_556 S
C598   O634    1.273   .     A
C598   O636    1.279   .     A
C598   C601    1.449   .     S
C599   O635    1.283   .     A
C599   O637    1.290   .     A
C600   H621    1.084   .     S
C602   C609    1.451   .     S
C603   N628    1.158   .     T
C603   C657    1.450   .     S
C604   C605    1.520   .     S
C604   O638    1.413   .     S
C604   H625    1.115   .     S
C604   H1016   1.113   1_545 S
C605   H619    1.111   .     S
C605   H627    1.111   .     S
C605   H618    1.110   .     S
C606   N629    1.158   .     T
C606   C789    1.450   .     S
C607   N630    1.158   .     T
C608   H622    1.079   .     S
C609   N631    1.157   .     T
C610   N47     1.157   1_556 S
C611   C612    1.420   .     A
C611   C23     1.409   1_556 S
C611   C28     1.426   1_556 S
C612   C616    1.412   .     A
C614   C615    1.391   .     A
C614   C28     1.421   1_556 S
C614   C15     1.398   1_556 S
C615   C616    1.384   .     A
C615   H620    1.084   .     S
C616   H623    1.080   .     S
H624   C721    1.088   1_455 S
H626   C799    1.113   .     S
O633   Zn650   1.930   .     S
O633   Zn647   1.971   .     S
O633   Zn649   1.949   .     S
O633   Zn648   1.947   .     S
O634   Zn648   1.939   .     S
O635   Zn650   1.949   .     S
O636   Zn649   1.938   .     S
O637   Zn647   1.929   .     S
O638   C983    1.389   1_545 S
O639   Zn647   1.935   .     S
O640   Zn650   1.944   .     S
O641   Zn648   1.932   .     S
O642   Zn649   1.944   .     S
O643   Zn650   1.941   .     S
O644   Zn647   1.933   .     S
O645   Zn648   1.947   .     S
O646   Zn649   1.934   .     S
C651   O708    1.265   .     A
C651   O706    1.268   .     A
C651   C657    1.428   .     S
C652   C672    1.454   .     S
C652   C666    1.405   .     A
C652   C678    1.420   .     A
C653   C666    1.395   .     A
C653   H682    1.083   .     S
C653   C665    1.386   .     A
C654   O707    1.296   .     A
C654   O709    1.277   .     A
C654   C656    1.459   .     S
C655   C664    1.486   .     S
C655   C677    1.423   .     A
C655   C667    1.425   .     A
C656   C722    1.350   .     S
C656   H754    1.088   .     S
C658   C661    1.460   .     S
C658   C854    1.351   .     S
C658   O898    1.389   .     S
C659   C660    1.427   .     S
C659   C1048   1.351   1_545 S
C659   C1061   1.450   1_545 S
C660   O710    1.274   .     A
C660   O704    1.279   .     A
C661   O711    1.276   .     A
C661   O705    1.270   .     A
C662   C667    1.401   .     A
C662   C675    1.447   .     S
C662   C88     1.388   1_556 S
C663   O699    1.273   .     A
C663   O701    1.279   .     A
C663   C666    1.449   .     S
C664   O700    1.283   .     A
C664   O702    1.290   .     A
C665   H686    1.084   .     S
C667   C674    1.451   .     S
C668   N693    1.158   .     T
C668   C722    1.450   .     S
C669   C670    1.520   .     S
C669   O703    1.413   .     S
C669   H690    1.115   .     S
C669   H1081   1.113   1_545 S
C670   H684    1.111   .     S
C670   H692    1.111   .     S
C670   H683    1.110   .     S
C671   N694    1.158   .     T
C671   C854    1.450   .     S
C672   N695    1.158   .     T
C673   H687    1.079   .     S
C674   N696    1.157   .     T
C675   N112    1.157   1_556 S
C676   C677    1.420   .     A
C676   C88     1.409   1_556 S
C676   C93     1.426   1_556 S
C677   C681    1.412   .     A
C679   C680    1.391   .     A
C679   C93     1.421   1_556 S
C679   C80     1.398   1_556 S
C680   C681    1.384   .     A
C680   H685    1.084   .     S
C681   H688    1.080   .     S
H691   C864    1.113   .     S
O698   Zn715   1.930   .     S
O698   Zn712   1.971   .     S
O698   Zn714   1.949   .     S
O698   Zn713   1.947   .     S
O699   Zn713   1.939   .     S
O700   Zn715   1.949   .     S
O701   Zn714   1.938   .     S
O702   Zn712   1.929   .     S
O703   C1048   1.389   1_545 S
O704   Zn712   1.935   .     S
O705   Zn715   1.944   .     S
O706   Zn713   1.932   .     S
O707   Zn714   1.944   .     S
O708   Zn715   1.941   .     S
O709   Zn712   1.933   .     S
O710   Zn713   1.947   .     S
O711   Zn714   1.934   .     S
C716   O773    1.265   .     A
C716   O771    1.268   .     A
C716   C722    1.428   .     S
C717   C737    1.454   .     S
C717   C731    1.405   .     A
C717   C743    1.420   .     A
C718   C731    1.395   .     A
C718   H747    1.083   .     S
C718   C730    1.386   .     A
C719   O772    1.296   .     A
C719   O774    1.277   .     A
C719   C721    1.459   .     S
C720   C729    1.486   .     S
C720   C742    1.423   .     A
C720   C732    1.425   .     A
C721   C592    1.350   1_655 S
C721   H624    1.088   1_655 S
C723   C726    1.460   .     S
C723   C919    1.351   .     S
C723   O963    1.389   .     S
C724   C725    1.427   .     S
C724   C1113   1.351   1_545 S
C724   C1126   1.450   1_545 S
C725   O775    1.274   .     A
C725   O769    1.279   .     A
C726   O776    1.276   .     A
C726   O770    1.270   .     A
C727   C732    1.401   .     A
C727   C740    1.447   .     S
C727   C153    1.388   1_556 S
C728   O764    1.273   .     A
C728   O766    1.279   .     A
C728   C731    1.449   .     S
C729   O765    1.283   .     A
C729   O767    1.290   .     A
C730   H751    1.084   .     S
C732   C739    1.451   .     S
C733   N758    1.158   .     T
C733   C592    1.450   1_655 S
C734   C735    1.520   .     S
C734   O768    1.413   .     S
C734   H755    1.115   .     S
C734   H1146   1.113   1_545 S
C735   H749    1.111   .     S
C735   H757    1.111   .     S
C735   H748    1.110   .     S
C736   N759    1.158   .     T
C736   C919    1.450   .     S
C737   N760    1.158   .     T
C738   H752    1.079   .     S
C739   N761    1.157   .     T
C740   N177    1.157   1_556 S
C741   C742    1.420   .     A
C741   C153    1.409   1_556 S
C741   C158    1.426   1_556 S
C742   C746    1.412   .     A
C744   C745    1.391   .     A
C744   C158    1.421   1_556 S
C744   C145    1.398   1_556 S
C745   C746    1.384   .     A
C745   H750    1.084   .     S
C746   H753    1.080   .     S
H756   C929    1.113   .     S
O763   Zn780   1.930   .     S
O763   Zn777   1.971   .     S
O763   Zn779   1.949   .     S
O763   Zn778   1.947   .     S
O764   Zn778   1.939   .     S
O765   Zn780   1.949   .     S
O766   Zn779   1.938   .     S
O767   Zn777   1.929   .     S
O768   C1113   1.389   1_545 S
O769   Zn777   1.935   .     S
O770   Zn780   1.944   .     S
O771   Zn778   1.932   .     S
O772   Zn779   1.944   .     S
O773   Zn780   1.941   .     S
O774   Zn777   1.933   .     S
O775   Zn778   1.947   .     S
O776   Zn779   1.934   .     S
C781   O838    1.265   .     A
C781   O836    1.268   .     A
C781   C787    1.428   .     S
C782   C802    1.454   .     S
C782   C796    1.405   .     A
C782   C808    1.420   .     A
C783   C796    1.395   .     A
C783   H812    1.083   .     S
C783   C795    1.386   .     A
C784   O837    1.296   .     A
C784   O839    1.277   .     A
C784   C786    1.459   .     S
C785   C794    1.486   .     S
C785   C807    1.423   .     A
C785   C797    1.425   .     A
C786   C852    1.350   .     S
C786   H884    1.088   .     S
C787   C916    1.350   1_455 S
C787   C928    1.450   1_455 S
C788   C791    1.460   .     S
C788   C984    1.351   .     S
C788   O1028   1.389   .     S
C789   C790    1.427   .     S
C790   O840    1.274   .     A
C790   O834    1.279   .     A
C791   O841    1.276   .     A
C791   O835    1.270   .     A
C792   C797    1.401   .     A
C792   C805    1.447   .     S
C792   C218    1.388   1_556 S
C793   O829    1.273   .     A
C793   O831    1.279   .     A
C793   C796    1.449   .     S
C794   O830    1.283   .     A
C794   O832    1.290   .     A
C795   H816    1.084   .     S
C797   C804    1.451   .     S
C798   N823    1.158   .     T
C798   C852    1.450   .     S
C799   C800    1.520   .     S
C799   O833    1.413   .     S
C799   H820    1.115   .     S
C800   H814    1.111   .     S
C800   H822    1.111   .     S
C800   H813    1.110   .     S
C801   N824    1.158   .     T
C801   C984    1.450   .     S
C802   N825    1.158   .     T
C803   H817    1.079   .     S
C804   N826    1.157   .     T
C805   N242    1.157   1_556 S
C806   C807    1.420   .     A
C806   C218    1.409   1_556 S
C806   C223    1.426   1_556 S
C807   C811    1.412   .     A
C809   C810    1.391   .     A
C809   C223    1.421   1_556 S
C809   C210    1.398   1_556 S
C810   C811    1.384   .     A
C810   H815    1.084   .     S
C811   H818    1.080   .     S
H819   C916    1.088   1_455 S
H821   C994    1.113   .     S
O828   Zn845   1.930   .     S
O828   Zn842   1.971   .     S
O828   Zn844   1.949   .     S
O828   Zn843   1.947   .     S
O829   Zn843   1.939   .     S
O830   Zn845   1.949   .     S
O831   Zn844   1.938   .     S
O832   Zn842   1.929   .     S
O834   Zn842   1.935   .     S
O835   Zn845   1.944   .     S
O836   Zn843   1.932   .     S
O837   Zn844   1.944   .     S
O838   Zn845   1.941   .     S
O839   Zn842   1.933   .     S
O840   Zn843   1.947   .     S
O841   Zn844   1.934   .     S
C846   O903    1.265   .     A
C846   O901    1.268   .     A
C846   C852    1.428   .     S
C847   C867    1.454   .     S
C847   C861    1.405   .     A
C847   C873    1.420   .     A
C848   C861    1.395   .     A
C848   H877    1.083   .     S
C848   C860    1.386   .     A
C849   O902    1.296   .     A
C849   O904    1.277   .     A
C849   C851    1.459   .     S
C850   C859    1.486   .     S
C850   C872    1.423   .     A
C850   C862    1.425   .     A
C851   C917    1.350   .     S
C851   H949    1.088   .     S
C853   C856    1.460   .     S
C853   C1049   1.351   .     S
C853   O1093   1.389   .     S
C854   C855    1.427   .     S
C855   O905    1.274   .     A
C855   O899    1.279   .     A
C856   O906    1.276   .     A
C856   O900    1.270   .     A
C857   C862    1.401   .     A
C857   C870    1.447   .     S
C857   C283    1.388   1_556 S
C858   O894    1.273   .     A
C858   O896    1.279   .     A
C858   C861    1.449   .     S
C859   O895    1.283   .     A
C859   O897    1.290   .     A
C860   H881    1.084   .     S
C862   C869    1.451   .     S
C863   N888    1.158   .     T
C863   C917    1.450   .     S
C864   C865    1.520   .     S
C864   O898    1.413   .     S
C864   H885    1.115   .     S
C865   H879    1.111   .     S
C865   H887    1.111   .     S
C865   H878    1.110   .     S
C866   N889    1.158   .     T
C866   C1049   1.450   .     S
C867   N890    1.158   .     T
C868   H882    1.079   .     S
C869   N891    1.157   .     T
C870   N307    1.157   1_556 S
C871   C872    1.420   .     A
C871   C283    1.409   1_556 S
C871   C288    1.426   1_556 S
C872   C876    1.412   .     A
C874   C875    1.391   .     A
C874   C288    1.421   1_556 S
C874   C275    1.398   1_556 S
C875   C876    1.384   .     A
C875   H880    1.084   .     S
C876   H883    1.080   .     S
H886   C1059   1.113   .     S
O893   Zn910   1.930   .     S
O893   Zn907   1.971   .     S
O893   Zn909   1.949   .     S
O893   Zn908   1.947   .     S
O894   Zn908   1.939   .     S
O895   Zn910   1.949   .     S
O896   Zn909   1.938   .     S
O897   Zn907   1.929   .     S
O899   Zn907   1.935   .     S
O900   Zn910   1.944   .     S
O901   Zn908   1.932   .     S
O902   Zn909   1.944   .     S
O903   Zn910   1.941   .     S
O904   Zn907   1.933   .     S
O905   Zn908   1.947   .     S
O906   Zn909   1.934   .     S
C911   O968    1.265   .     A
C911   O966    1.268   .     A
C911   C917    1.428   .     S
C912   C932    1.454   .     S
C912   C926    1.405   .     A
C912   C938    1.420   .     A
C913   C926    1.395   .     A
C913   H942    1.083   .     S
C913   C925    1.386   .     A
C914   O967    1.296   .     A
C914   O969    1.277   .     A
C914   C916    1.459   .     S
C915   C924    1.486   .     S
C915   C937    1.423   .     A
C915   C927    1.425   .     A
C916   C787    1.350   1_655 S
C916   H819    1.088   1_655 S
C918   C921    1.460   .     S
C918   C1114   1.351   .     S
C918   O1158   1.389   .     S
C919   C920    1.427   .     S
C920   O970    1.274   .     A
C920   O964    1.279   .     A
C921   O971    1.276   .     A
C921   O965    1.270   .     A
C922   C927    1.401   .     A
C922   C935    1.447   .     S
C922   C348    1.388   1_556 S
C923   O959    1.273   .     A
C923   O961    1.279   .     A
C923   C926    1.449   .     S
C924   O960    1.283   .     A
C924   O962    1.290   .     A
C925   H946    1.084   .     S
C927   C934    1.451   .     S
C928   N953    1.158   .     T
C928   C787    1.450   1_655 S
C929   C930    1.520   .     S
C929   O963    1.413   .     S
C929   H950    1.115   .     S
C930   H944    1.111   .     S
C930   H952    1.111   .     S
C930   H943    1.110   .     S
C931   N954    1.158   .     T
C931   C1114   1.450   .     S
C932   N955    1.158   .     T
C933   H947    1.079   .     S
C934   N956    1.157   .     T
C935   N372    1.157   1_556 S
C936   C937    1.420   .     A
C936   C348    1.409   1_556 S
C936   C353    1.426   1_556 S
C937   C941    1.412   .     A
C939   C940    1.391   .     A
C939   C353    1.421   1_556 S
C939   C340    1.398   1_556 S
C940   C941    1.384   .     A
C940   H945    1.084   .     S
C941   H948    1.080   .     S
H951   C1124   1.113   .     S
O958   Zn975   1.930   .     S
O958   Zn972   1.971   .     S
O958   Zn974   1.949   .     S
O958   Zn973   1.947   .     S
O959   Zn973   1.939   .     S
O960   Zn975   1.949   .     S
O961   Zn974   1.938   .     S
O962   Zn972   1.929   .     S
O964   Zn972   1.935   .     S
O965   Zn975   1.944   .     S
O966   Zn973   1.932   .     S
O967   Zn974   1.944   .     S
O968   Zn975   1.941   .     S
O969   Zn972   1.933   .     S
O970   Zn973   1.947   .     S
O971   Zn974   1.934   .     S
C976   O1033   1.265   .     A
C976   O1031   1.268   .     A
C976   C982    1.428   .     S
C977   C997    1.454   .     S
C977   C991    1.405   .     A
C977   C1003   1.420   .     A
C978   C991    1.395   .     A
C978   H1007   1.083   .     S
C978   C990    1.386   .     A
C979   O1032   1.296   .     A
C979   O1034   1.277   .     A
C979   C981    1.459   .     S
C980   C989    1.486   .     S
C980   C1002   1.423   .     A
C980   C992    1.425   .     A
C981   C1047   1.350   .     S
C981   H1079   1.088   .     S
C982   C1111   1.350   1_455 S
C982   C1123   1.450   1_455 S
C983   C986    1.460   .     S
C983   C594    1.351   1_565 S
C983   O638    1.389   1_565 S
C984   C985    1.427   .     S
C985   O1035   1.274   .     A
C985   O1029   1.279   .     A
C986   O1036   1.276   .     A
C986   O1030   1.270   .     A
C987   C992    1.401   .     A
C987   C1000   1.447   .     S
C987   C413    1.388   1_556 S
C988   O1024   1.273   .     A
C988   O1026   1.279   .     A
C988   C991    1.449   .     S
C989   O1025   1.283   .     A
C989   O1027   1.290   .     A
C990   H1011   1.084   .     S
C992   C999    1.451   .     S
C993   N1018   1.158   .     T
C993   C1047   1.450   .     S
C994   C995    1.520   .     S
C994   O1028   1.413   .     S
C994   H1015   1.115   .     S
C995   H1009   1.111   .     S
C995   H1017   1.111   .     S
C995   H1008   1.110   .     S
C996   N1019   1.158   .     T
C996   C594    1.450   1_565 S
C997   N1020   1.158   .     T
C998   H1012   1.079   .     S
C999   N1021   1.157   .     T
C1000  N437    1.157   1_556 S
C1001  C1002   1.420   .     A
C1001  C413    1.409   1_556 S
C1001  C418    1.426   1_556 S
C1002  C1006   1.412   .     A
C1004  C1005   1.391   .     A
C1004  C418    1.421   1_556 S
C1004  C405    1.398   1_556 S
C1005  C1006   1.384   .     A
C1005  H1010   1.084   .     S
C1006  H1013   1.080   .     S
H1014  C1111   1.088   1_455 S
H1016  C604    1.113   1_565 S
O1023  Zn1040  1.930   .     S
O1023  Zn1037  1.971   .     S
O1023  Zn1039  1.949   .     S
O1023  Zn1038  1.947   .     S
O1024  Zn1038  1.939   .     S
O1025  Zn1040  1.949   .     S
O1026  Zn1039  1.938   .     S
O1027  Zn1037  1.929   .     S
O1029  Zn1037  1.935   .     S
O1030  Zn1040  1.944   .     S
O1031  Zn1038  1.932   .     S
O1032  Zn1039  1.944   .     S
O1033  Zn1040  1.941   .     S
O1034  Zn1037  1.933   .     S
O1035  Zn1038  1.947   .     S
O1036  Zn1039  1.934   .     S
C1041  O1098   1.265   .     A
C1041  O1096   1.268   .     A
C1041  C1047   1.428   .     S
C1042  C1062   1.454   .     S
C1042  C1056   1.405   .     A
C1042  C1068   1.420   .     A
C1043  C1056   1.395   .     A
C1043  H1072   1.083   .     S
C1043  C1055   1.386   .     A
C1044  O1097   1.296   .     A
C1044  O1099   1.277   .     A
C1044  C1046   1.459   .     S
C1045  C1054   1.486   .     S
C1045  C1067   1.423   .     A
C1045  C1057   1.425   .     A
C1046  C1112   1.350   .     S
C1046  H1144   1.088   .     S
C1048  C1051   1.460   .     S
C1048  C659    1.351   1_565 S
C1048  O703    1.389   1_565 S
C1049  C1050   1.427   .     S
C1050  O1100   1.274   .     A
C1050  O1094   1.279   .     A
C1051  O1101   1.276   .     A
C1051  O1095   1.270   .     A
C1052  C1057   1.401   .     A
C1052  C1065   1.447   .     S
C1052  C478    1.388   1_556 S
C1053  O1089   1.273   .     A
C1053  O1091   1.279   .     A
C1053  C1056   1.449   .     S
C1054  O1090   1.283   .     A
C1054  O1092   1.290   .     A
C1055  H1076   1.084   .     S
C1057  C1064   1.451   .     S
C1058  N1083   1.158   .     T
C1058  C1112   1.450   .     S
C1059  C1060   1.520   .     S
C1059  O1093   1.413   .     S
C1059  H1080   1.115   .     S
C1060  H1074   1.111   .     S
C1060  H1082   1.111   .     S
C1060  H1073   1.110   .     S
C1061  N1084   1.158   .     T
C1061  C659    1.450   1_565 S
C1062  N1085   1.158   .     T
C1063  H1077   1.079   .     S
C1064  N1086   1.157   .     T
C1065  N502    1.157   1_556 S
C1066  C1067   1.420   .     A
C1066  C478    1.409   1_556 S
C1066  C483    1.426   1_556 S
C1067  C1071   1.412   .     A
C1069  C1070   1.391   .     A
C1069  C483    1.421   1_556 S
C1069  C470    1.398   1_556 S
C1070  C1071   1.384   .     A
C1070  H1075   1.084   .     S
C1071  H1078   1.080   .     S
H1081  C669    1.113   1_565 S
O1088  Zn1105  1.930   .     S
O1088  Zn1102  1.971   .     S
O1088  Zn1104  1.949   .     S
O1088  Zn1103  1.947   .     S
O1089  Zn1103  1.939   .     S
O1090  Zn1105  1.949   .     S
O1091  Zn1104  1.938   .     S
O1092  Zn1102  1.929   .     S
O1094  Zn1102  1.935   .     S
O1095  Zn1105  1.944   .     S
O1096  Zn1103  1.932   .     S
O1097  Zn1104  1.944   .     S
O1098  Zn1105  1.941   .     S
O1099  Zn1102  1.933   .     S
O1100  Zn1103  1.947   .     S
O1101  Zn1104  1.934   .     S
C1106  O1163   1.265   .     A
C1106  O1161   1.268   .     A
C1106  C1112   1.428   .     S
C1107  C1127   1.454   .     S
C1107  C1121   1.405   .     A
C1107  C1133   1.420   .     A
C1108  C1121   1.395   .     A
C1108  H1137   1.083   .     S
C1108  C1120   1.386   .     A
C1109  O1162   1.296   .     A
C1109  O1164   1.277   .     A
C1109  C1111   1.459   .     S
C1110  C1119   1.486   .     S
C1110  C1132   1.423   .     A
C1110  C1122   1.425   .     A
C1111  C982    1.350   1_655 S
C1111  H1014   1.088   1_655 S
C1113  C1116   1.460   .     S
C1113  C724    1.351   1_565 S
C1113  O768    1.389   1_565 S
C1114  C1115   1.427   .     S
C1115  O1165   1.274   .     A
C1115  O1159   1.279   .     A
C1116  O1166   1.276   .     A
C1116  O1160   1.270   .     A
C1117  C1122   1.401   .     A
C1117  C1130   1.447   .     S
C1117  C543    1.388   1_556 S
C1118  O1154   1.273   .     A
C1118  O1156   1.279   .     A
C1118  C1121   1.449   .     S
C1119  O1155   1.283   .     A
C1119  O1157   1.290   .     A
C1120  H1141   1.084   .     S
C1122  C1129   1.451   .     S
C1123  N1148   1.158   .     T
C1123  C982    1.450   1_655 S
C1124  C1125   1.520   .     S
C1124  O1158   1.413   .     S
C1124  H1145   1.115   .     S
C1125  H1139   1.111   .     S
C1125  H1147   1.111   .     S
C1125  H1138   1.110   .     S
C1126  N1149   1.158   .     T
C1126  C724    1.450   1_565 S
C1127  N1150   1.158   .     T
C1128  H1142   1.079   .     S
C1129  N1151   1.157   .     T
C1130  N567    1.157   1_556 S
C1131  C1132   1.420   .     A
C1131  C543    1.409   1_556 S
C1131  C548    1.426   1_556 S
C1132  C1136   1.412   .     A
C1134  C1135   1.391   .     A
C1134  C548    1.421   1_556 S
C1134  C535    1.398   1_556 S
C1135  C1136   1.384   .     A
C1135  H1140   1.084   .     S
C1136  H1143   1.080   .     S
H1146  C734    1.113   1_565 S
O1153  Zn1170  1.930   .     S
O1153  Zn1167  1.971   .     S
O1153  Zn1169  1.949   .     S
O1153  Zn1168  1.947   .     S
O1154  Zn1168  1.939   .     S
O1155  Zn1170  1.949   .     S
O1156  Zn1169  1.938   .     S
O1157  Zn1167  1.929   .     S
O1159  Zn1167  1.935   .     S
O1160  Zn1170  1.944   .     S
O1161  Zn1168  1.932   .     S
O1162  Zn1169  1.944   .     S
O1163  Zn1170  1.941   .     S
O1164  Zn1167  1.933   .     S
O1165  Zn1168  1.947   .     S
O1166  Zn1169  1.934   .     S
