data_str_m1_o10_o18_pcu_sym.117
_audit_creation_date              2020-01-03
_audit_creation_method            'Materials Studio'
_symmetry_space_group_name_H-M    'P1'
_symmetry_Int_Tables_number       1
_symmetry_cell_setting            triclinic
loop_
_symmetry_equiv_pos_as_xyz
  x,y,z
_cell_length_a                    32.5527
_cell_length_b                    32.5204
_cell_length_c                    35.8837
_cell_angle_alpha                 98.6195
_cell_angle_beta                  72.7706
_cell_angle_gamma                 98.6960
loop_
_atom_site_label
_atom_site_type_symbol
_atom_site_fract_x
_atom_site_fract_y
_atom_site_fract_z
_atom_site_U_iso_or_equiv
_atom_site_adp_type
_atom_site_occupancy
C1     C     0.05248   0.16009   0.25861   0.00000  Uiso   1.00
C2     C     0.19607   0.13213   0.46052   0.00000  Uiso   1.00
C3     C     0.21391   0.11008   0.48088   0.00000  Uiso   1.00
C4     C     0.28104   0.17360   0.24115   0.00000  Uiso   1.00
C5     C     0.20631   0.11895   0.02135   0.00000  Uiso   1.00
C6     C     0.18117   0.15161   0.04215   0.00000  Uiso   1.00
C7     C     0.22320   0.09486   0.04124   0.00000  Uiso   1.00
C8     C     0.21578   0.10291   0.08158   0.00000  Uiso   1.00
C9     C     0.18003   0.16393   0.08227   0.00000  Uiso   1.00
C10    C     0.32712   0.17623   0.23744   0.00000  Uiso   1.00
C11    C     0.00707   0.15789   0.26204   0.00000  Uiso   1.00
C12    C     0.09486   0.21391   0.42179   0.00000  Uiso   1.00
C13    C     0.18056   0.32205   0.23796   0.00000  Uiso   1.00
C14    C     0.15115   0.01209   0.26195   0.00000  Uiso   1.00
C15    C     0.15577   0.05615   0.25887   0.00000  Uiso   1.00
C16    C     0.17672   0.27765   0.24131   0.00000  Uiso   1.00
C17    C     0.18837   0.14498   0.14414   0.00000  Uiso   1.00
C18    C     0.14450   0.18730   0.35628   0.00000  Uiso   1.00
C19    C     0.13177   0.19391   0.39969   0.00000  Uiso   1.00
C20    C     0.19512   0.13754   0.10193   0.00000  Uiso   1.00
C21    C     0.08578   0.22148   0.46300   0.00000  Uiso   1.00
C22    C     0.17042   0.20664   0.10194   0.00000  Uiso   1.00
C23    C     0.15692   0.17924   0.41923   0.00000  Uiso   1.00
C24    C     0.19564   0.24209   0.08567   0.00000  Uiso   1.00
C25    C     0.18787   0.28224   0.10438   0.00000  Uiso   1.00
C26    C     0.15493   0.28738   0.13945   0.00000  Uiso   1.00
C27    C     0.12944   0.25238   0.15572   0.00000  Uiso   1.00
C28    C     0.13697   0.21218   0.13707   0.00000  Uiso   1.00
C29    C     0.14536   0.18186   0.46038   0.00000  Uiso   1.00
C30    C     0.11036   0.20464   0.48218   0.00000  Uiso   1.00
C31    C     0.16738   0.16202   0.48043   0.00000  Uiso   1.00
C32    C     0.15770   0.16966   0.02206   0.00000  Uiso   1.00
C33    C     0.12174   0.19116   0.04260   0.00000  Uiso   1.00
C34    C     0.09896   0.20867   0.02316   0.00000  Uiso   1.00
H35    H     0.07142   0.22453   0.04068   0.00000  Uiso   1.00
H36    H     0.10844   0.19221   0.07393   0.00000  Uiso   1.00
H37    H     0.20285   0.12260   0.42943   0.00000  Uiso   1.00
H38    H     0.22153   0.23856   0.05870   0.00000  Uiso   1.00
H39    H     0.20754   0.30940   0.09177   0.00000  Uiso   1.00
H40    H     0.14912   0.31847   0.15398   0.00000  Uiso   1.00
H41    H     0.10383   0.25639   0.18281   0.00000  Uiso   1.00
H42    H     0.11654   0.18543   0.14981   0.00000  Uiso   1.00
H43    H     0.03896   0.25536   0.46834   0.00000  Uiso   1.00
H44    H     0.05957   0.20087   0.38622   0.00000  Uiso   1.00
H45    H     0.24121   0.06903   0.02569   0.00000  Uiso   1.00
H46    H     0.01697   0.19307   0.21463   0.00000  Uiso   1.00
H47    H     0.31786   0.14112   0.28520   0.00000  Uiso   1.00
H48    H     0.20766   0.00253   0.21581   0.00000  Uiso   1.00
H49    H     0.12367   0.33239   0.28417   0.00000  Uiso   1.00
H50    H     0.22756   0.08294   0.09683   0.00000  Uiso   1.00
H51    H     0.23375   0.08571   0.46476   0.00000  Uiso   1.00
H52    H     0.18594   0.16619   0.40155   0.00000  Uiso   1.00
O53    O     0.16667   0.16667   0.25000   0.00000  Uiso   1.00
O54    O     0.15693   0.12393   0.16625   0.00000  Uiso   1.00
O55    O     0.12687   0.20646   0.33749   0.00000  Uiso   1.00
O56    O     0.21088   0.17493   0.15877   0.00000  Uiso   1.00
O57    O     0.17198   0.16135   0.33749   0.00000  Uiso   1.00
O58    O     0.05163   0.24317   0.48549   0.00000  Uiso   1.00
O59    O     0.06663   0.22537   0.40421   0.00000  Uiso   1.00
O60    O     0.17849   0.08101   0.27821   0.00000  Uiso   1.00
O61    O     0.14581   0.26136   0.26767   0.00000  Uiso   1.00
O62    O     0.07452   0.13251   0.23607   0.00000  Uiso   1.00
O63    O     0.26785   0.19179   0.21805   0.00000  Uiso   1.00
O64    O     0.06990   0.18960   0.27820   0.00000  Uiso   1.00
O65    O     0.25440   0.15277   0.26768   0.00000  Uiso   1.00
O66    O     0.13800   0.06903   0.23607   0.00000  Uiso   1.00
O67    O     0.20437   0.25527   0.21806   0.00000  Uiso   1.00
Zn68   Zn    0.19244   0.14090   0.28278   0.00000  Uiso   1.00
Zn69   Zn    0.13459   0.12378   0.22258   0.00000  Uiso   1.00
Zn70   Zn    0.21166   0.19664   0.21188   0.00000  Uiso   1.00
Zn71   Zn    0.12798   0.20535   0.28277   0.00000  Uiso   1.00
C72    C     0.38581   0.16009   0.25861   0.00000  Uiso   1.00
C73    C     0.52941   0.13213   0.46052   0.00000  Uiso   1.00
C74    C     0.54724   0.11008   0.48088   0.00000  Uiso   1.00
C75    C     0.61437   0.17360   0.24115   0.00000  Uiso   1.00
C76    C     0.53964   0.11895   0.02135   0.00000  Uiso   1.00
C77    C     0.51450   0.15161   0.04215   0.00000  Uiso   1.00
C78    C     0.55653   0.09486   0.04124   0.00000  Uiso   1.00
C79    C     0.54912   0.10291   0.08158   0.00000  Uiso   1.00
C80    C     0.51336   0.16393   0.08227   0.00000  Uiso   1.00
C81    C     0.66045   0.17623   0.23744   0.00000  Uiso   1.00
C82    C     0.34040   0.15789   0.26204   0.00000  Uiso   1.00
C83    C     0.42819   0.21391   0.42179   0.00000  Uiso   1.00
C84    C     0.51389   0.32205   0.23796   0.00000  Uiso   1.00
C85    C     0.48449   0.01209   0.26195   0.00000  Uiso   1.00
C86    C     0.48910   0.05615   0.25887   0.00000  Uiso   1.00
C87    C     0.51006   0.27765   0.24131   0.00000  Uiso   1.00
C88    C     0.52170   0.14498   0.14414   0.00000  Uiso   1.00
C89    C     0.47784   0.18730   0.35628   0.00000  Uiso   1.00
C90    C     0.46511   0.19391   0.39969   0.00000  Uiso   1.00
C91    C     0.52845   0.13754   0.10193   0.00000  Uiso   1.00
C92    C     0.41911   0.22148   0.46300   0.00000  Uiso   1.00
C93    C     0.50375   0.20664   0.10194   0.00000  Uiso   1.00
C94    C     0.49025   0.17924   0.41923   0.00000  Uiso   1.00
C95    C     0.52897   0.24209   0.08567   0.00000  Uiso   1.00
C96    C     0.52121   0.28224   0.10438   0.00000  Uiso   1.00
C97    C     0.48827   0.28738   0.13945   0.00000  Uiso   1.00
C98    C     0.46278   0.25238   0.15572   0.00000  Uiso   1.00
C99    C     0.47030   0.21218   0.13707   0.00000  Uiso   1.00
C100   C     0.47869   0.18186   0.46038   0.00000  Uiso   1.00
C101   C     0.44370   0.20464   0.48218   0.00000  Uiso   1.00
C102   C     0.50071   0.16202   0.48043   0.00000  Uiso   1.00
C103   C     0.49103   0.16966   0.02206   0.00000  Uiso   1.00
C104   C     0.45507   0.19116   0.04260   0.00000  Uiso   1.00
C105   C     0.43230   0.20867   0.02316   0.00000  Uiso   1.00
H106   H     0.40476   0.22453   0.04068   0.00000  Uiso   1.00
H107   H     0.44177   0.19221   0.07393   0.00000  Uiso   1.00
H108   H     0.53618   0.12260   0.42943   0.00000  Uiso   1.00
H109   H     0.55486   0.23856   0.05870   0.00000  Uiso   1.00
H110   H     0.54087   0.30940   0.09177   0.00000  Uiso   1.00
H111   H     0.48246   0.31847   0.15398   0.00000  Uiso   1.00
H112   H     0.43716   0.25639   0.18281   0.00000  Uiso   1.00
H113   H     0.44988   0.18543   0.14981   0.00000  Uiso   1.00
H114   H     0.37229   0.25536   0.46834   0.00000  Uiso   1.00
H115   H     0.39290   0.20087   0.38622   0.00000  Uiso   1.00
H116   H     0.57454   0.06903   0.02569   0.00000  Uiso   1.00
H117   H     0.35031   0.19307   0.21463   0.00000  Uiso   1.00
H118   H     0.65119   0.14112   0.28520   0.00000  Uiso   1.00
H119   H     0.54099   0.00253   0.21581   0.00000  Uiso   1.00
H120   H     0.45700   0.33239   0.28417   0.00000  Uiso   1.00
H121   H     0.56090   0.08294   0.09683   0.00000  Uiso   1.00
H122   H     0.56708   0.08571   0.46476   0.00000  Uiso   1.00
H123   H     0.51927   0.16619   0.40155   0.00000  Uiso   1.00
O124   O     0.50000   0.16667   0.25000   0.00000  Uiso   1.00
O125   O     0.49027   0.12393   0.16625   0.00000  Uiso   1.00
O126   O     0.46020   0.20646   0.33749   0.00000  Uiso   1.00
O127   O     0.54421   0.17493   0.15877   0.00000  Uiso   1.00
O128   O     0.50532   0.16135   0.33749   0.00000  Uiso   1.00
O129   O     0.38497   0.24317   0.48549   0.00000  Uiso   1.00
O130   O     0.39996   0.22537   0.40421   0.00000  Uiso   1.00
O131   O     0.51182   0.08101   0.27821   0.00000  Uiso   1.00
O132   O     0.47914   0.26136   0.26767   0.00000  Uiso   1.00
O133   O     0.40785   0.13251   0.23607   0.00000  Uiso   1.00
O134   O     0.60119   0.19179   0.21805   0.00000  Uiso   1.00
O135   O     0.40323   0.18960   0.27820   0.00000  Uiso   1.00
O136   O     0.58773   0.15277   0.26768   0.00000  Uiso   1.00
O137   O     0.47133   0.06903   0.23607   0.00000  Uiso   1.00
O138   O     0.53771   0.25527   0.21806   0.00000  Uiso   1.00
Zn139  Zn    0.52577   0.14090   0.28278   0.00000  Uiso   1.00
Zn140  Zn    0.46792   0.12378   0.22258   0.00000  Uiso   1.00
Zn141  Zn    0.54500   0.19664   0.21188   0.00000  Uiso   1.00
Zn142  Zn    0.46131   0.20535   0.28277   0.00000  Uiso   1.00
C143   C     0.71914   0.16009   0.25861   0.00000  Uiso   1.00
C144   C     0.86274   0.13213   0.46052   0.00000  Uiso   1.00
C145   C     0.88058   0.11008   0.48088   0.00000  Uiso   1.00
C146   C     0.94770   0.17360   0.24115   0.00000  Uiso   1.00
C147   C     0.87297   0.11895   0.02135   0.00000  Uiso   1.00
C148   C     0.84783   0.15161   0.04215   0.00000  Uiso   1.00
C149   C     0.88987   0.09486   0.04124   0.00000  Uiso   1.00
C150   C     0.88245   0.10291   0.08158   0.00000  Uiso   1.00
C151   C     0.84669   0.16393   0.08227   0.00000  Uiso   1.00
C152   C     0.99378   0.17623   0.23744   0.00000  Uiso   1.00
C153   C     0.67373   0.15789   0.26204   0.00000  Uiso   1.00
C154   C     0.76152   0.21391   0.42179   0.00000  Uiso   1.00
C155   C     0.84722   0.32205   0.23796   0.00000  Uiso   1.00
C156   C     0.81782   0.01209   0.26195   0.00000  Uiso   1.00
C157   C     0.82244   0.05615   0.25887   0.00000  Uiso   1.00
C158   C     0.84339   0.27765   0.24131   0.00000  Uiso   1.00
C159   C     0.85503   0.14498   0.14414   0.00000  Uiso   1.00
C160   C     0.81117   0.18730   0.35628   0.00000  Uiso   1.00
C161   C     0.79844   0.19391   0.39969   0.00000  Uiso   1.00
C162   C     0.86178   0.13754   0.10193   0.00000  Uiso   1.00
C163   C     0.75245   0.22148   0.46300   0.00000  Uiso   1.00
C164   C     0.83708   0.20664   0.10194   0.00000  Uiso   1.00
C165   C     0.82358   0.17924   0.41923   0.00000  Uiso   1.00
C166   C     0.86230   0.24209   0.08567   0.00000  Uiso   1.00
C167   C     0.85454   0.28224   0.10438   0.00000  Uiso   1.00
C168   C     0.82160   0.28738   0.13945   0.00000  Uiso   1.00
C169   C     0.79611   0.25238   0.15572   0.00000  Uiso   1.00
C170   C     0.80363   0.21218   0.13707   0.00000  Uiso   1.00
C171   C     0.81202   0.18186   0.46038   0.00000  Uiso   1.00
C172   C     0.77703   0.20464   0.48218   0.00000  Uiso   1.00
C173   C     0.83404   0.16202   0.48043   0.00000  Uiso   1.00
C174   C     0.82436   0.16966   0.02206   0.00000  Uiso   1.00
C175   C     0.78841   0.19116   0.04260   0.00000  Uiso   1.00
C176   C     0.76563   0.20867   0.02316   0.00000  Uiso   1.00
H177   H     0.73809   0.22453   0.04068   0.00000  Uiso   1.00
H178   H     0.77510   0.19221   0.07393   0.00000  Uiso   1.00
H179   H     0.86952   0.12260   0.42943   0.00000  Uiso   1.00
H180   H     0.88820   0.23856   0.05870   0.00000  Uiso   1.00
H181   H     0.87420   0.30940   0.09177   0.00000  Uiso   1.00
H182   H     0.81579   0.31847   0.15398   0.00000  Uiso   1.00
H183   H     0.77049   0.25639   0.18281   0.00000  Uiso   1.00
H184   H     0.78321   0.18543   0.14981   0.00000  Uiso   1.00
H185   H     0.70563   0.25536   0.46834   0.00000  Uiso   1.00
H186   H     0.72623   0.20087   0.38622   0.00000  Uiso   1.00
H187   H     0.90787   0.06903   0.02569   0.00000  Uiso   1.00
H188   H     0.68364   0.19307   0.21463   0.00000  Uiso   1.00
H189   H     0.98453   0.14112   0.28520   0.00000  Uiso   1.00
H190   H     0.87433   0.00253   0.21581   0.00000  Uiso   1.00
H191   H     0.79033   0.33239   0.28417   0.00000  Uiso   1.00
H192   H     0.89423   0.08294   0.09683   0.00000  Uiso   1.00
H193   H     0.90041   0.08571   0.46476   0.00000  Uiso   1.00
H194   H     0.85261   0.16619   0.40155   0.00000  Uiso   1.00
O195   O     0.83333   0.16667   0.25000   0.00000  Uiso   1.00
O196   O     0.82360   0.12393   0.16625   0.00000  Uiso   1.00
O197   O     0.79354   0.20646   0.33749   0.00000  Uiso   1.00
O198   O     0.87755   0.17493   0.15877   0.00000  Uiso   1.00
O199   O     0.83865   0.16135   0.33749   0.00000  Uiso   1.00
O200   O     0.71830   0.24317   0.48549   0.00000  Uiso   1.00
O201   O     0.73330   0.22537   0.40421   0.00000  Uiso   1.00
O202   O     0.84515   0.08101   0.27821   0.00000  Uiso   1.00
O203   O     0.81247   0.26136   0.26767   0.00000  Uiso   1.00
O204   O     0.74119   0.13251   0.23607   0.00000  Uiso   1.00
O205   O     0.93452   0.19179   0.21805   0.00000  Uiso   1.00
O206   O     0.73656   0.18960   0.27820   0.00000  Uiso   1.00
O207   O     0.92106   0.15277   0.26768   0.00000  Uiso   1.00
O208   O     0.80467   0.06903   0.23607   0.00000  Uiso   1.00
O209   O     0.87104   0.25527   0.21806   0.00000  Uiso   1.00
Zn210  Zn    0.85910   0.14090   0.28278   0.00000  Uiso   1.00
Zn211  Zn    0.80125   0.12378   0.22258   0.00000  Uiso   1.00
Zn212  Zn    0.87833   0.19664   0.21188   0.00000  Uiso   1.00
Zn213  Zn    0.79465   0.20535   0.28277   0.00000  Uiso   1.00
C214   C     0.05248   0.49342   0.25861   0.00000  Uiso   1.00
C215   C     0.19607   0.46547   0.46052   0.00000  Uiso   1.00
C216   C     0.21391   0.44341   0.48088   0.00000  Uiso   1.00
C217   C     0.28104   0.50694   0.24115   0.00000  Uiso   1.00
C218   C     0.20631   0.45228   0.02135   0.00000  Uiso   1.00
C219   C     0.18117   0.48494   0.04215   0.00000  Uiso   1.00
C220   C     0.22320   0.42820   0.04124   0.00000  Uiso   1.00
C221   C     0.21578   0.43625   0.08158   0.00000  Uiso   1.00
C222   C     0.18003   0.49726   0.08227   0.00000  Uiso   1.00
C223   C     0.32712   0.50956   0.23744   0.00000  Uiso   1.00
C224   C     0.00707   0.49122   0.26204   0.00000  Uiso   1.00
C225   C     0.09486   0.54724   0.42179   0.00000  Uiso   1.00
C226   C     0.18056   0.65538   0.23796   0.00000  Uiso   1.00
C227   C     0.15115   0.34543   0.26195   0.00000  Uiso   1.00
C228   C     0.15577   0.38948   0.25887   0.00000  Uiso   1.00
C229   C     0.17672   0.61099   0.24131   0.00000  Uiso   1.00
C230   C     0.18837   0.47832   0.14414   0.00000  Uiso   1.00
C231   C     0.14450   0.52064   0.35628   0.00000  Uiso   1.00
C232   C     0.13177   0.52725   0.39969   0.00000  Uiso   1.00
C233   C     0.19512   0.47088   0.10193   0.00000  Uiso   1.00
C234   C     0.08578   0.55482   0.46300   0.00000  Uiso   1.00
C235   C     0.17042   0.53998   0.10194   0.00000  Uiso   1.00
C236   C     0.15692   0.51258   0.41923   0.00000  Uiso   1.00
C237   C     0.19564   0.57542   0.08567   0.00000  Uiso   1.00
C238   C     0.18787   0.61558   0.10438   0.00000  Uiso   1.00
C239   C     0.15493   0.62071   0.13945   0.00000  Uiso   1.00
C240   C     0.12944   0.58571   0.15572   0.00000  Uiso   1.00
C241   C     0.13697   0.54551   0.13707   0.00000  Uiso   1.00
C242   C     0.14536   0.51520   0.46038   0.00000  Uiso   1.00
C243   C     0.11036   0.53797   0.48218   0.00000  Uiso   1.00
C244   C     0.16738   0.49535   0.48043   0.00000  Uiso   1.00
C245   C     0.15770   0.50299   0.02206   0.00000  Uiso   1.00
C246   C     0.12174   0.52449   0.04260   0.00000  Uiso   1.00
C247   C     0.09896   0.54200   0.02316   0.00000  Uiso   1.00
H248   H     0.07142   0.55786   0.04068   0.00000  Uiso   1.00
H249   H     0.10844   0.52555   0.07393   0.00000  Uiso   1.00
H250   H     0.20285   0.45593   0.42943   0.00000  Uiso   1.00
H251   H     0.22153   0.57190   0.05870   0.00000  Uiso   1.00
H252   H     0.20754   0.64273   0.09177   0.00000  Uiso   1.00
H253   H     0.14912   0.65181   0.15398   0.00000  Uiso   1.00
H254   H     0.10383   0.58972   0.18281   0.00000  Uiso   1.00
H255   H     0.11654   0.51876   0.14981   0.00000  Uiso   1.00
H256   H     0.03896   0.58870   0.46834   0.00000  Uiso   1.00
H257   H     0.05957   0.53420   0.38622   0.00000  Uiso   1.00
H258   H     0.24121   0.40237   0.02569   0.00000  Uiso   1.00
H259   H     0.01697   0.52641   0.21463   0.00000  Uiso   1.00
H260   H     0.31786   0.47446   0.28520   0.00000  Uiso   1.00
H261   H     0.20766   0.33586   0.21581   0.00000  Uiso   1.00
H262   H     0.12367   0.66572   0.28417   0.00000  Uiso   1.00
H263   H     0.22756   0.41627   0.09683   0.00000  Uiso   1.00
H264   H     0.23375   0.41904   0.46476   0.00000  Uiso   1.00
H265   H     0.18594   0.49952   0.40155   0.00000  Uiso   1.00
O266   O     0.16667   0.50000   0.25000   0.00000  Uiso   1.00
O267   O     0.15693   0.45726   0.16625   0.00000  Uiso   1.00
O268   O     0.12687   0.53979   0.33749   0.00000  Uiso   1.00
O269   O     0.21088   0.50826   0.15877   0.00000  Uiso   1.00
O270   O     0.17198   0.49468   0.33749   0.00000  Uiso   1.00
O271   O     0.05163   0.57650   0.48549   0.00000  Uiso   1.00
O272   O     0.06663   0.55870   0.40421   0.00000  Uiso   1.00
O273   O     0.17849   0.41434   0.27821   0.00000  Uiso   1.00
O274   O     0.14581   0.59469   0.26767   0.00000  Uiso   1.00
O275   O     0.07452   0.46584   0.23607   0.00000  Uiso   1.00
O276   O     0.26785   0.52512   0.21805   0.00000  Uiso   1.00
O277   O     0.06990   0.52293   0.27820   0.00000  Uiso   1.00
O278   O     0.25440   0.48610   0.26768   0.00000  Uiso   1.00
O279   O     0.13800   0.40236   0.23607   0.00000  Uiso   1.00
O280   O     0.20437   0.58860   0.21806   0.00000  Uiso   1.00
Zn281  Zn    0.19244   0.47423   0.28278   0.00000  Uiso   1.00
Zn282  Zn    0.13459   0.45711   0.22258   0.00000  Uiso   1.00
Zn283  Zn    0.21166   0.52997   0.21188   0.00000  Uiso   1.00
Zn284  Zn    0.12798   0.53868   0.28277   0.00000  Uiso   1.00
C285   C     0.38581   0.49342   0.25861   0.00000  Uiso   1.00
C286   C     0.52941   0.46547   0.46052   0.00000  Uiso   1.00
C287   C     0.54724   0.44341   0.48088   0.00000  Uiso   1.00
C288   C     0.61437   0.50694   0.24115   0.00000  Uiso   1.00
C289   C     0.53964   0.45228   0.02135   0.00000  Uiso   1.00
C290   C     0.51450   0.48494   0.04215   0.00000  Uiso   1.00
C291   C     0.55653   0.42820   0.04124   0.00000  Uiso   1.00
C292   C     0.54912   0.43625   0.08158   0.00000  Uiso   1.00
C293   C     0.51336   0.49726   0.08227   0.00000  Uiso   1.00
C294   C     0.66045   0.50956   0.23744   0.00000  Uiso   1.00
C295   C     0.34040   0.49122   0.26204   0.00000  Uiso   1.00
C296   C     0.42819   0.54724   0.42179   0.00000  Uiso   1.00
C297   C     0.51389   0.65538   0.23796   0.00000  Uiso   1.00
C298   C     0.48449   0.34543   0.26195   0.00000  Uiso   1.00
C299   C     0.48910   0.38948   0.25887   0.00000  Uiso   1.00
C300   C     0.51006   0.61099   0.24131   0.00000  Uiso   1.00
C301   C     0.52170   0.47832   0.14414   0.00000  Uiso   1.00
C302   C     0.47784   0.52064   0.35628   0.00000  Uiso   1.00
C303   C     0.46511   0.52725   0.39969   0.00000  Uiso   1.00
C304   C     0.52845   0.47088   0.10193   0.00000  Uiso   1.00
C305   C     0.41911   0.55482   0.46300   0.00000  Uiso   1.00
C306   C     0.50375   0.53998   0.10194   0.00000  Uiso   1.00
C307   C     0.49025   0.51258   0.41923   0.00000  Uiso   1.00
C308   C     0.52897   0.57542   0.08567   0.00000  Uiso   1.00
C309   C     0.52121   0.61558   0.10438   0.00000  Uiso   1.00
C310   C     0.48827   0.62071   0.13945   0.00000  Uiso   1.00
C311   C     0.46278   0.58571   0.15572   0.00000  Uiso   1.00
C312   C     0.47030   0.54551   0.13707   0.00000  Uiso   1.00
C313   C     0.47869   0.51520   0.46038   0.00000  Uiso   1.00
C314   C     0.44370   0.53797   0.48218   0.00000  Uiso   1.00
C315   C     0.50071   0.49535   0.48043   0.00000  Uiso   1.00
C316   C     0.49103   0.50299   0.02206   0.00000  Uiso   1.00
C317   C     0.45507   0.52449   0.04260   0.00000  Uiso   1.00
C318   C     0.43230   0.54200   0.02316   0.00000  Uiso   1.00
H319   H     0.40476   0.55786   0.04068   0.00000  Uiso   1.00
H320   H     0.44177   0.52555   0.07393   0.00000  Uiso   1.00
H321   H     0.53618   0.45593   0.42943   0.00000  Uiso   1.00
H322   H     0.55486   0.57190   0.05870   0.00000  Uiso   1.00
H323   H     0.54087   0.64273   0.09177   0.00000  Uiso   1.00
H324   H     0.48246   0.65181   0.15398   0.00000  Uiso   1.00
H325   H     0.43716   0.58972   0.18281   0.00000  Uiso   1.00
H326   H     0.44988   0.51876   0.14981   0.00000  Uiso   1.00
H327   H     0.37229   0.58870   0.46834   0.00000  Uiso   1.00
H328   H     0.39290   0.53420   0.38622   0.00000  Uiso   1.00
H329   H     0.57454   0.40237   0.02569   0.00000  Uiso   1.00
H330   H     0.35031   0.52641   0.21463   0.00000  Uiso   1.00
H331   H     0.65119   0.47446   0.28520   0.00000  Uiso   1.00
H332   H     0.54099   0.33586   0.21581   0.00000  Uiso   1.00
H333   H     0.45700   0.66572   0.28417   0.00000  Uiso   1.00
H334   H     0.56090   0.41627   0.09683   0.00000  Uiso   1.00
H335   H     0.56708   0.41904   0.46476   0.00000  Uiso   1.00
H336   H     0.51927   0.49952   0.40155   0.00000  Uiso   1.00
O337   O     0.50000   0.50000   0.25000   0.00000  Uiso   1.00
O338   O     0.49027   0.45726   0.16625   0.00000  Uiso   1.00
O339   O     0.46020   0.53979   0.33749   0.00000  Uiso   1.00
O340   O     0.54421   0.50826   0.15877   0.00000  Uiso   1.00
O341   O     0.50532   0.49468   0.33749   0.00000  Uiso   1.00
O342   O     0.38497   0.57650   0.48549   0.00000  Uiso   1.00
O343   O     0.39996   0.55870   0.40421   0.00000  Uiso   1.00
O344   O     0.51182   0.41434   0.27821   0.00000  Uiso   1.00
O345   O     0.47914   0.59469   0.26767   0.00000  Uiso   1.00
O346   O     0.40785   0.46584   0.23607   0.00000  Uiso   1.00
O347   O     0.60119   0.52512   0.21805   0.00000  Uiso   1.00
O348   O     0.40323   0.52293   0.27820   0.00000  Uiso   1.00
O349   O     0.58773   0.48610   0.26768   0.00000  Uiso   1.00
O350   O     0.47133   0.40236   0.23607   0.00000  Uiso   1.00
O351   O     0.53771   0.58860   0.21806   0.00000  Uiso   1.00
Zn352  Zn    0.52577   0.47423   0.28278   0.00000  Uiso   1.00
Zn353  Zn    0.46792   0.45711   0.22258   0.00000  Uiso   1.00
Zn354  Zn    0.54500   0.52997   0.21188   0.00000  Uiso   1.00
Zn355  Zn    0.46131   0.53868   0.28277   0.00000  Uiso   1.00
C356   C     0.71914   0.49342   0.25861   0.00000  Uiso   1.00
C357   C     0.86274   0.46547   0.46052   0.00000  Uiso   1.00
C358   C     0.88058   0.44341   0.48088   0.00000  Uiso   1.00
C359   C     0.94770   0.50694   0.24115   0.00000  Uiso   1.00
C360   C     0.87297   0.45228   0.02135   0.00000  Uiso   1.00
C361   C     0.84783   0.48494   0.04215   0.00000  Uiso   1.00
C362   C     0.88987   0.42820   0.04124   0.00000  Uiso   1.00
C363   C     0.88245   0.43625   0.08158   0.00000  Uiso   1.00
C364   C     0.84669   0.49726   0.08227   0.00000  Uiso   1.00
C365   C     0.99378   0.50956   0.23744   0.00000  Uiso   1.00
C366   C     0.67373   0.49122   0.26204   0.00000  Uiso   1.00
C367   C     0.76152   0.54724   0.42179   0.00000  Uiso   1.00
C368   C     0.84722   0.65538   0.23796   0.00000  Uiso   1.00
C369   C     0.81782   0.34543   0.26195   0.00000  Uiso   1.00
C370   C     0.82244   0.38948   0.25887   0.00000  Uiso   1.00
C371   C     0.84339   0.61099   0.24131   0.00000  Uiso   1.00
C372   C     0.85503   0.47832   0.14414   0.00000  Uiso   1.00
C373   C     0.81117   0.52064   0.35628   0.00000  Uiso   1.00
C374   C     0.79844   0.52725   0.39969   0.00000  Uiso   1.00
C375   C     0.86178   0.47088   0.10193   0.00000  Uiso   1.00
C376   C     0.75245   0.55482   0.46300   0.00000  Uiso   1.00
C377   C     0.83708   0.53998   0.10194   0.00000  Uiso   1.00
C378   C     0.82358   0.51258   0.41923   0.00000  Uiso   1.00
C379   C     0.86230   0.57542   0.08567   0.00000  Uiso   1.00
C380   C     0.85454   0.61558   0.10438   0.00000  Uiso   1.00
C381   C     0.82160   0.62071   0.13945   0.00000  Uiso   1.00
C382   C     0.79611   0.58571   0.15572   0.00000  Uiso   1.00
C383   C     0.80363   0.54551   0.13707   0.00000  Uiso   1.00
C384   C     0.81202   0.51520   0.46038   0.00000  Uiso   1.00
C385   C     0.77703   0.53797   0.48218   0.00000  Uiso   1.00
C386   C     0.83404   0.49535   0.48043   0.00000  Uiso   1.00
C387   C     0.82436   0.50299   0.02206   0.00000  Uiso   1.00
C388   C     0.78841   0.52449   0.04260   0.00000  Uiso   1.00
C389   C     0.76563   0.54200   0.02316   0.00000  Uiso   1.00
H390   H     0.73809   0.55786   0.04068   0.00000  Uiso   1.00
H391   H     0.77510   0.52555   0.07393   0.00000  Uiso   1.00
H392   H     0.86952   0.45593   0.42943   0.00000  Uiso   1.00
H393   H     0.88820   0.57190   0.05870   0.00000  Uiso   1.00
H394   H     0.87420   0.64273   0.09177   0.00000  Uiso   1.00
H395   H     0.81579   0.65181   0.15398   0.00000  Uiso   1.00
H396   H     0.77049   0.58972   0.18281   0.00000  Uiso   1.00
H397   H     0.78321   0.51876   0.14981   0.00000  Uiso   1.00
H398   H     0.70563   0.58870   0.46834   0.00000  Uiso   1.00
H399   H     0.72623   0.53420   0.38622   0.00000  Uiso   1.00
H400   H     0.90787   0.40237   0.02569   0.00000  Uiso   1.00
H401   H     0.68364   0.52641   0.21463   0.00000  Uiso   1.00
H402   H     0.98453   0.47446   0.28520   0.00000  Uiso   1.00
H403   H     0.87433   0.33586   0.21581   0.00000  Uiso   1.00
H404   H     0.79033   0.66572   0.28417   0.00000  Uiso   1.00
H405   H     0.89423   0.41627   0.09683   0.00000  Uiso   1.00
H406   H     0.90041   0.41904   0.46476   0.00000  Uiso   1.00
H407   H     0.85261   0.49952   0.40155   0.00000  Uiso   1.00
O408   O     0.83333   0.50000   0.25000   0.00000  Uiso   1.00
O409   O     0.82360   0.45726   0.16625   0.00000  Uiso   1.00
O410   O     0.79354   0.53979   0.33749   0.00000  Uiso   1.00
O411   O     0.87755   0.50826   0.15877   0.00000  Uiso   1.00
O412   O     0.83865   0.49468   0.33749   0.00000  Uiso   1.00
O413   O     0.71830   0.57650   0.48549   0.00000  Uiso   1.00
O414   O     0.73330   0.55870   0.40421   0.00000  Uiso   1.00
O415   O     0.84515   0.41434   0.27821   0.00000  Uiso   1.00
O416   O     0.81247   0.59469   0.26767   0.00000  Uiso   1.00
O417   O     0.74119   0.46584   0.23607   0.00000  Uiso   1.00
O418   O     0.93452   0.52512   0.21805   0.00000  Uiso   1.00
O419   O     0.73656   0.52293   0.27820   0.00000  Uiso   1.00
O420   O     0.92106   0.48610   0.26768   0.00000  Uiso   1.00
O421   O     0.80467   0.40236   0.23607   0.00000  Uiso   1.00
O422   O     0.87104   0.58860   0.21806   0.00000  Uiso   1.00
Zn423  Zn    0.85910   0.47423   0.28278   0.00000  Uiso   1.00
Zn424  Zn    0.80125   0.45711   0.22258   0.00000  Uiso   1.00
Zn425  Zn    0.87833   0.52997   0.21188   0.00000  Uiso   1.00
Zn426  Zn    0.79465   0.53868   0.28277   0.00000  Uiso   1.00
C427   C     0.05248   0.82676   0.25861   0.00000  Uiso   1.00
C428   C     0.19607   0.79880   0.46052   0.00000  Uiso   1.00
C429   C     0.21391   0.77675   0.48088   0.00000  Uiso   1.00
C430   C     0.28104   0.84027   0.24115   0.00000  Uiso   1.00
C431   C     0.20631   0.78561   0.02135   0.00000  Uiso   1.00
C432   C     0.18117   0.81827   0.04215   0.00000  Uiso   1.00
C433   C     0.22320   0.76153   0.04124   0.00000  Uiso   1.00
C434   C     0.21578   0.76958   0.08158   0.00000  Uiso   1.00
C435   C     0.18003   0.83060   0.08227   0.00000  Uiso   1.00
C436   C     0.32712   0.84290   0.23744   0.00000  Uiso   1.00
C437   C     0.00707   0.82455   0.26204   0.00000  Uiso   1.00
C438   C     0.09486   0.88058   0.42179   0.00000  Uiso   1.00
C439   C     0.18056   0.98872   0.23796   0.00000  Uiso   1.00
C440   C     0.15115   0.67876   0.26195   0.00000  Uiso   1.00
C441   C     0.15577   0.72282   0.25887   0.00000  Uiso   1.00
C442   C     0.17672   0.94432   0.24131   0.00000  Uiso   1.00
C443   C     0.18837   0.81165   0.14414   0.00000  Uiso   1.00
C444   C     0.14450   0.85397   0.35628   0.00000  Uiso   1.00
C445   C     0.13177   0.86058   0.39969   0.00000  Uiso   1.00
C446   C     0.19512   0.80421   0.10193   0.00000  Uiso   1.00
C447   C     0.08578   0.88815   0.46300   0.00000  Uiso   1.00
C448   C     0.17042   0.87331   0.10194   0.00000  Uiso   1.00
C449   C     0.15692   0.84591   0.41923   0.00000  Uiso   1.00
C450   C     0.19564   0.90875   0.08567   0.00000  Uiso   1.00
C451   C     0.18787   0.94891   0.10438   0.00000  Uiso   1.00
C452   C     0.15493   0.95404   0.13945   0.00000  Uiso   1.00
C453   C     0.12944   0.91904   0.15572   0.00000  Uiso   1.00
C454   C     0.13697   0.87885   0.13707   0.00000  Uiso   1.00
C455   C     0.14536   0.84853   0.46038   0.00000  Uiso   1.00
C456   C     0.11036   0.87130   0.48218   0.00000  Uiso   1.00
C457   C     0.16738   0.82868   0.48043   0.00000  Uiso   1.00
C458   C     0.15770   0.83632   0.02206   0.00000  Uiso   1.00
C459   C     0.12174   0.85782   0.04260   0.00000  Uiso   1.00
C460   C     0.09896   0.87534   0.02316   0.00000  Uiso   1.00
H461   H     0.07142   0.89119   0.04068   0.00000  Uiso   1.00
H462   H     0.10844   0.85888   0.07393   0.00000  Uiso   1.00
H463   H     0.20285   0.78927   0.42943   0.00000  Uiso   1.00
H464   H     0.22153   0.90523   0.05870   0.00000  Uiso   1.00
H465   H     0.20754   0.97607   0.09177   0.00000  Uiso   1.00
H466   H     0.14912   0.98514   0.15398   0.00000  Uiso   1.00
H467   H     0.10383   0.92305   0.18281   0.00000  Uiso   1.00
H468   H     0.11654   0.85210   0.14981   0.00000  Uiso   1.00
H469   H     0.03896   0.92203   0.46834   0.00000  Uiso   1.00
H470   H     0.05957   0.86754   0.38622   0.00000  Uiso   1.00
H471   H     0.24121   0.73570   0.02569   0.00000  Uiso   1.00
H472   H     0.01697   0.85974   0.21463   0.00000  Uiso   1.00
H473   H     0.31786   0.80779   0.28520   0.00000  Uiso   1.00
H474   H     0.20766   0.66919   0.21581   0.00000  Uiso   1.00
H475   H     0.12367   0.99905   0.28417   0.00000  Uiso   1.00
H476   H     0.22756   0.74961   0.09683   0.00000  Uiso   1.00
H477   H     0.23375   0.75237   0.46476   0.00000  Uiso   1.00
H478   H     0.18594   0.83285   0.40155   0.00000  Uiso   1.00
O479   O     0.16667   0.83333   0.25000   0.00000  Uiso   1.00
O480   O     0.15693   0.79060   0.16625   0.00000  Uiso   1.00
O481   O     0.12687   0.87313   0.33749   0.00000  Uiso   1.00
O482   O     0.21088   0.84159   0.15877   0.00000  Uiso   1.00
O483   O     0.17198   0.82802   0.33749   0.00000  Uiso   1.00
O484   O     0.05163   0.90984   0.48549   0.00000  Uiso   1.00
O485   O     0.06663   0.89203   0.40421   0.00000  Uiso   1.00
O486   O     0.17849   0.74768   0.27821   0.00000  Uiso   1.00
O487   O     0.14581   0.92803   0.26767   0.00000  Uiso   1.00
O488   O     0.07452   0.79917   0.23607   0.00000  Uiso   1.00
O489   O     0.26785   0.85845   0.21805   0.00000  Uiso   1.00
O490   O     0.06990   0.85627   0.27820   0.00000  Uiso   1.00
O491   O     0.25440   0.81944   0.26768   0.00000  Uiso   1.00
O492   O     0.13800   0.73570   0.23607   0.00000  Uiso   1.00
O493   O     0.20437   0.92193   0.21806   0.00000  Uiso   1.00
Zn494  Zn    0.19244   0.80756   0.28278   0.00000  Uiso   1.00
Zn495  Zn    0.13459   0.79044   0.22258   0.00000  Uiso   1.00
Zn496  Zn    0.21166   0.86331   0.21188   0.00000  Uiso   1.00
Zn497  Zn    0.12798   0.87202   0.28277   0.00000  Uiso   1.00
C498   C     0.38581   0.82676   0.25861   0.00000  Uiso   1.00
C499   C     0.52941   0.79880   0.46052   0.00000  Uiso   1.00
C500   C     0.54724   0.77675   0.48088   0.00000  Uiso   1.00
C501   C     0.61437   0.84027   0.24115   0.00000  Uiso   1.00
C502   C     0.53964   0.78561   0.02135   0.00000  Uiso   1.00
C503   C     0.51450   0.81827   0.04215   0.00000  Uiso   1.00
C504   C     0.55653   0.76153   0.04124   0.00000  Uiso   1.00
C505   C     0.54912   0.76958   0.08158   0.00000  Uiso   1.00
C506   C     0.51336   0.83060   0.08227   0.00000  Uiso   1.00
C507   C     0.66045   0.84290   0.23744   0.00000  Uiso   1.00
C508   C     0.34040   0.82455   0.26204   0.00000  Uiso   1.00
C509   C     0.42819   0.88058   0.42179   0.00000  Uiso   1.00
C510   C     0.51389   0.98872   0.23796   0.00000  Uiso   1.00
C511   C     0.48449   0.67876   0.26195   0.00000  Uiso   1.00
C512   C     0.48910   0.72282   0.25887   0.00000  Uiso   1.00
C513   C     0.51006   0.94432   0.24131   0.00000  Uiso   1.00
C514   C     0.52170   0.81165   0.14414   0.00000  Uiso   1.00
C515   C     0.47784   0.85397   0.35628   0.00000  Uiso   1.00
C516   C     0.46511   0.86058   0.39969   0.00000  Uiso   1.00
C517   C     0.52845   0.80421   0.10193   0.00000  Uiso   1.00
C518   C     0.41911   0.88815   0.46300   0.00000  Uiso   1.00
C519   C     0.50375   0.87331   0.10194   0.00000  Uiso   1.00
C520   C     0.49025   0.84591   0.41923   0.00000  Uiso   1.00
C521   C     0.52897   0.90875   0.08567   0.00000  Uiso   1.00
C522   C     0.52121   0.94891   0.10438   0.00000  Uiso   1.00
C523   C     0.48827   0.95404   0.13945   0.00000  Uiso   1.00
C524   C     0.46278   0.91904   0.15572   0.00000  Uiso   1.00
C525   C     0.47030   0.87885   0.13707   0.00000  Uiso   1.00
C526   C     0.47869   0.84853   0.46038   0.00000  Uiso   1.00
C527   C     0.44370   0.87130   0.48218   0.00000  Uiso   1.00
C528   C     0.50071   0.82868   0.48043   0.00000  Uiso   1.00
C529   C     0.49103   0.83632   0.02206   0.00000  Uiso   1.00
C530   C     0.45507   0.85782   0.04260   0.00000  Uiso   1.00
C531   C     0.43230   0.87534   0.02316   0.00000  Uiso   1.00
H532   H     0.40476   0.89119   0.04068   0.00000  Uiso   1.00
H533   H     0.44177   0.85888   0.07393   0.00000  Uiso   1.00
H534   H     0.53618   0.78927   0.42943   0.00000  Uiso   1.00
H535   H     0.55486   0.90523   0.05870   0.00000  Uiso   1.00
H536   H     0.54087   0.97607   0.09177   0.00000  Uiso   1.00
H537   H     0.48246   0.98514   0.15398   0.00000  Uiso   1.00
H538   H     0.43716   0.92305   0.18281   0.00000  Uiso   1.00
H539   H     0.44988   0.85210   0.14981   0.00000  Uiso   1.00
H540   H     0.37229   0.92203   0.46834   0.00000  Uiso   1.00
H541   H     0.39290   0.86754   0.38622   0.00000  Uiso   1.00
H542   H     0.57454   0.73570   0.02569   0.00000  Uiso   1.00
H543   H     0.35031   0.85974   0.21463   0.00000  Uiso   1.00
H544   H     0.65119   0.80779   0.28520   0.00000  Uiso   1.00
H545   H     0.54099   0.66919   0.21581   0.00000  Uiso   1.00
H546   H     0.45700   0.99905   0.28417   0.00000  Uiso   1.00
H547   H     0.56090   0.74961   0.09683   0.00000  Uiso   1.00
H548   H     0.56708   0.75237   0.46476   0.00000  Uiso   1.00
H549   H     0.51927   0.83285   0.40155   0.00000  Uiso   1.00
O550   O     0.50000   0.83333   0.25000   0.00000  Uiso   1.00
O551   O     0.49027   0.79060   0.16625   0.00000  Uiso   1.00
O552   O     0.46020   0.87313   0.33749   0.00000  Uiso   1.00
O553   O     0.54421   0.84159   0.15877   0.00000  Uiso   1.00
O554   O     0.50532   0.82802   0.33749   0.00000  Uiso   1.00
O555   O     0.38497   0.90984   0.48549   0.00000  Uiso   1.00
O556   O     0.39996   0.89203   0.40421   0.00000  Uiso   1.00
O557   O     0.51182   0.74768   0.27821   0.00000  Uiso   1.00
O558   O     0.47914   0.92803   0.26767   0.00000  Uiso   1.00
O559   O     0.40785   0.79917   0.23607   0.00000  Uiso   1.00
O560   O     0.60119   0.85845   0.21805   0.00000  Uiso   1.00
O561   O     0.40323   0.85627   0.27820   0.00000  Uiso   1.00
O562   O     0.58773   0.81944   0.26768   0.00000  Uiso   1.00
O563   O     0.47133   0.73570   0.23607   0.00000  Uiso   1.00
O564   O     0.53771   0.92193   0.21806   0.00000  Uiso   1.00
Zn565  Zn    0.52577   0.80756   0.28278   0.00000  Uiso   1.00
Zn566  Zn    0.46792   0.79044   0.22258   0.00000  Uiso   1.00
Zn567  Zn    0.54500   0.86331   0.21188   0.00000  Uiso   1.00
Zn568  Zn    0.46131   0.87202   0.28277   0.00000  Uiso   1.00
C569   C     0.71914   0.82676   0.25861   0.00000  Uiso   1.00
C570   C     0.86274   0.79880   0.46052   0.00000  Uiso   1.00
C571   C     0.88058   0.77675   0.48088   0.00000  Uiso   1.00
C572   C     0.94770   0.84027   0.24115   0.00000  Uiso   1.00
C573   C     0.87297   0.78561   0.02135   0.00000  Uiso   1.00
C574   C     0.84783   0.81827   0.04215   0.00000  Uiso   1.00
C575   C     0.88987   0.76153   0.04124   0.00000  Uiso   1.00
C576   C     0.88245   0.76958   0.08158   0.00000  Uiso   1.00
C577   C     0.84669   0.83060   0.08227   0.00000  Uiso   1.00
C578   C     0.99378   0.84290   0.23744   0.00000  Uiso   1.00
C579   C     0.67373   0.82455   0.26204   0.00000  Uiso   1.00
C580   C     0.76152   0.88058   0.42179   0.00000  Uiso   1.00
C581   C     0.84722   0.98872   0.23796   0.00000  Uiso   1.00
C582   C     0.81782   0.67876   0.26195   0.00000  Uiso   1.00
C583   C     0.82244   0.72282   0.25887   0.00000  Uiso   1.00
C584   C     0.84339   0.94432   0.24131   0.00000  Uiso   1.00
C585   C     0.85503   0.81165   0.14414   0.00000  Uiso   1.00
C586   C     0.81117   0.85397   0.35628   0.00000  Uiso   1.00
C587   C     0.79844   0.86058   0.39969   0.00000  Uiso   1.00
C588   C     0.86178   0.80421   0.10193   0.00000  Uiso   1.00
C589   C     0.75245   0.88815   0.46300   0.00000  Uiso   1.00
C590   C     0.83708   0.87331   0.10194   0.00000  Uiso   1.00
C591   C     0.82358   0.84591   0.41923   0.00000  Uiso   1.00
C592   C     0.86230   0.90875   0.08567   0.00000  Uiso   1.00
C593   C     0.85454   0.94891   0.10438   0.00000  Uiso   1.00
C594   C     0.82160   0.95404   0.13945   0.00000  Uiso   1.00
C595   C     0.79611   0.91904   0.15572   0.00000  Uiso   1.00
C596   C     0.80363   0.87885   0.13707   0.00000  Uiso   1.00
C597   C     0.81202   0.84853   0.46038   0.00000  Uiso   1.00
C598   C     0.77703   0.87130   0.48218   0.00000  Uiso   1.00
C599   C     0.83404   0.82868   0.48043   0.00000  Uiso   1.00
C600   C     0.82436   0.83632   0.02206   0.00000  Uiso   1.00
C601   C     0.78841   0.85782   0.04260   0.00000  Uiso   1.00
C602   C     0.76563   0.87534   0.02316   0.00000  Uiso   1.00
H603   H     0.73809   0.89119   0.04068   0.00000  Uiso   1.00
H604   H     0.77510   0.85888   0.07393   0.00000  Uiso   1.00
H605   H     0.86952   0.78927   0.42943   0.00000  Uiso   1.00
H606   H     0.88820   0.90523   0.05870   0.00000  Uiso   1.00
H607   H     0.87420   0.97607   0.09177   0.00000  Uiso   1.00
H608   H     0.81579   0.98514   0.15398   0.00000  Uiso   1.00
H609   H     0.77049   0.92305   0.18281   0.00000  Uiso   1.00
H610   H     0.78321   0.85210   0.14981   0.00000  Uiso   1.00
H611   H     0.70563   0.92203   0.46834   0.00000  Uiso   1.00
H612   H     0.72623   0.86754   0.38622   0.00000  Uiso   1.00
H613   H     0.90787   0.73570   0.02569   0.00000  Uiso   1.00
H614   H     0.68364   0.85974   0.21463   0.00000  Uiso   1.00
H615   H     0.98453   0.80779   0.28520   0.00000  Uiso   1.00
H616   H     0.87433   0.66919   0.21581   0.00000  Uiso   1.00
H617   H     0.79033   0.99905   0.28417   0.00000  Uiso   1.00
H618   H     0.89423   0.74961   0.09683   0.00000  Uiso   1.00
H619   H     0.90041   0.75237   0.46476   0.00000  Uiso   1.00
H620   H     0.85261   0.83285   0.40155   0.00000  Uiso   1.00
O621   O     0.83333   0.83333   0.25000   0.00000  Uiso   1.00
O622   O     0.82360   0.79060   0.16625   0.00000  Uiso   1.00
O623   O     0.79354   0.87313   0.33749   0.00000  Uiso   1.00
O624   O     0.87755   0.84159   0.15877   0.00000  Uiso   1.00
O625   O     0.83865   0.82802   0.33749   0.00000  Uiso   1.00
O626   O     0.71830   0.90984   0.48549   0.00000  Uiso   1.00
O627   O     0.73330   0.89203   0.40421   0.00000  Uiso   1.00
O628   O     0.84515   0.74768   0.27821   0.00000  Uiso   1.00
O629   O     0.81247   0.92803   0.26767   0.00000  Uiso   1.00
O630   O     0.74119   0.79917   0.23607   0.00000  Uiso   1.00
O631   O     0.93452   0.85845   0.21805   0.00000  Uiso   1.00
O632   O     0.73656   0.85627   0.27820   0.00000  Uiso   1.00
O633   O     0.92106   0.81944   0.26768   0.00000  Uiso   1.00
O634   O     0.80467   0.73570   0.23607   0.00000  Uiso   1.00
O635   O     0.87104   0.92193   0.21806   0.00000  Uiso   1.00
Zn636  Zn    0.85910   0.80756   0.28278   0.00000  Uiso   1.00
Zn637  Zn    0.80125   0.79044   0.22258   0.00000  Uiso   1.00
Zn638  Zn    0.87833   0.86331   0.21188   0.00000  Uiso   1.00
Zn639  Zn    0.79465   0.87202   0.28277   0.00000  Uiso   1.00
C640   C     0.05248   0.16009   0.75861   0.00000  Uiso   1.00
C641   C     0.19607   0.13213   0.96052   0.00000  Uiso   1.00
C642   C     0.21391   0.11008   0.98088   0.00000  Uiso   1.00
C643   C     0.28104   0.17360   0.74115   0.00000  Uiso   1.00
C644   C     0.20631   0.11895   0.52135   0.00000  Uiso   1.00
C645   C     0.18117   0.15161   0.54215   0.00000  Uiso   1.00
C646   C     0.22320   0.09486   0.54124   0.00000  Uiso   1.00
C647   C     0.21578   0.10291   0.58158   0.00000  Uiso   1.00
C648   C     0.18003   0.16393   0.58227   0.00000  Uiso   1.00
C649   C     0.32712   0.17623   0.73744   0.00000  Uiso   1.00
C650   C     0.00707   0.15789   0.76204   0.00000  Uiso   1.00
C651   C     0.09486   0.21391   0.92179   0.00000  Uiso   1.00
C652   C     0.18056   0.32205   0.73796   0.00000  Uiso   1.00
C653   C     0.15115   0.01209   0.76195   0.00000  Uiso   1.00
C654   C     0.15577   0.05615   0.75887   0.00000  Uiso   1.00
C655   C     0.17672   0.27765   0.74131   0.00000  Uiso   1.00
C656   C     0.18837   0.14498   0.64414   0.00000  Uiso   1.00
C657   C     0.14450   0.18730   0.85628   0.00000  Uiso   1.00
C658   C     0.13177   0.19391   0.89969   0.00000  Uiso   1.00
C659   C     0.19512   0.13754   0.60193   0.00000  Uiso   1.00
C660   C     0.08578   0.22148   0.96300   0.00000  Uiso   1.00
C661   C     0.17042   0.20664   0.60194   0.00000  Uiso   1.00
C662   C     0.15692   0.17924   0.91923   0.00000  Uiso   1.00
C663   C     0.19564   0.24209   0.58567   0.00000  Uiso   1.00
C664   C     0.18787   0.28224   0.60438   0.00000  Uiso   1.00
C665   C     0.15493   0.28738   0.63945   0.00000  Uiso   1.00
C666   C     0.12944   0.25238   0.65572   0.00000  Uiso   1.00
C667   C     0.13697   0.21218   0.63707   0.00000  Uiso   1.00
C668   C     0.14536   0.18186   0.96038   0.00000  Uiso   1.00
C669   C     0.11036   0.20464   0.98218   0.00000  Uiso   1.00
C670   C     0.16738   0.16202   0.98043   0.00000  Uiso   1.00
C671   C     0.15770   0.16966   0.52206   0.00000  Uiso   1.00
C672   C     0.12174   0.19116   0.54260   0.00000  Uiso   1.00
C673   C     0.09896   0.20867   0.52316   0.00000  Uiso   1.00
H674   H     0.07142   0.22453   0.54068   0.00000  Uiso   1.00
H675   H     0.10844   0.19221   0.57393   0.00000  Uiso   1.00
H676   H     0.20285   0.12260   0.92943   0.00000  Uiso   1.00
H677   H     0.22153   0.23856   0.55870   0.00000  Uiso   1.00
H678   H     0.20754   0.30940   0.59177   0.00000  Uiso   1.00
H679   H     0.14912   0.31847   0.65398   0.00000  Uiso   1.00
H680   H     0.10383   0.25639   0.68281   0.00000  Uiso   1.00
H681   H     0.11654   0.18543   0.64981   0.00000  Uiso   1.00
H682   H     0.03896   0.25536   0.96834   0.00000  Uiso   1.00
H683   H     0.05957   0.20087   0.88622   0.00000  Uiso   1.00
H684   H     0.24121   0.06903   0.52569   0.00000  Uiso   1.00
H685   H     0.01697   0.19307   0.71463   0.00000  Uiso   1.00
H686   H     0.31786   0.14112   0.78520   0.00000  Uiso   1.00
H687   H     0.20766   0.00253   0.71581   0.00000  Uiso   1.00
H688   H     0.12367   0.33239   0.78417   0.00000  Uiso   1.00
H689   H     0.22756   0.08294   0.59683   0.00000  Uiso   1.00
H690   H     0.23375   0.08571   0.96476   0.00000  Uiso   1.00
H691   H     0.18594   0.16619   0.90155   0.00000  Uiso   1.00
O692   O     0.16667   0.16667   0.75000   0.00000  Uiso   1.00
O693   O     0.15693   0.12393   0.66625   0.00000  Uiso   1.00
O694   O     0.12687   0.20646   0.83749   0.00000  Uiso   1.00
O695   O     0.21088   0.17493   0.65877   0.00000  Uiso   1.00
O696   O     0.17198   0.16135   0.83749   0.00000  Uiso   1.00
O697   O     0.05163   0.24317   0.98549   0.00000  Uiso   1.00
O698   O     0.06663   0.22537   0.90421   0.00000  Uiso   1.00
O699   O     0.17849   0.08101   0.77821   0.00000  Uiso   1.00
O700   O     0.14581   0.26136   0.76767   0.00000  Uiso   1.00
O701   O     0.07452   0.13251   0.73607   0.00000  Uiso   1.00
O702   O     0.26785   0.19179   0.71805   0.00000  Uiso   1.00
O703   O     0.06990   0.18960   0.77820   0.00000  Uiso   1.00
O704   O     0.25440   0.15277   0.76768   0.00000  Uiso   1.00
O705   O     0.13800   0.06903   0.73607   0.00000  Uiso   1.00
O706   O     0.20437   0.25527   0.71806   0.00000  Uiso   1.00
Zn707  Zn    0.19244   0.14090   0.78278   0.00000  Uiso   1.00
Zn708  Zn    0.13459   0.12378   0.72258   0.00000  Uiso   1.00
Zn709  Zn    0.21166   0.19664   0.71188   0.00000  Uiso   1.00
Zn710  Zn    0.12798   0.20535   0.78277   0.00000  Uiso   1.00
C711   C     0.38581   0.16009   0.75861   0.00000  Uiso   1.00
C712   C     0.52941   0.13213   0.96052   0.00000  Uiso   1.00
C713   C     0.54724   0.11008   0.98088   0.00000  Uiso   1.00
C714   C     0.61437   0.17360   0.74115   0.00000  Uiso   1.00
C715   C     0.53964   0.11895   0.52135   0.00000  Uiso   1.00
C716   C     0.51450   0.15161   0.54215   0.00000  Uiso   1.00
C717   C     0.55653   0.09486   0.54124   0.00000  Uiso   1.00
C718   C     0.54912   0.10291   0.58158   0.00000  Uiso   1.00
C719   C     0.51336   0.16393   0.58227   0.00000  Uiso   1.00
C720   C     0.66045   0.17623   0.73744   0.00000  Uiso   1.00
C721   C     0.34040   0.15789   0.76204   0.00000  Uiso   1.00
C722   C     0.42819   0.21391   0.92179   0.00000  Uiso   1.00
C723   C     0.51389   0.32205   0.73796   0.00000  Uiso   1.00
C724   C     0.48449   0.01209   0.76195   0.00000  Uiso   1.00
C725   C     0.48910   0.05615   0.75887   0.00000  Uiso   1.00
C726   C     0.51006   0.27765   0.74131   0.00000  Uiso   1.00
C727   C     0.52170   0.14498   0.64414   0.00000  Uiso   1.00
C728   C     0.47784   0.18730   0.85628   0.00000  Uiso   1.00
C729   C     0.46511   0.19391   0.89969   0.00000  Uiso   1.00
C730   C     0.52845   0.13754   0.60193   0.00000  Uiso   1.00
C731   C     0.41911   0.22148   0.96300   0.00000  Uiso   1.00
C732   C     0.50375   0.20664   0.60194   0.00000  Uiso   1.00
C733   C     0.49025   0.17924   0.91923   0.00000  Uiso   1.00
C734   C     0.52897   0.24209   0.58567   0.00000  Uiso   1.00
C735   C     0.52121   0.28224   0.60438   0.00000  Uiso   1.00
C736   C     0.48827   0.28738   0.63945   0.00000  Uiso   1.00
C737   C     0.46278   0.25238   0.65572   0.00000  Uiso   1.00
C738   C     0.47030   0.21218   0.63707   0.00000  Uiso   1.00
C739   C     0.47869   0.18186   0.96038   0.00000  Uiso   1.00
C740   C     0.44370   0.20464   0.98218   0.00000  Uiso   1.00
C741   C     0.50071   0.16202   0.98043   0.00000  Uiso   1.00
C742   C     0.49103   0.16966   0.52206   0.00000  Uiso   1.00
C743   C     0.45507   0.19116   0.54260   0.00000  Uiso   1.00
C744   C     0.43230   0.20867   0.52316   0.00000  Uiso   1.00
H745   H     0.40476   0.22453   0.54068   0.00000  Uiso   1.00
H746   H     0.44177   0.19221   0.57393   0.00000  Uiso   1.00
H747   H     0.53618   0.12260   0.92943   0.00000  Uiso   1.00
H748   H     0.55486   0.23856   0.55870   0.00000  Uiso   1.00
H749   H     0.54087   0.30940   0.59177   0.00000  Uiso   1.00
H750   H     0.48246   0.31847   0.65398   0.00000  Uiso   1.00
H751   H     0.43716   0.25639   0.68281   0.00000  Uiso   1.00
H752   H     0.44988   0.18543   0.64981   0.00000  Uiso   1.00
H753   H     0.37229   0.25536   0.96834   0.00000  Uiso   1.00
H754   H     0.39290   0.20087   0.88622   0.00000  Uiso   1.00
H755   H     0.57454   0.06903   0.52569   0.00000  Uiso   1.00
H756   H     0.35031   0.19307   0.71463   0.00000  Uiso   1.00
H757   H     0.65119   0.14112   0.78520   0.00000  Uiso   1.00
H758   H     0.54099   0.00253   0.71581   0.00000  Uiso   1.00
H759   H     0.45700   0.33239   0.78417   0.00000  Uiso   1.00
H760   H     0.56090   0.08294   0.59683   0.00000  Uiso   1.00
H761   H     0.56708   0.08571   0.96476   0.00000  Uiso   1.00
H762   H     0.51927   0.16619   0.90155   0.00000  Uiso   1.00
O763   O     0.50000   0.16667   0.75000   0.00000  Uiso   1.00
O764   O     0.49027   0.12393   0.66625   0.00000  Uiso   1.00
O765   O     0.46020   0.20646   0.83749   0.00000  Uiso   1.00
O766   O     0.54421   0.17493   0.65877   0.00000  Uiso   1.00
O767   O     0.50532   0.16135   0.83749   0.00000  Uiso   1.00
O768   O     0.38497   0.24317   0.98549   0.00000  Uiso   1.00
O769   O     0.39996   0.22537   0.90421   0.00000  Uiso   1.00
O770   O     0.51182   0.08101   0.77821   0.00000  Uiso   1.00
O771   O     0.47914   0.26136   0.76767   0.00000  Uiso   1.00
O772   O     0.40785   0.13251   0.73607   0.00000  Uiso   1.00
O773   O     0.60119   0.19179   0.71805   0.00000  Uiso   1.00
O774   O     0.40323   0.18960   0.77820   0.00000  Uiso   1.00
O775   O     0.58773   0.15277   0.76768   0.00000  Uiso   1.00
O776   O     0.47133   0.06903   0.73607   0.00000  Uiso   1.00
O777   O     0.53771   0.25527   0.71806   0.00000  Uiso   1.00
Zn778  Zn    0.52577   0.14090   0.78278   0.00000  Uiso   1.00
Zn779  Zn    0.46792   0.12378   0.72258   0.00000  Uiso   1.00
Zn780  Zn    0.54500   0.19664   0.71188   0.00000  Uiso   1.00
Zn781  Zn    0.46131   0.20535   0.78277   0.00000  Uiso   1.00
C782   C     0.71914   0.16009   0.75861   0.00000  Uiso   1.00
C783   C     0.86274   0.13213   0.96052   0.00000  Uiso   1.00
C784   C     0.88058   0.11008   0.98088   0.00000  Uiso   1.00
C785   C     0.94770   0.17360   0.74115   0.00000  Uiso   1.00
C786   C     0.87297   0.11895   0.52135   0.00000  Uiso   1.00
C787   C     0.84783   0.15161   0.54215   0.00000  Uiso   1.00
C788   C     0.88987   0.09486   0.54124   0.00000  Uiso   1.00
C789   C     0.88245   0.10291   0.58158   0.00000  Uiso   1.00
C790   C     0.84669   0.16393   0.58227   0.00000  Uiso   1.00
C791   C     0.99378   0.17623   0.73744   0.00000  Uiso   1.00
C792   C     0.67373   0.15789   0.76204   0.00000  Uiso   1.00
C793   C     0.76152   0.21391   0.92179   0.00000  Uiso   1.00
C794   C     0.84722   0.32205   0.73796   0.00000  Uiso   1.00
C795   C     0.81782   0.01209   0.76195   0.00000  Uiso   1.00
C796   C     0.82244   0.05615   0.75887   0.00000  Uiso   1.00
C797   C     0.84339   0.27765   0.74131   0.00000  Uiso   1.00
C798   C     0.85503   0.14498   0.64414   0.00000  Uiso   1.00
C799   C     0.81117   0.18730   0.85628   0.00000  Uiso   1.00
C800   C     0.79844   0.19391   0.89969   0.00000  Uiso   1.00
C801   C     0.86178   0.13754   0.60193   0.00000  Uiso   1.00
C802   C     0.75245   0.22148   0.96300   0.00000  Uiso   1.00
C803   C     0.83708   0.20664   0.60194   0.00000  Uiso   1.00
C804   C     0.82358   0.17924   0.91923   0.00000  Uiso   1.00
C805   C     0.86230   0.24209   0.58567   0.00000  Uiso   1.00
C806   C     0.85454   0.28224   0.60438   0.00000  Uiso   1.00
C807   C     0.82160   0.28738   0.63945   0.00000  Uiso   1.00
C808   C     0.79611   0.25238   0.65572   0.00000  Uiso   1.00
C809   C     0.80363   0.21218   0.63707   0.00000  Uiso   1.00
C810   C     0.81202   0.18186   0.96038   0.00000  Uiso   1.00
C811   C     0.77703   0.20464   0.98218   0.00000  Uiso   1.00
C812   C     0.83404   0.16202   0.98043   0.00000  Uiso   1.00
C813   C     0.82436   0.16966   0.52206   0.00000  Uiso   1.00
C814   C     0.78841   0.19116   0.54260   0.00000  Uiso   1.00
C815   C     0.76563   0.20867   0.52316   0.00000  Uiso   1.00
H816   H     0.73809   0.22453   0.54068   0.00000  Uiso   1.00
H817   H     0.77510   0.19221   0.57393   0.00000  Uiso   1.00
H818   H     0.86952   0.12260   0.92943   0.00000  Uiso   1.00
H819   H     0.88820   0.23856   0.55870   0.00000  Uiso   1.00
H820   H     0.87420   0.30940   0.59177   0.00000  Uiso   1.00
H821   H     0.81579   0.31847   0.65398   0.00000  Uiso   1.00
H822   H     0.77049   0.25639   0.68281   0.00000  Uiso   1.00
H823   H     0.78321   0.18543   0.64981   0.00000  Uiso   1.00
H824   H     0.70563   0.25536   0.96834   0.00000  Uiso   1.00
H825   H     0.72623   0.20087   0.88622   0.00000  Uiso   1.00
H826   H     0.90787   0.06903   0.52569   0.00000  Uiso   1.00
H827   H     0.68364   0.19307   0.71463   0.00000  Uiso   1.00
H828   H     0.98453   0.14112   0.78520   0.00000  Uiso   1.00
H829   H     0.87433   0.00253   0.71581   0.00000  Uiso   1.00
H830   H     0.79033   0.33239   0.78417   0.00000  Uiso   1.00
H831   H     0.89423   0.08294   0.59683   0.00000  Uiso   1.00
H832   H     0.90041   0.08571   0.96476   0.00000  Uiso   1.00
H833   H     0.85261   0.16619   0.90155   0.00000  Uiso   1.00
O834   O     0.83333   0.16667   0.75000   0.00000  Uiso   1.00
O835   O     0.82360   0.12393   0.66625   0.00000  Uiso   1.00
O836   O     0.79354   0.20646   0.83749   0.00000  Uiso   1.00
O837   O     0.87755   0.17493   0.65877   0.00000  Uiso   1.00
O838   O     0.83865   0.16135   0.83749   0.00000  Uiso   1.00
O839   O     0.71830   0.24317   0.98549   0.00000  Uiso   1.00
O840   O     0.73330   0.22537   0.90421   0.00000  Uiso   1.00
O841   O     0.84515   0.08101   0.77821   0.00000  Uiso   1.00
O842   O     0.81247   0.26136   0.76767   0.00000  Uiso   1.00
O843   O     0.74119   0.13251   0.73607   0.00000  Uiso   1.00
O844   O     0.93452   0.19179   0.71805   0.00000  Uiso   1.00
O845   O     0.73656   0.18960   0.77820   0.00000  Uiso   1.00
O846   O     0.92106   0.15277   0.76768   0.00000  Uiso   1.00
O847   O     0.80467   0.06903   0.73607   0.00000  Uiso   1.00
O848   O     0.87104   0.25527   0.71806   0.00000  Uiso   1.00
Zn849  Zn    0.85910   0.14090   0.78278   0.00000  Uiso   1.00
Zn850  Zn    0.80125   0.12378   0.72258   0.00000  Uiso   1.00
Zn851  Zn    0.87833   0.19664   0.71188   0.00000  Uiso   1.00
Zn852  Zn    0.79465   0.20535   0.78277   0.00000  Uiso   1.00
C853   C     0.05248   0.49342   0.75861   0.00000  Uiso   1.00
C854   C     0.19607   0.46547   0.96052   0.00000  Uiso   1.00
C855   C     0.21391   0.44341   0.98088   0.00000  Uiso   1.00
C856   C     0.28104   0.50694   0.74115   0.00000  Uiso   1.00
C857   C     0.20631   0.45228   0.52135   0.00000  Uiso   1.00
C858   C     0.18117   0.48494   0.54215   0.00000  Uiso   1.00
C859   C     0.22320   0.42820   0.54124   0.00000  Uiso   1.00
C860   C     0.21578   0.43625   0.58158   0.00000  Uiso   1.00
C861   C     0.18003   0.49726   0.58227   0.00000  Uiso   1.00
C862   C     0.32712   0.50956   0.73744   0.00000  Uiso   1.00
C863   C     0.00707   0.49122   0.76204   0.00000  Uiso   1.00
C864   C     0.09486   0.54724   0.92179   0.00000  Uiso   1.00
C865   C     0.18056   0.65538   0.73796   0.00000  Uiso   1.00
C866   C     0.15115   0.34543   0.76195   0.00000  Uiso   1.00
C867   C     0.15577   0.38948   0.75887   0.00000  Uiso   1.00
C868   C     0.17672   0.61099   0.74131   0.00000  Uiso   1.00
C869   C     0.18837   0.47832   0.64414   0.00000  Uiso   1.00
C870   C     0.14450   0.52064   0.85628   0.00000  Uiso   1.00
C871   C     0.13177   0.52725   0.89969   0.00000  Uiso   1.00
C872   C     0.19512   0.47088   0.60193   0.00000  Uiso   1.00
C873   C     0.08578   0.55482   0.96300   0.00000  Uiso   1.00
C874   C     0.17042   0.53998   0.60194   0.00000  Uiso   1.00
C875   C     0.15692   0.51258   0.91923   0.00000  Uiso   1.00
C876   C     0.19564   0.57542   0.58567   0.00000  Uiso   1.00
C877   C     0.18787   0.61558   0.60438   0.00000  Uiso   1.00
C878   C     0.15493   0.62071   0.63945   0.00000  Uiso   1.00
C879   C     0.12944   0.58571   0.65572   0.00000  Uiso   1.00
C880   C     0.13697   0.54551   0.63707   0.00000  Uiso   1.00
C881   C     0.14536   0.51520   0.96038   0.00000  Uiso   1.00
C882   C     0.11036   0.53797   0.98218   0.00000  Uiso   1.00
C883   C     0.16738   0.49535   0.98043   0.00000  Uiso   1.00
C884   C     0.15770   0.50299   0.52206   0.00000  Uiso   1.00
C885   C     0.12174   0.52449   0.54260   0.00000  Uiso   1.00
C886   C     0.09896   0.54200   0.52316   0.00000  Uiso   1.00
H887   H     0.07142   0.55786   0.54068   0.00000  Uiso   1.00
H888   H     0.10844   0.52555   0.57393   0.00000  Uiso   1.00
H889   H     0.20285   0.45593   0.92943   0.00000  Uiso   1.00
H890   H     0.22153   0.57190   0.55870   0.00000  Uiso   1.00
H891   H     0.20754   0.64273   0.59177   0.00000  Uiso   1.00
H892   H     0.14912   0.65181   0.65398   0.00000  Uiso   1.00
H893   H     0.10383   0.58972   0.68281   0.00000  Uiso   1.00
H894   H     0.11654   0.51876   0.64981   0.00000  Uiso   1.00
H895   H     0.03896   0.58870   0.96834   0.00000  Uiso   1.00
H896   H     0.05957   0.53420   0.88622   0.00000  Uiso   1.00
H897   H     0.24121   0.40237   0.52569   0.00000  Uiso   1.00
H898   H     0.01697   0.52641   0.71463   0.00000  Uiso   1.00
H899   H     0.31786   0.47446   0.78520   0.00000  Uiso   1.00
H900   H     0.20766   0.33586   0.71581   0.00000  Uiso   1.00
H901   H     0.12367   0.66572   0.78417   0.00000  Uiso   1.00
H902   H     0.22756   0.41627   0.59683   0.00000  Uiso   1.00
H903   H     0.23375   0.41904   0.96476   0.00000  Uiso   1.00
H904   H     0.18594   0.49952   0.90155   0.00000  Uiso   1.00
O905   O     0.16667   0.50000   0.75000   0.00000  Uiso   1.00
O906   O     0.15693   0.45726   0.66625   0.00000  Uiso   1.00
O907   O     0.12687   0.53979   0.83749   0.00000  Uiso   1.00
O908   O     0.21088   0.50826   0.65877   0.00000  Uiso   1.00
O909   O     0.17198   0.49468   0.83749   0.00000  Uiso   1.00
O910   O     0.05163   0.57650   0.98549   0.00000  Uiso   1.00
O911   O     0.06663   0.55870   0.90421   0.00000  Uiso   1.00
O912   O     0.17849   0.41434   0.77821   0.00000  Uiso   1.00
O913   O     0.14581   0.59469   0.76767   0.00000  Uiso   1.00
O914   O     0.07452   0.46584   0.73607   0.00000  Uiso   1.00
O915   O     0.26785   0.52512   0.71805   0.00000  Uiso   1.00
O916   O     0.06990   0.52293   0.77820   0.00000  Uiso   1.00
O917   O     0.25440   0.48610   0.76768   0.00000  Uiso   1.00
O918   O     0.13800   0.40236   0.73607   0.00000  Uiso   1.00
O919   O     0.20437   0.58860   0.71806   0.00000  Uiso   1.00
Zn920  Zn    0.19244   0.47423   0.78278   0.00000  Uiso   1.00
Zn921  Zn    0.13459   0.45711   0.72258   0.00000  Uiso   1.00
Zn922  Zn    0.21166   0.52997   0.71188   0.00000  Uiso   1.00
Zn923  Zn    0.12798   0.53868   0.78277   0.00000  Uiso   1.00
C924   C     0.38581   0.49342   0.75861   0.00000  Uiso   1.00
C925   C     0.52941   0.46547   0.96052   0.00000  Uiso   1.00
C926   C     0.54724   0.44341   0.98088   0.00000  Uiso   1.00
C927   C     0.61437   0.50694   0.74115   0.00000  Uiso   1.00
C928   C     0.53964   0.45228   0.52135   0.00000  Uiso   1.00
C929   C     0.51450   0.48494   0.54215   0.00000  Uiso   1.00
C930   C     0.55653   0.42820   0.54124   0.00000  Uiso   1.00
C931   C     0.54912   0.43625   0.58158   0.00000  Uiso   1.00
C932   C     0.51336   0.49726   0.58227   0.00000  Uiso   1.00
C933   C     0.66045   0.50956   0.73744   0.00000  Uiso   1.00
C934   C     0.34040   0.49122   0.76204   0.00000  Uiso   1.00
C935   C     0.42819   0.54724   0.92179   0.00000  Uiso   1.00
C936   C     0.51389   0.65538   0.73796   0.00000  Uiso   1.00
C937   C     0.48449   0.34543   0.76195   0.00000  Uiso   1.00
C938   C     0.48910   0.38948   0.75887   0.00000  Uiso   1.00
C939   C     0.51006   0.61099   0.74131   0.00000  Uiso   1.00
C940   C     0.52170   0.47832   0.64414   0.00000  Uiso   1.00
C941   C     0.47784   0.52064   0.85628   0.00000  Uiso   1.00
C942   C     0.46511   0.52725   0.89969   0.00000  Uiso   1.00
C943   C     0.52845   0.47088   0.60193   0.00000  Uiso   1.00
C944   C     0.41911   0.55482   0.96300   0.00000  Uiso   1.00
C945   C     0.50375   0.53998   0.60194   0.00000  Uiso   1.00
C946   C     0.49025   0.51258   0.91923   0.00000  Uiso   1.00
C947   C     0.52897   0.57542   0.58567   0.00000  Uiso   1.00
C948   C     0.52121   0.61558   0.60438   0.00000  Uiso   1.00
C949   C     0.48827   0.62071   0.63945   0.00000  Uiso   1.00
C950   C     0.46278   0.58571   0.65572   0.00000  Uiso   1.00
C951   C     0.47030   0.54551   0.63707   0.00000  Uiso   1.00
C952   C     0.47869   0.51520   0.96038   0.00000  Uiso   1.00
C953   C     0.44370   0.53797   0.98218   0.00000  Uiso   1.00
C954   C     0.50071   0.49535   0.98043   0.00000  Uiso   1.00
C955   C     0.49103   0.50299   0.52206   0.00000  Uiso   1.00
C956   C     0.45507   0.52449   0.54260   0.00000  Uiso   1.00
C957   C     0.43230   0.54200   0.52316   0.00000  Uiso   1.00
H958   H     0.40476   0.55786   0.54068   0.00000  Uiso   1.00
H959   H     0.44177   0.52555   0.57393   0.00000  Uiso   1.00
H960   H     0.53618   0.45593   0.92943   0.00000  Uiso   1.00
H961   H     0.55486   0.57190   0.55870   0.00000  Uiso   1.00
H962   H     0.54087   0.64273   0.59177   0.00000  Uiso   1.00
H963   H     0.48246   0.65181   0.65398   0.00000  Uiso   1.00
H964   H     0.43716   0.58972   0.68281   0.00000  Uiso   1.00
H965   H     0.44988   0.51876   0.64981   0.00000  Uiso   1.00
H966   H     0.37229   0.58870   0.96834   0.00000  Uiso   1.00
H967   H     0.39290   0.53420   0.88622   0.00000  Uiso   1.00
H968   H     0.57454   0.40237   0.52569   0.00000  Uiso   1.00
H969   H     0.35031   0.52641   0.71463   0.00000  Uiso   1.00
H970   H     0.65119   0.47446   0.78520   0.00000  Uiso   1.00
H971   H     0.54099   0.33586   0.71581   0.00000  Uiso   1.00
H972   H     0.45700   0.66572   0.78417   0.00000  Uiso   1.00
H973   H     0.56090   0.41627   0.59683   0.00000  Uiso   1.00
H974   H     0.56708   0.41904   0.96476   0.00000  Uiso   1.00
H975   H     0.51927   0.49952   0.90155   0.00000  Uiso   1.00
O976   O     0.50000   0.50000   0.75000   0.00000  Uiso   1.00
O977   O     0.49027   0.45726   0.66625   0.00000  Uiso   1.00
O978   O     0.46020   0.53979   0.83749   0.00000  Uiso   1.00
O979   O     0.54421   0.50826   0.65877   0.00000  Uiso   1.00
O980   O     0.50532   0.49468   0.83749   0.00000  Uiso   1.00
O981   O     0.38497   0.57650   0.98549   0.00000  Uiso   1.00
O982   O     0.39996   0.55870   0.90421   0.00000  Uiso   1.00
O983   O     0.51182   0.41434   0.77821   0.00000  Uiso   1.00
O984   O     0.47914   0.59469   0.76767   0.00000  Uiso   1.00
O985   O     0.40785   0.46584   0.73607   0.00000  Uiso   1.00
O986   O     0.60119   0.52512   0.71805   0.00000  Uiso   1.00
O987   O     0.40323   0.52293   0.77820   0.00000  Uiso   1.00
O988   O     0.58773   0.48610   0.76768   0.00000  Uiso   1.00
O989   O     0.47133   0.40236   0.73607   0.00000  Uiso   1.00
O990   O     0.53771   0.58860   0.71806   0.00000  Uiso   1.00
Zn991  Zn    0.52577   0.47423   0.78278   0.00000  Uiso   1.00
Zn992  Zn    0.46792   0.45711   0.72258   0.00000  Uiso   1.00
Zn993  Zn    0.54500   0.52997   0.71188   0.00000  Uiso   1.00
Zn994  Zn    0.46131   0.53868   0.78277   0.00000  Uiso   1.00
C995   C     0.71914   0.49342   0.75861   0.00000  Uiso   1.00
C996   C     0.86274   0.46547   0.96052   0.00000  Uiso   1.00
C997   C     0.88058   0.44341   0.98088   0.00000  Uiso   1.00
C998   C     0.94770   0.50694   0.74115   0.00000  Uiso   1.00
C999   C     0.87297   0.45228   0.52135   0.00000  Uiso   1.00
C1000  C     0.84783   0.48494   0.54215   0.00000  Uiso   1.00
C1001  C     0.88987   0.42820   0.54124   0.00000  Uiso   1.00
C1002  C     0.88245   0.43625   0.58158   0.00000  Uiso   1.00
C1003  C     0.84669   0.49726   0.58227   0.00000  Uiso   1.00
C1004  C     0.99378   0.50956   0.73744   0.00000  Uiso   1.00
C1005  C     0.67373   0.49122   0.76204   0.00000  Uiso   1.00
C1006  C     0.76152   0.54724   0.92179   0.00000  Uiso   1.00
C1007  C     0.84722   0.65538   0.73796   0.00000  Uiso   1.00
C1008  C     0.81782   0.34543   0.76195   0.00000  Uiso   1.00
C1009  C     0.82244   0.38948   0.75887   0.00000  Uiso   1.00
C1010  C     0.84339   0.61099   0.74131   0.00000  Uiso   1.00
C1011  C     0.85503   0.47832   0.64414   0.00000  Uiso   1.00
C1012  C     0.81117   0.52064   0.85628   0.00000  Uiso   1.00
C1013  C     0.79844   0.52725   0.89969   0.00000  Uiso   1.00
C1014  C     0.86178   0.47088   0.60193   0.00000  Uiso   1.00
C1015  C     0.75245   0.55482   0.96300   0.00000  Uiso   1.00
C1016  C     0.83708   0.53998   0.60194   0.00000  Uiso   1.00
C1017  C     0.82358   0.51258   0.91923   0.00000  Uiso   1.00
C1018  C     0.86230   0.57542   0.58567   0.00000  Uiso   1.00
C1019  C     0.85454   0.61558   0.60438   0.00000  Uiso   1.00
C1020  C     0.82160   0.62071   0.63945   0.00000  Uiso   1.00
C1021  C     0.79611   0.58571   0.65572   0.00000  Uiso   1.00
C1022  C     0.80363   0.54551   0.63707   0.00000  Uiso   1.00
C1023  C     0.81202   0.51520   0.96038   0.00000  Uiso   1.00
C1024  C     0.77703   0.53797   0.98218   0.00000  Uiso   1.00
C1025  C     0.83404   0.49535   0.98043   0.00000  Uiso   1.00
C1026  C     0.82436   0.50299   0.52206   0.00000  Uiso   1.00
C1027  C     0.78841   0.52449   0.54260   0.00000  Uiso   1.00
C1028  C     0.76563   0.54200   0.52316   0.00000  Uiso   1.00
H1029  H     0.73809   0.55786   0.54068   0.00000  Uiso   1.00
H1030  H     0.77510   0.52555   0.57393   0.00000  Uiso   1.00
H1031  H     0.86952   0.45593   0.92943   0.00000  Uiso   1.00
H1032  H     0.88820   0.57190   0.55870   0.00000  Uiso   1.00
H1033  H     0.87420   0.64273   0.59177   0.00000  Uiso   1.00
H1034  H     0.81579   0.65181   0.65398   0.00000  Uiso   1.00
H1035  H     0.77049   0.58972   0.68281   0.00000  Uiso   1.00
H1036  H     0.78321   0.51876   0.64981   0.00000  Uiso   1.00
H1037  H     0.70563   0.58870   0.96834   0.00000  Uiso   1.00
H1038  H     0.72623   0.53420   0.88622   0.00000  Uiso   1.00
H1039  H     0.90787   0.40237   0.52569   0.00000  Uiso   1.00
H1040  H     0.68364   0.52641   0.71463   0.00000  Uiso   1.00
H1041  H     0.98453   0.47446   0.78520   0.00000  Uiso   1.00
H1042  H     0.87433   0.33586   0.71581   0.00000  Uiso   1.00
H1043  H     0.79033   0.66572   0.78417   0.00000  Uiso   1.00
H1044  H     0.89423   0.41627   0.59683   0.00000  Uiso   1.00
H1045  H     0.90041   0.41904   0.96476   0.00000  Uiso   1.00
H1046  H     0.85261   0.49952   0.90155   0.00000  Uiso   1.00
O1047  O     0.83333   0.50000   0.75000   0.00000  Uiso   1.00
O1048  O     0.82360   0.45726   0.66625   0.00000  Uiso   1.00
O1049  O     0.79354   0.53979   0.83749   0.00000  Uiso   1.00
O1050  O     0.87755   0.50826   0.65877   0.00000  Uiso   1.00
O1051  O     0.83865   0.49468   0.83749   0.00000  Uiso   1.00
O1052  O     0.71830   0.57650   0.98549   0.00000  Uiso   1.00
O1053  O     0.73330   0.55870   0.90421   0.00000  Uiso   1.00
O1054  O     0.84515   0.41434   0.77821   0.00000  Uiso   1.00
O1055  O     0.81247   0.59469   0.76767   0.00000  Uiso   1.00
O1056  O     0.74119   0.46584   0.73607   0.00000  Uiso   1.00
O1057  O     0.93452   0.52512   0.71805   0.00000  Uiso   1.00
O1058  O     0.73656   0.52293   0.77820   0.00000  Uiso   1.00
O1059  O     0.92106   0.48610   0.76768   0.00000  Uiso   1.00
O1060  O     0.80467   0.40236   0.73607   0.00000  Uiso   1.00
O1061  O     0.87104   0.58860   0.71806   0.00000  Uiso   1.00
Zn1062 Zn    0.85910   0.47423   0.78278   0.00000  Uiso   1.00
Zn1063 Zn    0.80125   0.45711   0.72258   0.00000  Uiso   1.00
Zn1064 Zn    0.87833   0.52997   0.71188   0.00000  Uiso   1.00
Zn1065 Zn    0.79465   0.53868   0.78277   0.00000  Uiso   1.00
C1066  C     0.05248   0.82676   0.75861   0.00000  Uiso   1.00
C1067  C     0.19607   0.79880   0.96052   0.00000  Uiso   1.00
C1068  C     0.21391   0.77675   0.98088   0.00000  Uiso   1.00
C1069  C     0.28104   0.84027   0.74115   0.00000  Uiso   1.00
C1070  C     0.20631   0.78561   0.52135   0.00000  Uiso   1.00
C1071  C     0.18117   0.81827   0.54215   0.00000  Uiso   1.00
C1072  C     0.22320   0.76153   0.54124   0.00000  Uiso   1.00
C1073  C     0.21578   0.76958   0.58158   0.00000  Uiso   1.00
C1074  C     0.18003   0.83060   0.58227   0.00000  Uiso   1.00
C1075  C     0.32712   0.84290   0.73744   0.00000  Uiso   1.00
C1076  C     0.00707   0.82455   0.76204   0.00000  Uiso   1.00
C1077  C     0.09486   0.88058   0.92179   0.00000  Uiso   1.00
C1078  C     0.18056   0.98872   0.73796   0.00000  Uiso   1.00
C1079  C     0.15115   0.67876   0.76195   0.00000  Uiso   1.00
C1080  C     0.15577   0.72282   0.75887   0.00000  Uiso   1.00
C1081  C     0.17672   0.94432   0.74131   0.00000  Uiso   1.00
C1082  C     0.18837   0.81165   0.64414   0.00000  Uiso   1.00
C1083  C     0.14450   0.85397   0.85628   0.00000  Uiso   1.00
C1084  C     0.13177   0.86058   0.89969   0.00000  Uiso   1.00
C1085  C     0.19512   0.80421   0.60193   0.00000  Uiso   1.00
C1086  C     0.08578   0.88815   0.96300   0.00000  Uiso   1.00
C1087  C     0.17042   0.87331   0.60194   0.00000  Uiso   1.00
C1088  C     0.15692   0.84591   0.91923   0.00000  Uiso   1.00
C1089  C     0.19564   0.90875   0.58567   0.00000  Uiso   1.00
C1090  C     0.18787   0.94891   0.60438   0.00000  Uiso   1.00
C1091  C     0.15493   0.95404   0.63945   0.00000  Uiso   1.00
C1092  C     0.12944   0.91904   0.65572   0.00000  Uiso   1.00
C1093  C     0.13697   0.87885   0.63707   0.00000  Uiso   1.00
C1094  C     0.14536   0.84853   0.96038   0.00000  Uiso   1.00
C1095  C     0.11036   0.87130   0.98218   0.00000  Uiso   1.00
C1096  C     0.16738   0.82868   0.98043   0.00000  Uiso   1.00
C1097  C     0.15770   0.83632   0.52206   0.00000  Uiso   1.00
C1098  C     0.12174   0.85782   0.54260   0.00000  Uiso   1.00
C1099  C     0.09896   0.87534   0.52316   0.00000  Uiso   1.00
H1100  H     0.07142   0.89119   0.54068   0.00000  Uiso   1.00
H1101  H     0.10844   0.85888   0.57393   0.00000  Uiso   1.00
H1102  H     0.20285   0.78927   0.92943   0.00000  Uiso   1.00
H1103  H     0.22153   0.90523   0.55870   0.00000  Uiso   1.00
H1104  H     0.20754   0.97607   0.59177   0.00000  Uiso   1.00
H1105  H     0.14912   0.98514   0.65398   0.00000  Uiso   1.00
H1106  H     0.10383   0.92305   0.68281   0.00000  Uiso   1.00
H1107  H     0.11654   0.85210   0.64981   0.00000  Uiso   1.00
H1108  H     0.03896   0.92203   0.96834   0.00000  Uiso   1.00
H1109  H     0.05957   0.86754   0.88622   0.00000  Uiso   1.00
H1110  H     0.24121   0.73570   0.52569   0.00000  Uiso   1.00
H1111  H     0.01697   0.85974   0.71463   0.00000  Uiso   1.00
H1112  H     0.31786   0.80779   0.78520   0.00000  Uiso   1.00
H1113  H     0.20766   0.66919   0.71581   0.00000  Uiso   1.00
H1114  H     0.12367   0.99905   0.78417   0.00000  Uiso   1.00
H1115  H     0.22756   0.74961   0.59683   0.00000  Uiso   1.00
H1116  H     0.23375   0.75237   0.96476   0.00000  Uiso   1.00
H1117  H     0.18594   0.83285   0.90155   0.00000  Uiso   1.00
O1118  O     0.16667   0.83333   0.75000   0.00000  Uiso   1.00
O1119  O     0.15693   0.79060   0.66625   0.00000  Uiso   1.00
O1120  O     0.12687   0.87313   0.83749   0.00000  Uiso   1.00
O1121  O     0.21088   0.84159   0.65877   0.00000  Uiso   1.00
O1122  O     0.17198   0.82802   0.83749   0.00000  Uiso   1.00
O1123  O     0.05163   0.90984   0.98549   0.00000  Uiso   1.00
O1124  O     0.06663   0.89203   0.90421   0.00000  Uiso   1.00
O1125  O     0.17849   0.74768   0.77821   0.00000  Uiso   1.00
O1126  O     0.14581   0.92803   0.76767   0.00000  Uiso   1.00
O1127  O     0.07452   0.79917   0.73607   0.00000  Uiso   1.00
O1128  O     0.26785   0.85845   0.71805   0.00000  Uiso   1.00
O1129  O     0.06990   0.85627   0.77820   0.00000  Uiso   1.00
O1130  O     0.25440   0.81944   0.76768   0.00000  Uiso   1.00
O1131  O     0.13800   0.73570   0.73607   0.00000  Uiso   1.00
O1132  O     0.20437   0.92193   0.71806   0.00000  Uiso   1.00
Zn1133 Zn    0.19244   0.80756   0.78278   0.00000  Uiso   1.00
Zn1134 Zn    0.13459   0.79044   0.72258   0.00000  Uiso   1.00
Zn1135 Zn    0.21166   0.86331   0.71188   0.00000  Uiso   1.00
Zn1136 Zn    0.12798   0.87202   0.78277   0.00000  Uiso   1.00
C1137  C     0.38581   0.82676   0.75861   0.00000  Uiso   1.00
C1138  C     0.52941   0.79880   0.96052   0.00000  Uiso   1.00
C1139  C     0.54724   0.77675   0.98088   0.00000  Uiso   1.00
C1140  C     0.61437   0.84027   0.74115   0.00000  Uiso   1.00
C1141  C     0.53964   0.78561   0.52135   0.00000  Uiso   1.00
C1142  C     0.51450   0.81827   0.54215   0.00000  Uiso   1.00
C1143  C     0.55653   0.76153   0.54124   0.00000  Uiso   1.00
C1144  C     0.54912   0.76958   0.58158   0.00000  Uiso   1.00
C1145  C     0.51336   0.83060   0.58227   0.00000  Uiso   1.00
C1146  C     0.66045   0.84290   0.73744   0.00000  Uiso   1.00
C1147  C     0.34040   0.82455   0.76204   0.00000  Uiso   1.00
C1148  C     0.42819   0.88058   0.92179   0.00000  Uiso   1.00
C1149  C     0.51389   0.98872   0.73796   0.00000  Uiso   1.00
C1150  C     0.48449   0.67876   0.76195   0.00000  Uiso   1.00
C1151  C     0.48910   0.72282   0.75887   0.00000  Uiso   1.00
C1152  C     0.51006   0.94432   0.74131   0.00000  Uiso   1.00
C1153  C     0.52170   0.81165   0.64414   0.00000  Uiso   1.00
C1154  C     0.47784   0.85397   0.85628   0.00000  Uiso   1.00
C1155  C     0.46511   0.86058   0.89969   0.00000  Uiso   1.00
C1156  C     0.52845   0.80421   0.60193   0.00000  Uiso   1.00
C1157  C     0.41911   0.88815   0.96300   0.00000  Uiso   1.00
C1158  C     0.50375   0.87331   0.60194   0.00000  Uiso   1.00
C1159  C     0.49025   0.84591   0.91923   0.00000  Uiso   1.00
C1160  C     0.52897   0.90875   0.58567   0.00000  Uiso   1.00
C1161  C     0.52121   0.94891   0.60438   0.00000  Uiso   1.00
C1162  C     0.48827   0.95404   0.63945   0.00000  Uiso   1.00
C1163  C     0.46278   0.91904   0.65572   0.00000  Uiso   1.00
C1164  C     0.47030   0.87885   0.63707   0.00000  Uiso   1.00
C1165  C     0.47869   0.84853   0.96038   0.00000  Uiso   1.00
C1166  C     0.44370   0.87130   0.98218   0.00000  Uiso   1.00
C1167  C     0.50071   0.82868   0.98043   0.00000  Uiso   1.00
C1168  C     0.49103   0.83632   0.52206   0.00000  Uiso   1.00
C1169  C     0.45507   0.85782   0.54260   0.00000  Uiso   1.00
C1170  C     0.43230   0.87534   0.52316   0.00000  Uiso   1.00
H1171  H     0.40476   0.89119   0.54068   0.00000  Uiso   1.00
H1172  H     0.44177   0.85888   0.57393   0.00000  Uiso   1.00
H1173  H     0.53618   0.78927   0.92943   0.00000  Uiso   1.00
H1174  H     0.55486   0.90523   0.55870   0.00000  Uiso   1.00
H1175  H     0.54087   0.97607   0.59177   0.00000  Uiso   1.00
H1176  H     0.48246   0.98514   0.65398   0.00000  Uiso   1.00
H1177  H     0.43716   0.92305   0.68281   0.00000  Uiso   1.00
H1178  H     0.44988   0.85210   0.64981   0.00000  Uiso   1.00
H1179  H     0.37229   0.92203   0.96834   0.00000  Uiso   1.00
H1180  H     0.39290   0.86754   0.88622   0.00000  Uiso   1.00
H1181  H     0.57454   0.73570   0.52569   0.00000  Uiso   1.00
H1182  H     0.35031   0.85974   0.71463   0.00000  Uiso   1.00
H1183  H     0.65119   0.80779   0.78520   0.00000  Uiso   1.00
H1184  H     0.54099   0.66919   0.71581   0.00000  Uiso   1.00
H1185  H     0.45700   0.99905   0.78417   0.00000  Uiso   1.00
H1186  H     0.56090   0.74961   0.59683   0.00000  Uiso   1.00
H1187  H     0.56708   0.75237   0.96476   0.00000  Uiso   1.00
H1188  H     0.51927   0.83285   0.90155   0.00000  Uiso   1.00
O1189  O     0.50000   0.83333   0.75000   0.00000  Uiso   1.00
O1190  O     0.49027   0.79060   0.66625   0.00000  Uiso   1.00
O1191  O     0.46020   0.87313   0.83749   0.00000  Uiso   1.00
O1192  O     0.54421   0.84159   0.65877   0.00000  Uiso   1.00
O1193  O     0.50532   0.82802   0.83749   0.00000  Uiso   1.00
O1194  O     0.38497   0.90984   0.98549   0.00000  Uiso   1.00
O1195  O     0.39996   0.89203   0.90421   0.00000  Uiso   1.00
O1196  O     0.51182   0.74768   0.77821   0.00000  Uiso   1.00
O1197  O     0.47914   0.92803   0.76767   0.00000  Uiso   1.00
O1198  O     0.40785   0.79917   0.73607   0.00000  Uiso   1.00
O1199  O     0.60119   0.85845   0.71805   0.00000  Uiso   1.00
O1200  O     0.40323   0.85627   0.77820   0.00000  Uiso   1.00
O1201  O     0.58773   0.81944   0.76768   0.00000  Uiso   1.00
O1202  O     0.47133   0.73570   0.73607   0.00000  Uiso   1.00
O1203  O     0.53771   0.92193   0.71806   0.00000  Uiso   1.00
Zn1204 Zn    0.52577   0.80756   0.78278   0.00000  Uiso   1.00
Zn1205 Zn    0.46792   0.79044   0.72258   0.00000  Uiso   1.00
Zn1206 Zn    0.54500   0.86331   0.71188   0.00000  Uiso   1.00
Zn1207 Zn    0.46131   0.87202   0.78277   0.00000  Uiso   1.00
C1208  C     0.71914   0.82676   0.75861   0.00000  Uiso   1.00
C1209  C     0.86274   0.79880   0.96052   0.00000  Uiso   1.00
C1210  C     0.88058   0.77675   0.98088   0.00000  Uiso   1.00
C1211  C     0.94770   0.84027   0.74115   0.00000  Uiso   1.00
C1212  C     0.87297   0.78561   0.52135   0.00000  Uiso   1.00
C1213  C     0.84783   0.81827   0.54215   0.00000  Uiso   1.00
C1214  C     0.88987   0.76153   0.54124   0.00000  Uiso   1.00
C1215  C     0.88245   0.76958   0.58158   0.00000  Uiso   1.00
C1216  C     0.84669   0.83060   0.58227   0.00000  Uiso   1.00
C1217  C     0.99378   0.84290   0.73744   0.00000  Uiso   1.00
C1218  C     0.67373   0.82455   0.76204   0.00000  Uiso   1.00
C1219  C     0.76152   0.88058   0.92179   0.00000  Uiso   1.00
C1220  C     0.84722   0.98872   0.73796   0.00000  Uiso   1.00
C1221  C     0.81782   0.67876   0.76195   0.00000  Uiso   1.00
C1222  C     0.82244   0.72282   0.75887   0.00000  Uiso   1.00
C1223  C     0.84339   0.94432   0.74131   0.00000  Uiso   1.00
C1224  C     0.85503   0.81165   0.64414   0.00000  Uiso   1.00
C1225  C     0.81117   0.85397   0.85628   0.00000  Uiso   1.00
C1226  C     0.79844   0.86058   0.89969   0.00000  Uiso   1.00
C1227  C     0.86178   0.80421   0.60193   0.00000  Uiso   1.00
C1228  C     0.75245   0.88815   0.96300   0.00000  Uiso   1.00
C1229  C     0.83708   0.87331   0.60194   0.00000  Uiso   1.00
C1230  C     0.82358   0.84591   0.91923   0.00000  Uiso   1.00
C1231  C     0.86230   0.90875   0.58567   0.00000  Uiso   1.00
C1232  C     0.85454   0.94891   0.60438   0.00000  Uiso   1.00
C1233  C     0.82160   0.95404   0.63945   0.00000  Uiso   1.00
C1234  C     0.79611   0.91904   0.65572   0.00000  Uiso   1.00
C1235  C     0.80363   0.87885   0.63707   0.00000  Uiso   1.00
C1236  C     0.81202   0.84853   0.96038   0.00000  Uiso   1.00
C1237  C     0.77703   0.87130   0.98218   0.00000  Uiso   1.00
C1238  C     0.83404   0.82868   0.98043   0.00000  Uiso   1.00
C1239  C     0.82436   0.83632   0.52206   0.00000  Uiso   1.00
C1240  C     0.78841   0.85782   0.54260   0.00000  Uiso   1.00
C1241  C     0.76563   0.87534   0.52316   0.00000  Uiso   1.00
H1242  H     0.73809   0.89119   0.54068   0.00000  Uiso   1.00
H1243  H     0.77510   0.85888   0.57393   0.00000  Uiso   1.00
H1244  H     0.86952   0.78927   0.92943   0.00000  Uiso   1.00
H1245  H     0.88820   0.90523   0.55870   0.00000  Uiso   1.00
H1246  H     0.87420   0.97607   0.59177   0.00000  Uiso   1.00
H1247  H     0.81579   0.98514   0.65398   0.00000  Uiso   1.00
H1248  H     0.77049   0.92305   0.68281   0.00000  Uiso   1.00
H1249  H     0.78321   0.85210   0.64981   0.00000  Uiso   1.00
H1250  H     0.70563   0.92203   0.96834   0.00000  Uiso   1.00
H1251  H     0.72623   0.86754   0.88622   0.00000  Uiso   1.00
H1252  H     0.90787   0.73570   0.52569   0.00000  Uiso   1.00
H1253  H     0.68364   0.85974   0.71463   0.00000  Uiso   1.00
H1254  H     0.98453   0.80779   0.78520   0.00000  Uiso   1.00
H1255  H     0.87433   0.66919   0.71581   0.00000  Uiso   1.00
H1256  H     0.79033   0.99905   0.78417   0.00000  Uiso   1.00
H1257  H     0.89423   0.74961   0.59683   0.00000  Uiso   1.00
H1258  H     0.90041   0.75237   0.96476   0.00000  Uiso   1.00
H1259  H     0.85261   0.83285   0.90155   0.00000  Uiso   1.00
O1260  O     0.83333   0.83333   0.75000   0.00000  Uiso   1.00
O1261  O     0.82360   0.79060   0.66625   0.00000  Uiso   1.00
O1262  O     0.79354   0.87313   0.83749   0.00000  Uiso   1.00
O1263  O     0.87755   0.84159   0.65877   0.00000  Uiso   1.00
O1264  O     0.83865   0.82802   0.83749   0.00000  Uiso   1.00
O1265  O     0.71830   0.90984   0.98549   0.00000  Uiso   1.00
O1266  O     0.73330   0.89203   0.90421   0.00000  Uiso   1.00
O1267  O     0.84515   0.74768   0.77821   0.00000  Uiso   1.00
O1268  O     0.81247   0.92803   0.76767   0.00000  Uiso   1.00
O1269  O     0.74119   0.79917   0.73607   0.00000  Uiso   1.00
O1270  O     0.93452   0.85845   0.71805   0.00000  Uiso   1.00
O1271  O     0.73656   0.85627   0.77820   0.00000  Uiso   1.00
O1272  O     0.92106   0.81944   0.76768   0.00000  Uiso   1.00
O1273  O     0.80467   0.73570   0.73607   0.00000  Uiso   1.00
O1274  O     0.87104   0.92193   0.71806   0.00000  Uiso   1.00
Zn1275 Zn    0.85910   0.80756   0.78278   0.00000  Uiso   1.00
Zn1276 Zn    0.80125   0.79044   0.72258   0.00000  Uiso   1.00
Zn1277 Zn    0.87833   0.86331   0.71188   0.00000  Uiso   1.00
Zn1278 Zn    0.79465   0.87202   0.78277   0.00000  Uiso   1.00
loop_
_geom_bond_atom_site_label_1
_geom_bond_atom_site_label_2
_geom_bond_distance
_geom_bond_site_symmetry_2
_ccdc_geom_bond_type
C1     O64     1.267   .     A
C1     O62     1.268   .     A
C1     C11     1.438   .     S
C2     H37     1.077   .     S
C2     C3      1.385   .     A
C2     C31     1.414   .     A
C3     H51     1.084   .     S
C3     C644    1.392   .     S
C4     O63     1.287   .     A
C4     O65     1.282   .     A
C4     C10     1.457   .     S
C5     C6      1.421   .     A
C5     C7      1.398   .     A
C5     C642    1.392   1_554 S
C6     C9      1.426   .     A
C6     C32     1.427   .     A
C7     H45     1.084   .     S
C7     C8      1.386   .     A
C8     H50     1.084   .     S
C8     C20     1.395   .     A
C9     C20     1.411   .     A
C9     C22     1.494   .     S
C10    C82     1.336   .     S
C10    H117    1.088   .     S
C11    C152    1.336   1_455 S
C11    H189    1.086   1_455 S
C12    C19     1.419   .     A
C12    O59     1.378   .     S
C12    C21     1.410   .     A
C13    C16     1.450   .     S
C13    C227    1.331   .     S
C13    H261    1.088   .     S
C14    C15     1.435   .     S
C14    C439    1.331   1_545 S
C14    H475    1.086   1_545 S
C15    O66     1.279   .     A
C15    O60     1.279   .     A
C16    O67     1.268   .     A
C16    O61     1.270   .     A
C17    C20     1.452   .     S
C17    O56     1.273   .     A
C17    O54     1.271   .     A
C18    O55     1.279   .     A
C18    O57     1.291   .     A
C18    C19     1.479   .     S
C19    C23     1.396   .     A
C21    C30     1.409   .     A
C21    O58     1.385   .     S
C22    C28     1.409   .     A
C22    C24     1.405   .     A
C23    H52     1.077   .     S
C23    C29     1.404   .     A
C24    H38     1.083   .     S
C24    C25     1.399   .     A
C25    H39     1.082   .     S
C25    C26     1.397   .     A
C26    C27     1.397   .     A
C26    H40     1.083   .     S
C27    H41     1.082   .     S
C27    C28     1.398   .     A
C28    H42     1.083   .     S
C29    C30     1.418   .     A
C29    C31     1.426   .     A
C30    C673    1.397   .     S
C31    C671    1.424   .     S
C32    C33     1.409   .     A
C32    C670    1.424   1_554 S
C33    C34     1.384   .     A
C33    H36     1.076   .     S
C34    H35     1.083   .     S
C34    C669    1.397   1_554 S
H43    O58     0.990   .     S
H44    O59     0.991   .     S
H46    C152    1.088   1_455 S
H47    C82     1.086   .     S
H48    C439    1.088   1_545 S
H49    C227    1.086   .     S
O53    Zn69    1.939   .     S
O53    Zn68    1.970   .     S
O53    Zn70    1.936   .     S
O53    Zn71    1.926   .     S
O54    Zn69    1.935   .     S
O55    Zn71    1.948   .     S
O56    Zn70    1.937   .     S
O57    Zn68    1.926   .     S
O60    Zn68    1.925   .     S
O61    Zn71    1.933   .     S
O62    Zn69    1.925   .     S
O63    Zn70    1.938   .     S
O64    Zn71    1.931   .     S
O65    Zn68    1.921   .     S
O66    Zn69    1.941   .     S
O67    Zn70    1.929   .     S
C72    O135    1.267   .     A
C72    O133    1.268   .     A
C72    C82     1.438   .     S
C73    H108    1.077   .     S
C73    C74     1.385   .     A
C73    C102    1.414   .     A
C74    H122    1.084   .     S
C74    C715    1.392   .     S
C75    O134    1.287   .     A
C75    O136    1.282   .     A
C75    C81     1.457   .     S
C76    C77     1.421   .     A
C76    C78     1.398   .     A
C76    C713    1.392   1_554 S
C77    C80     1.426   .     A
C77    C103    1.427   .     A
C78    H116    1.084   .     S
C78    C79     1.386   .     A
C79    H121    1.084   .     S
C79    C91     1.395   .     A
C80    C91     1.411   .     A
C80    C93     1.494   .     S
C81    C153    1.336   .     S
C81    H188    1.088   .     S
C83    C90     1.419   .     A
C83    O130    1.378   .     S
C83    C92     1.410   .     A
C84    C87     1.450   .     S
C84    C298    1.331   .     S
C84    H332    1.088   .     S
C85    C86     1.435   .     S
C85    C510    1.331   1_545 S
C85    H546    1.086   1_545 S
C86    O137    1.279   .     A
C86    O131    1.279   .     A
C87    O138    1.268   .     A
C87    O132    1.270   .     A
C88    C91     1.452   .     S
C88    O127    1.273   .     A
C88    O125    1.271   .     A
C89    O126    1.279   .     A
C89    O128    1.291   .     A
C89    C90     1.479   .     S
C90    C94     1.396   .     A
C92    C101    1.409   .     A
C92    O129    1.385   .     S
C93    C99     1.409   .     A
C93    C95     1.405   .     A
C94    H123    1.077   .     S
C94    C100    1.404   .     A
C95    H109    1.083   .     S
C95    C96     1.399   .     A
C96    H110    1.082   .     S
C96    C97     1.397   .     A
C97    C98     1.397   .     A
C97    H111    1.083   .     S
C98    H112    1.082   .     S
C98    C99     1.398   .     A
C99    H113    1.083   .     S
C100   C101    1.418   .     A
C100   C102    1.426   .     A
C101   C744    1.397   .     S
C102   C742    1.424   .     S
C103   C104    1.409   .     A
C103   C741    1.424   1_554 S
C104   C105    1.384   .     A
C104   H107    1.076   .     S
C105   H106    1.083   .     S
C105   C740    1.397   1_554 S
H114   O129    0.990   .     S
H115   O130    0.991   .     S
H118   C153    1.086   .     S
H119   C510    1.088   1_545 S
H120   C298    1.086   .     S
O124   Zn140   1.939   .     S
O124   Zn139   1.970   .     S
O124   Zn141   1.936   .     S
O124   Zn142   1.926   .     S
O125   Zn140   1.935   .     S
O126   Zn142   1.948   .     S
O127   Zn141   1.937   .     S
O128   Zn139   1.926   .     S
O131   Zn139   1.925   .     S
O132   Zn142   1.933   .     S
O133   Zn140   1.925   .     S
O134   Zn141   1.938   .     S
O135   Zn142   1.931   .     S
O136   Zn139   1.921   .     S
O137   Zn140   1.941   .     S
O138   Zn141   1.929   .     S
C143   O206    1.267   .     A
C143   O204    1.268   .     A
C143   C153    1.438   .     S
C144   H179    1.077   .     S
C144   C145    1.385   .     A
C144   C173    1.414   .     A
C145   H193    1.084   .     S
C145   C786    1.392   .     S
C146   O205    1.287   .     A
C146   O207    1.282   .     A
C146   C152    1.457   .     S
C147   C148    1.421   .     A
C147   C149    1.398   .     A
C147   C784    1.392   1_554 S
C148   C151    1.426   .     A
C148   C174    1.427   .     A
C149   H187    1.084   .     S
C149   C150    1.386   .     A
C150   H192    1.084   .     S
C150   C162    1.395   .     A
C151   C162    1.411   .     A
C151   C164    1.494   .     S
C152   C11     1.336   1_655 S
C152   H46     1.088   1_655 S
C154   C161    1.419   .     A
C154   O201    1.378   .     S
C154   C163    1.410   .     A
C155   C158    1.450   .     S
C155   C369    1.331   .     S
C155   H403    1.088   .     S
C156   C157    1.435   .     S
C156   C581    1.331   1_545 S
C156   H617    1.086   1_545 S
C157   O208    1.279   .     A
C157   O202    1.279   .     A
C158   O209    1.268   .     A
C158   O203    1.270   .     A
C159   C162    1.452   .     S
C159   O198    1.273   .     A
C159   O196    1.271   .     A
C160   O197    1.279   .     A
C160   O199    1.291   .     A
C160   C161    1.479   .     S
C161   C165    1.396   .     A
C163   C172    1.409   .     A
C163   O200    1.385   .     S
C164   C170    1.409   .     A
C164   C166    1.405   .     A
C165   H194    1.077   .     S
C165   C171    1.404   .     A
C166   H180    1.083   .     S
C166   C167    1.399   .     A
C167   H181    1.082   .     S
C167   C168    1.397   .     A
C168   C169    1.397   .     A
C168   H182    1.083   .     S
C169   H183    1.082   .     S
C169   C170    1.398   .     A
C170   H184    1.083   .     S
C171   C172    1.418   .     A
C171   C173    1.426   .     A
C172   C815    1.397   .     S
C173   C813    1.424   .     S
C174   C175    1.409   .     A
C174   C812    1.424   1_554 S
C175   C176    1.384   .     A
C175   H178    1.076   .     S
C176   H177    1.083   .     S
C176   C811    1.397   1_554 S
H185   O200    0.990   .     S
H186   O201    0.991   .     S
H189   C11     1.086   1_655 S
H190   C581    1.088   1_545 S
H191   C369    1.086   .     S
O195   Zn211   1.939   .     S
O195   Zn210   1.970   .     S
O195   Zn212   1.936   .     S
O195   Zn213   1.926   .     S
O196   Zn211   1.935   .     S
O197   Zn213   1.948   .     S
O198   Zn212   1.937   .     S
O199   Zn210   1.926   .     S
O202   Zn210   1.925   .     S
O203   Zn213   1.933   .     S
O204   Zn211   1.925   .     S
O205   Zn212   1.938   .     S
O206   Zn213   1.931   .     S
O207   Zn210   1.921   .     S
O208   Zn211   1.941   .     S
O209   Zn212   1.929   .     S
C214   O277    1.267   .     A
C214   O275    1.268   .     A
C214   C224    1.438   .     S
C215   H250    1.077   .     S
C215   C216    1.385   .     A
C215   C244    1.414   .     A
C216   H264    1.084   .     S
C216   C857    1.392   .     S
C217   O276    1.287   .     A
C217   O278    1.282   .     A
C217   C223    1.457   .     S
C218   C219    1.421   .     A
C218   C220    1.398   .     A
C218   C855    1.392   1_554 S
C219   C222    1.426   .     A
C219   C245    1.427   .     A
C220   H258    1.084   .     S
C220   C221    1.386   .     A
C221   H263    1.084   .     S
C221   C233    1.395   .     A
C222   C233    1.411   .     A
C222   C235    1.494   .     S
C223   C295    1.336   .     S
C223   H330    1.088   .     S
C224   C365    1.336   1_455 S
C224   H402    1.086   1_455 S
C225   C232    1.419   .     A
C225   O272    1.378   .     S
C225   C234    1.410   .     A
C226   C229    1.450   .     S
C226   C440    1.331   .     S
C226   H474    1.088   .     S
C227   C228    1.435   .     S
C228   O279    1.279   .     A
C228   O273    1.279   .     A
C229   O280    1.268   .     A
C229   O274    1.270   .     A
C230   C233    1.452   .     S
C230   O269    1.273   .     A
C230   O267    1.271   .     A
C231   O268    1.279   .     A
C231   O270    1.291   .     A
C231   C232    1.479   .     S
C232   C236    1.396   .     A
C234   C243    1.409   .     A
C234   O271    1.385   .     S
C235   C241    1.409   .     A
C235   C237    1.405   .     A
C236   H265    1.077   .     S
C236   C242    1.404   .     A
C237   H251    1.083   .     S
C237   C238    1.399   .     A
C238   H252    1.082   .     S
C238   C239    1.397   .     A
C239   C240    1.397   .     A
C239   H253    1.083   .     S
C240   H254    1.082   .     S
C240   C241    1.398   .     A
C241   H255    1.083   .     S
C242   C243    1.418   .     A
C242   C244    1.426   .     A
C243   C886    1.397   .     S
C244   C884    1.424   .     S
C245   C246    1.409   .     A
C245   C883    1.424   1_554 S
C246   C247    1.384   .     A
C246   H249    1.076   .     S
C247   H248    1.083   .     S
C247   C882    1.397   1_554 S
H256   O271    0.990   .     S
H257   O272    0.991   .     S
H259   C365    1.088   1_455 S
H260   C295    1.086   .     S
H262   C440    1.086   .     S
O266   Zn282   1.939   .     S
O266   Zn281   1.970   .     S
O266   Zn283   1.936   .     S
O266   Zn284   1.926   .     S
O267   Zn282   1.935   .     S
O268   Zn284   1.948   .     S
O269   Zn283   1.937   .     S
O270   Zn281   1.926   .     S
O273   Zn281   1.925   .     S
O274   Zn284   1.933   .     S
O275   Zn282   1.925   .     S
O276   Zn283   1.938   .     S
O277   Zn284   1.931   .     S
O278   Zn281   1.921   .     S
O279   Zn282   1.941   .     S
O280   Zn283   1.929   .     S
C285   O348    1.267   .     A
C285   O346    1.268   .     A
C285   C295    1.438   .     S
C286   H321    1.077   .     S
C286   C287    1.385   .     A
C286   C315    1.414   .     A
C287   H335    1.084   .     S
C287   C928    1.392   .     S
C288   O347    1.287   .     A
C288   O349    1.282   .     A
C288   C294    1.457   .     S
C289   C290    1.421   .     A
C289   C291    1.398   .     A
C289   C926    1.392   1_554 S
C290   C293    1.426   .     A
C290   C316    1.427   .     A
C291   H329    1.084   .     S
C291   C292    1.386   .     A
C292   H334    1.084   .     S
C292   C304    1.395   .     A
C293   C304    1.411   .     A
C293   C306    1.494   .     S
C294   C366    1.336   .     S
C294   H401    1.088   .     S
C296   C303    1.419   .     A
C296   O343    1.378   .     S
C296   C305    1.410   .     A
C297   C300    1.450   .     S
C297   C511    1.331   .     S
C297   H545    1.088   .     S
C298   C299    1.435   .     S
C299   O350    1.279   .     A
C299   O344    1.279   .     A
C300   O351    1.268   .     A
C300   O345    1.270   .     A
C301   C304    1.452   .     S
C301   O340    1.273   .     A
C301   O338    1.271   .     A
C302   O339    1.279   .     A
C302   O341    1.291   .     A
C302   C303    1.479   .     S
C303   C307    1.396   .     A
C305   C314    1.409   .     A
C305   O342    1.385   .     S
C306   C312    1.409   .     A
C306   C308    1.405   .     A
C307   H336    1.077   .     S
C307   C313    1.404   .     A
C308   H322    1.083   .     S
C308   C309    1.399   .     A
C309   H323    1.082   .     S
C309   C310    1.397   .     A
C310   C311    1.397   .     A
C310   H324    1.083   .     S
C311   H325    1.082   .     S
C311   C312    1.398   .     A
C312   H326    1.083   .     S
C313   C314    1.418   .     A
C313   C315    1.426   .     A
C314   C957    1.397   .     S
C315   C955    1.424   .     S
C316   C317    1.409   .     A
C316   C954    1.424   1_554 S
C317   C318    1.384   .     A
C317   H320    1.076   .     S
C318   H319    1.083   .     S
C318   C953    1.397   1_554 S
H327   O342    0.990   .     S
H328   O343    0.991   .     S
H331   C366    1.086   .     S
H333   C511    1.086   .     S
O337   Zn353   1.939   .     S
O337   Zn352   1.970   .     S
O337   Zn354   1.936   .     S
O337   Zn355   1.926   .     S
O338   Zn353   1.935   .     S
O339   Zn355   1.948   .     S
O340   Zn354   1.937   .     S
O341   Zn352   1.926   .     S
O344   Zn352   1.925   .     S
O345   Zn355   1.933   .     S
O346   Zn353   1.925   .     S
O347   Zn354   1.938   .     S
O348   Zn355   1.931   .     S
O349   Zn352   1.921   .     S
O350   Zn353   1.941   .     S
O351   Zn354   1.929   .     S
C356   O419    1.267   .     A
C356   O417    1.268   .     A
C356   C366    1.438   .     S
C357   H392    1.077   .     S
C357   C358    1.385   .     A
C357   C386    1.414   .     A
C358   H406    1.084   .     S
C358   C999    1.392   .     S
C359   O418    1.287   .     A
C359   O420    1.282   .     A
C359   C365    1.457   .     S
C360   C361    1.421   .     A
C360   C362    1.398   .     A
C360   C997    1.392   1_554 S
C361   C364    1.426   .     A
C361   C387    1.427   .     A
C362   H400    1.084   .     S
C362   C363    1.386   .     A
C363   H405    1.084   .     S
C363   C375    1.395   .     A
C364   C375    1.411   .     A
C364   C377    1.494   .     S
C365   C224    1.336   1_655 S
C365   H259    1.088   1_655 S
C367   C374    1.419   .     A
C367   O414    1.378   .     S
C367   C376    1.410   .     A
C368   C371    1.450   .     S
C368   C582    1.331   .     S
C368   H616    1.088   .     S
C369   C370    1.435   .     S
C370   O421    1.279   .     A
C370   O415    1.279   .     A
C371   O422    1.268   .     A
C371   O416    1.270   .     A
C372   C375    1.452   .     S
C372   O411    1.273   .     A
C372   O409    1.271   .     A
C373   O410    1.279   .     A
C373   O412    1.291   .     A
C373   C374    1.479   .     S
C374   C378    1.396   .     A
C376   C385    1.409   .     A
C376   O413    1.385   .     S
C377   C383    1.409   .     A
C377   C379    1.405   .     A
C378   H407    1.077   .     S
C378   C384    1.404   .     A
C379   H393    1.083   .     S
C379   C380    1.399   .     A
C380   H394    1.082   .     S
C380   C381    1.397   .     A
C381   C382    1.397   .     A
C381   H395    1.083   .     S
C382   H396    1.082   .     S
C382   C383    1.398   .     A
C383   H397    1.083   .     S
C384   C385    1.418   .     A
C384   C386    1.426   .     A
C385   C1028   1.397   .     S
C386   C1026   1.424   .     S
C387   C388    1.409   .     A
C387   C1025   1.424   1_554 S
C388   C389    1.384   .     A
C388   H391    1.076   .     S
C389   H390    1.083   .     S
C389   C1024   1.397   1_554 S
H398   O413    0.990   .     S
H399   O414    0.991   .     S
H402   C224    1.086   1_655 S
H404   C582    1.086   .     S
O408   Zn424   1.939   .     S
O408   Zn423   1.970   .     S
O408   Zn425   1.936   .     S
O408   Zn426   1.926   .     S
O409   Zn424   1.935   .     S
O410   Zn426   1.948   .     S
O411   Zn425   1.937   .     S
O412   Zn423   1.926   .     S
O415   Zn423   1.925   .     S
O416   Zn426   1.933   .     S
O417   Zn424   1.925   .     S
O418   Zn425   1.938   .     S
O419   Zn426   1.931   .     S
O420   Zn423   1.921   .     S
O421   Zn424   1.941   .     S
O422   Zn425   1.929   .     S
C427   O490    1.267   .     A
C427   O488    1.268   .     A
C427   C437    1.438   .     S
C428   H463    1.077   .     S
C428   C429    1.385   .     A
C428   C457    1.414   .     A
C429   H477    1.084   .     S
C429   C1070   1.392   .     S
C430   O489    1.287   .     A
C430   O491    1.282   .     A
C430   C436    1.457   .     S
C431   C432    1.421   .     A
C431   C433    1.398   .     A
C431   C1068   1.392   1_554 S
C432   C435    1.426   .     A
C432   C458    1.427   .     A
C433   H471    1.084   .     S
C433   C434    1.386   .     A
C434   H476    1.084   .     S
C434   C446    1.395   .     A
C435   C446    1.411   .     A
C435   C448    1.494   .     S
C436   C508    1.336   .     S
C436   H543    1.088   .     S
C437   C578    1.336   1_455 S
C437   H615    1.086   1_455 S
C438   C445    1.419   .     A
C438   O485    1.378   .     S
C438   C447    1.410   .     A
C439   C442    1.450   .     S
C439   C14     1.331   1_565 S
C439   H48     1.088   1_565 S
C440   C441    1.435   .     S
C441   O492    1.279   .     A
C441   O486    1.279   .     A
C442   O493    1.268   .     A
C442   O487    1.270   .     A
C443   C446    1.452   .     S
C443   O482    1.273   .     A
C443   O480    1.271   .     A
C444   O481    1.279   .     A
C444   O483    1.291   .     A
C444   C445    1.479   .     S
C445   C449    1.396   .     A
C447   C456    1.409   .     A
C447   O484    1.385   .     S
C448   C454    1.409   .     A
C448   C450    1.405   .     A
C449   H478    1.077   .     S
C449   C455    1.404   .     A
C450   H464    1.083   .     S
C450   C451    1.399   .     A
C451   H465    1.082   .     S
C451   C452    1.397   .     A
C452   C453    1.397   .     A
C452   H466    1.083   .     S
C453   H467    1.082   .     S
C453   C454    1.398   .     A
C454   H468    1.083   .     S
C455   C456    1.418   .     A
C455   C457    1.426   .     A
C456   C1099   1.397   .     S
C457   C1097   1.424   .     S
C458   C459    1.409   .     A
C458   C1096   1.424   1_554 S
C459   C460    1.384   .     A
C459   H462    1.076   .     S
C460   H461    1.083   .     S
C460   C1095   1.397   1_554 S
H469   O484    0.990   .     S
H470   O485    0.991   .     S
H472   C578    1.088   1_455 S
H473   C508    1.086   .     S
H475   C14     1.086   1_565 S
O479   Zn495   1.939   .     S
O479   Zn494   1.970   .     S
O479   Zn496   1.936   .     S
O479   Zn497   1.926   .     S
O480   Zn495   1.935   .     S
O481   Zn497   1.948   .     S
O482   Zn496   1.937   .     S
O483   Zn494   1.926   .     S
O486   Zn494   1.925   .     S
O487   Zn497   1.933   .     S
O488   Zn495   1.925   .     S
O489   Zn496   1.938   .     S
O490   Zn497   1.931   .     S
O491   Zn494   1.921   .     S
O492   Zn495   1.941   .     S
O493   Zn496   1.929   .     S
C498   O561    1.267   .     A
C498   O559    1.268   .     A
C498   C508    1.438   .     S
C499   H534    1.077   .     S
C499   C500    1.385   .     A
C499   C528    1.414   .     A
C500   H548    1.084   .     S
C500   C1141   1.392   .     S
C501   O560    1.287   .     A
C501   O562    1.282   .     A
C501   C507    1.457   .     S
C502   C503    1.421   .     A
C502   C504    1.398   .     A
C502   C1139   1.392   1_554 S
C503   C506    1.426   .     A
C503   C529    1.427   .     A
C504   H542    1.084   .     S
C504   C505    1.386   .     A
C505   H547    1.084   .     S
C505   C517    1.395   .     A
C506   C517    1.411   .     A
C506   C519    1.494   .     S
C507   C579    1.336   .     S
C507   H614    1.088   .     S
C509   C516    1.419   .     A
C509   O556    1.378   .     S
C509   C518    1.410   .     A
C510   C513    1.450   .     S
C510   C85     1.331   1_565 S
C510   H119    1.088   1_565 S
C511   C512    1.435   .     S
C512   O563    1.279   .     A
C512   O557    1.279   .     A
C513   O564    1.268   .     A
C513   O558    1.270   .     A
C514   C517    1.452   .     S
C514   O553    1.273   .     A
C514   O551    1.271   .     A
C515   O552    1.279   .     A
C515   O554    1.291   .     A
C515   C516    1.479   .     S
C516   C520    1.396   .     A
C518   C527    1.409   .     A
C518   O555    1.385   .     S
C519   C525    1.409   .     A
C519   C521    1.405   .     A
C520   H549    1.077   .     S
C520   C526    1.404   .     A
C521   H535    1.083   .     S
C521   C522    1.399   .     A
C522   H536    1.082   .     S
C522   C523    1.397   .     A
C523   C524    1.397   .     A
C523   H537    1.083   .     S
C524   H538    1.082   .     S
C524   C525    1.398   .     A
C525   H539    1.083   .     S
C526   C527    1.418   .     A
C526   C528    1.426   .     A
C527   C1170   1.397   .     S
C528   C1168   1.424   .     S
C529   C530    1.409   .     A
C529   C1167   1.424   1_554 S
C530   C531    1.384   .     A
C530   H533    1.076   .     S
C531   H532    1.083   .     S
C531   C1166   1.397   1_554 S
H540   O555    0.990   .     S
H541   O556    0.991   .     S
H544   C579    1.086   .     S
H546   C85     1.086   1_565 S
O550   Zn566   1.939   .     S
O550   Zn565   1.970   .     S
O550   Zn567   1.936   .     S
O550   Zn568   1.926   .     S
O551   Zn566   1.935   .     S
O552   Zn568   1.948   .     S
O553   Zn567   1.937   .     S
O554   Zn565   1.926   .     S
O557   Zn565   1.925   .     S
O558   Zn568   1.933   .     S
O559   Zn566   1.925   .     S
O560   Zn567   1.938   .     S
O561   Zn568   1.931   .     S
O562   Zn565   1.921   .     S
O563   Zn566   1.941   .     S
O564   Zn567   1.929   .     S
C569   O632    1.267   .     A
C569   O630    1.268   .     A
C569   C579    1.438   .     S
C570   H605    1.077   .     S
C570   C571    1.385   .     A
C570   C599    1.414   .     A
C571   H619    1.084   .     S
C571   C1212   1.392   .     S
C572   O631    1.287   .     A
C572   O633    1.282   .     A
C572   C578    1.457   .     S
C573   C574    1.421   .     A
C573   C575    1.398   .     A
C573   C1210   1.392   1_554 S
C574   C577    1.426   .     A
C574   C600    1.427   .     A
C575   H613    1.084   .     S
C575   C576    1.386   .     A
C576   H618    1.084   .     S
C576   C588    1.395   .     A
C577   C588    1.411   .     A
C577   C590    1.494   .     S
C578   C437    1.336   1_655 S
C578   H472    1.088   1_655 S
C580   C587    1.419   .     A
C580   O627    1.378   .     S
C580   C589    1.410   .     A
C581   C584    1.450   .     S
C581   C156    1.331   1_565 S
C581   H190    1.088   1_565 S
C582   C583    1.435   .     S
C583   O634    1.279   .     A
C583   O628    1.279   .     A
C584   O635    1.268   .     A
C584   O629    1.270   .     A
C585   C588    1.452   .     S
C585   O624    1.273   .     A
C585   O622    1.271   .     A
C586   O623    1.279   .     A
C586   O625    1.291   .     A
C586   C587    1.479   .     S
C587   C591    1.396   .     A
C589   C598    1.409   .     A
C589   O626    1.385   .     S
C590   C596    1.409   .     A
C590   C592    1.405   .     A
C591   H620    1.077   .     S
C591   C597    1.404   .     A
C592   H606    1.083   .     S
C592   C593    1.399   .     A
C593   H607    1.082   .     S
C593   C594    1.397   .     A
C594   C595    1.397   .     A
C594   H608    1.083   .     S
C595   H609    1.082   .     S
C595   C596    1.398   .     A
C596   H610    1.083   .     S
C597   C598    1.418   .     A
C597   C599    1.426   .     A
C598   C1241   1.397   .     S
C599   C1239   1.424   .     S
C600   C601    1.409   .     A
C600   C1238   1.424   1_554 S
C601   C602    1.384   .     A
C601   H604    1.076   .     S
C602   H603    1.083   .     S
C602   C1237   1.397   1_554 S
H611   O626    0.990   .     S
H612   O627    0.991   .     S
H615   C437    1.086   1_655 S
H617   C156    1.086   1_565 S
O621   Zn637   1.939   .     S
O621   Zn636   1.970   .     S
O621   Zn638   1.936   .     S
O621   Zn639   1.926   .     S
O622   Zn637   1.935   .     S
O623   Zn639   1.948   .     S
O624   Zn638   1.937   .     S
O625   Zn636   1.926   .     S
O628   Zn636   1.925   .     S
O629   Zn639   1.933   .     S
O630   Zn637   1.925   .     S
O631   Zn638   1.938   .     S
O632   Zn639   1.931   .     S
O633   Zn636   1.921   .     S
O634   Zn637   1.941   .     S
O635   Zn638   1.929   .     S
C640   O703    1.267   .     A
C640   O701    1.268   .     A
C640   C650    1.438   .     S
C641   H676    1.077   .     S
C641   C642    1.385   .     A
C641   C670    1.414   .     A
C642   H690    1.084   .     S
C642   C5      1.392   1_556 S
C643   O702    1.287   .     A
C643   O704    1.282   .     A
C643   C649    1.457   .     S
C644   C645    1.421   .     A
C644   C646    1.398   .     A
C645   C648    1.426   .     A
C645   C671    1.427   .     A
C646   H684    1.084   .     S
C646   C647    1.386   .     A
C647   H689    1.084   .     S
C647   C659    1.395   .     A
C648   C659    1.411   .     A
C648   C661    1.494   .     S
C649   C721    1.336   .     S
C649   H756    1.088   .     S
C650   C791    1.336   1_455 S
C650   H828    1.086   1_455 S
C651   C658    1.419   .     A
C651   O698    1.378   .     S
C651   C660    1.410   .     A
C652   C655    1.450   .     S
C652   C866    1.331   .     S
C652   H900    1.088   .     S
C653   C654    1.435   .     S
C653   C1078   1.331   1_545 S
C653   H1114   1.086   1_545 S
C654   O705    1.279   .     A
C654   O699    1.279   .     A
C655   O706    1.268   .     A
C655   O700    1.270   .     A
C656   C659    1.452   .     S
C656   O695    1.273   .     A
C656   O693    1.271   .     A
C657   O694    1.279   .     A
C657   O696    1.291   .     A
C657   C658    1.479   .     S
C658   C662    1.396   .     A
C660   C669    1.409   .     A
C660   O697    1.385   .     S
C661   C667    1.409   .     A
C661   C663    1.405   .     A
C662   H691    1.077   .     S
C662   C668    1.404   .     A
C663   H677    1.083   .     S
C663   C664    1.399   .     A
C664   H678    1.082   .     S
C664   C665    1.397   .     A
C665   C666    1.397   .     A
C665   H679    1.083   .     S
C666   H680    1.082   .     S
C666   C667    1.398   .     A
C667   H681    1.083   .     S
C668   C669    1.418   .     A
C668   C670    1.426   .     A
C669   C34     1.397   1_556 S
C670   C32     1.424   1_556 S
C671   C672    1.409   .     A
C672   C673    1.384   .     A
C672   H675    1.076   .     S
C673   H674    1.083   .     S
H682   O697    0.990   .     S
H683   O698    0.991   .     S
H685   C791    1.088   1_455 S
H686   C721    1.086   .     S
H687   C1078   1.088   1_545 S
H688   C866    1.086   .     S
O692   Zn708   1.939   .     S
O692   Zn707   1.970   .     S
O692   Zn709   1.936   .     S
O692   Zn710   1.926   .     S
O693   Zn708   1.935   .     S
O694   Zn710   1.948   .     S
O695   Zn709   1.937   .     S
O696   Zn707   1.926   .     S
O699   Zn707   1.925   .     S
O700   Zn710   1.933   .     S
O701   Zn708   1.925   .     S
O702   Zn709   1.938   .     S
O703   Zn710   1.931   .     S
O704   Zn707   1.921   .     S
O705   Zn708   1.941   .     S
O706   Zn709   1.929   .     S
C711   O774    1.267   .     A
C711   O772    1.268   .     A
C711   C721    1.438   .     S
C712   H747    1.077   .     S
C712   C713    1.385   .     A
C712   C741    1.414   .     A
C713   H761    1.084   .     S
C713   C76     1.392   1_556 S
C714   O773    1.287   .     A
C714   O775    1.282   .     A
C714   C720    1.457   .     S
C715   C716    1.421   .     A
C715   C717    1.398   .     A
C716   C719    1.426   .     A
C716   C742    1.427   .     A
C717   H755    1.084   .     S
C717   C718    1.386   .     A
C718   H760    1.084   .     S
C718   C730    1.395   .     A
C719   C730    1.411   .     A
C719   C732    1.494   .     S
C720   C792    1.336   .     S
C720   H827    1.088   .     S
C722   C729    1.419   .     A
C722   O769    1.378   .     S
C722   C731    1.410   .     A
C723   C726    1.450   .     S
C723   C937    1.331   .     S
C723   H971    1.088   .     S
C724   C725    1.435   .     S
C724   C1149   1.331   1_545 S
C724   H1185   1.086   1_545 S
C725   O776    1.279   .     A
C725   O770    1.279   .     A
C726   O777    1.268   .     A
C726   O771    1.270   .     A
C727   C730    1.452   .     S
C727   O766    1.273   .     A
C727   O764    1.271   .     A
C728   O765    1.279   .     A
C728   O767    1.291   .     A
C728   C729    1.479   .     S
C729   C733    1.396   .     A
C731   C740    1.409   .     A
C731   O768    1.385   .     S
C732   C738    1.409   .     A
C732   C734    1.405   .     A
C733   H762    1.077   .     S
C733   C739    1.404   .     A
C734   H748    1.083   .     S
C734   C735    1.399   .     A
C735   H749    1.082   .     S
C735   C736    1.397   .     A
C736   C737    1.397   .     A
C736   H750    1.083   .     S
C737   H751    1.082   .     S
C737   C738    1.398   .     A
C738   H752    1.083   .     S
C739   C740    1.418   .     A
C739   C741    1.426   .     A
C740   C105    1.397   1_556 S
C741   C103    1.424   1_556 S
C742   C743    1.409   .     A
C743   C744    1.384   .     A
C743   H746    1.076   .     S
C744   H745    1.083   .     S
H753   O768    0.990   .     S
H754   O769    0.991   .     S
H757   C792    1.086   .     S
H758   C1149   1.088   1_545 S
H759   C937    1.086   .     S
O763   Zn779   1.939   .     S
O763   Zn778   1.970   .     S
O763   Zn780   1.936   .     S
O763   Zn781   1.926   .     S
O764   Zn779   1.935   .     S
O765   Zn781   1.948   .     S
O766   Zn780   1.937   .     S
O767   Zn778   1.926   .     S
O770   Zn778   1.925   .     S
O771   Zn781   1.933   .     S
O772   Zn779   1.925   .     S
O773   Zn780   1.938   .     S
O774   Zn781   1.931   .     S
O775   Zn778   1.921   .     S
O776   Zn779   1.941   .     S
O777   Zn780   1.929   .     S
C782   O845    1.267   .     A
C782   O843    1.268   .     A
C782   C792    1.438   .     S
C783   H818    1.077   .     S
C783   C784    1.385   .     A
C783   C812    1.414   .     A
C784   H832    1.084   .     S
C784   C147    1.392   1_556 S
C785   O844    1.287   .     A
C785   O846    1.282   .     A
C785   C791    1.457   .     S
C786   C787    1.421   .     A
C786   C788    1.398   .     A
C787   C790    1.426   .     A
C787   C813    1.427   .     A
C788   H826    1.084   .     S
C788   C789    1.386   .     A
C789   H831    1.084   .     S
C789   C801    1.395   .     A
C790   C801    1.411   .     A
C790   C803    1.494   .     S
C791   C650    1.336   1_655 S
C791   H685    1.088   1_655 S
C793   C800    1.419   .     A
C793   O840    1.378   .     S
C793   C802    1.410   .     A
C794   C797    1.450   .     S
C794   C1008   1.331   .     S
C794   H1042   1.088   .     S
C795   C796    1.435   .     S
C795   C1220   1.331   1_545 S
C795   H1256   1.086   1_545 S
C796   O847    1.279   .     A
C796   O841    1.279   .     A
C797   O848    1.268   .     A
C797   O842    1.270   .     A
C798   C801    1.452   .     S
C798   O837    1.273   .     A
C798   O835    1.271   .     A
C799   O836    1.279   .     A
C799   O838    1.291   .     A
C799   C800    1.479   .     S
C800   C804    1.396   .     A
C802   C811    1.409   .     A
C802   O839    1.385   .     S
C803   C809    1.409   .     A
C803   C805    1.405   .     A
C804   H833    1.077   .     S
C804   C810    1.404   .     A
C805   H819    1.083   .     S
C805   C806    1.399   .     A
C806   H820    1.082   .     S
C806   C807    1.397   .     A
C807   C808    1.397   .     A
C807   H821    1.083   .     S
C808   H822    1.082   .     S
C808   C809    1.398   .     A
C809   H823    1.083   .     S
C810   C811    1.418   .     A
C810   C812    1.426   .     A
C811   C176    1.397   1_556 S
C812   C174    1.424   1_556 S
C813   C814    1.409   .     A
C814   C815    1.384   .     A
C814   H817    1.076   .     S
C815   H816    1.083   .     S
H824   O839    0.990   .     S
H825   O840    0.991   .     S
H828   C650    1.086   1_655 S
H829   C1220   1.088   1_545 S
H830   C1008   1.086   .     S
O834   Zn850   1.939   .     S
O834   Zn849   1.970   .     S
O834   Zn851   1.936   .     S
O834   Zn852   1.926   .     S
O835   Zn850   1.935   .     S
O836   Zn852   1.948   .     S
O837   Zn851   1.937   .     S
O838   Zn849   1.926   .     S
O841   Zn849   1.925   .     S
O842   Zn852   1.933   .     S
O843   Zn850   1.925   .     S
O844   Zn851   1.938   .     S
O845   Zn852   1.931   .     S
O846   Zn849   1.921   .     S
O847   Zn850   1.941   .     S
O848   Zn851   1.929   .     S
C853   O916    1.267   .     A
C853   O914    1.268   .     A
C853   C863    1.438   .     S
C854   H889    1.077   .     S
C854   C855    1.385   .     A
C854   C883    1.414   .     A
C855   H903    1.084   .     S
C855   C218    1.392   1_556 S
C856   O915    1.287   .     A
C856   O917    1.282   .     A
C856   C862    1.457   .     S
C857   C858    1.421   .     A
C857   C859    1.398   .     A
C858   C861    1.426   .     A
C858   C884    1.427   .     A
C859   H897    1.084   .     S
C859   C860    1.386   .     A
C860   H902    1.084   .     S
C860   C872    1.395   .     A
C861   C872    1.411   .     A
C861   C874    1.494   .     S
C862   C934    1.336   .     S
C862   H969    1.088   .     S
C863   C1004   1.336   1_455 S
C863   H1041   1.086   1_455 S
C864   C871    1.419   .     A
C864   O911    1.378   .     S
C864   C873    1.410   .     A
C865   C868    1.450   .     S
C865   C1079   1.331   .     S
C865   H1113   1.088   .     S
C866   C867    1.435   .     S
C867   O918    1.279   .     A
C867   O912    1.279   .     A
C868   O919    1.268   .     A
C868   O913    1.270   .     A
C869   C872    1.452   .     S
C869   O908    1.273   .     A
C869   O906    1.271   .     A
C870   O907    1.279   .     A
C870   O909    1.291   .     A
C870   C871    1.479   .     S
C871   C875    1.396   .     A
C873   C882    1.409   .     A
C873   O910    1.385   .     S
C874   C880    1.409   .     A
C874   C876    1.405   .     A
C875   H904    1.077   .     S
C875   C881    1.404   .     A
C876   H890    1.083   .     S
C876   C877    1.399   .     A
C877   H891    1.082   .     S
C877   C878    1.397   .     A
C878   C879    1.397   .     A
C878   H892    1.083   .     S
C879   H893    1.082   .     S
C879   C880    1.398   .     A
C880   H894    1.083   .     S
C881   C882    1.418   .     A
C881   C883    1.426   .     A
C882   C247    1.397   1_556 S
C883   C245    1.424   1_556 S
C884   C885    1.409   .     A
C885   C886    1.384   .     A
C885   H888    1.076   .     S
C886   H887    1.083   .     S
H895   O910    0.990   .     S
H896   O911    0.991   .     S
H898   C1004   1.088   1_455 S
H899   C934    1.086   .     S
H901   C1079   1.086   .     S
O905   Zn921   1.939   .     S
O905   Zn920   1.970   .     S
O905   Zn922   1.936   .     S
O905   Zn923   1.926   .     S
O906   Zn921   1.935   .     S
O907   Zn923   1.948   .     S
O908   Zn922   1.937   .     S
O909   Zn920   1.926   .     S
O912   Zn920   1.925   .     S
O913   Zn923   1.933   .     S
O914   Zn921   1.925   .     S
O915   Zn922   1.938   .     S
O916   Zn923   1.931   .     S
O917   Zn920   1.921   .     S
O918   Zn921   1.941   .     S
O919   Zn922   1.929   .     S
C924   O987    1.267   .     A
C924   O985    1.268   .     A
C924   C934    1.438   .     S
C925   H960    1.077   .     S
C925   C926    1.385   .     A
C925   C954    1.414   .     A
C926   H974    1.084   .     S
C926   C289    1.392   1_556 S
C927   O986    1.287   .     A
C927   O988    1.282   .     A
C927   C933    1.457   .     S
C928   C929    1.421   .     A
C928   C930    1.398   .     A
C929   C932    1.426   .     A
C929   C955    1.427   .     A
C930   H968    1.084   .     S
C930   C931    1.386   .     A
C931   H973    1.084   .     S
C931   C943    1.395   .     A
C932   C943    1.411   .     A
C932   C945    1.494   .     S
C933   C1005   1.336   .     S
C933   H1040   1.088   .     S
C935   C942    1.419   .     A
C935   O982    1.378   .     S
C935   C944    1.410   .     A
C936   C939    1.450   .     S
C936   C1150   1.331   .     S
C936   H1184   1.088   .     S
C937   C938    1.435   .     S
C938   O989    1.279   .     A
C938   O983    1.279   .     A
C939   O990    1.268   .     A
C939   O984    1.270   .     A
C940   C943    1.452   .     S
C940   O979    1.273   .     A
C940   O977    1.271   .     A
C941   O978    1.279   .     A
C941   O980    1.291   .     A
C941   C942    1.479   .     S
C942   C946    1.396   .     A
C944   C953    1.409   .     A
C944   O981    1.385   .     S
C945   C951    1.409   .     A
C945   C947    1.405   .     A
C946   H975    1.077   .     S
C946   C952    1.404   .     A
C947   H961    1.083   .     S
C947   C948    1.399   .     A
C948   H962    1.082   .     S
C948   C949    1.397   .     A
C949   C950    1.397   .     A
C949   H963    1.083   .     S
C950   H964    1.082   .     S
C950   C951    1.398   .     A
C951   H965    1.083   .     S
C952   C953    1.418   .     A
C952   C954    1.426   .     A
C953   C318    1.397   1_556 S
C954   C316    1.424   1_556 S
C955   C956    1.409   .     A
C956   C957    1.384   .     A
C956   H959    1.076   .     S
C957   H958    1.083   .     S
H966   O981    0.990   .     S
H967   O982    0.991   .     S
H970   C1005   1.086   .     S
H972   C1150   1.086   .     S
O976   Zn992   1.939   .     S
O976   Zn991   1.970   .     S
O976   Zn993   1.936   .     S
O976   Zn994   1.926   .     S
O977   Zn992   1.935   .     S
O978   Zn994   1.948   .     S
O979   Zn993   1.937   .     S
O980   Zn991   1.926   .     S
O983   Zn991   1.925   .     S
O984   Zn994   1.933   .     S
O985   Zn992   1.925   .     S
O986   Zn993   1.938   .     S
O987   Zn994   1.931   .     S
O988   Zn991   1.921   .     S
O989   Zn992   1.941   .     S
O990   Zn993   1.929   .     S
C995   O1058   1.267   .     A
C995   O1056   1.268   .     A
C995   C1005   1.438   .     S
C996   H1031   1.077   .     S
C996   C997    1.385   .     A
C996   C1025   1.414   .     A
C997   H1045   1.084   .     S
C997   C360    1.392   1_556 S
C998   O1057   1.287   .     A
C998   O1059   1.282   .     A
C998   C1004   1.457   .     S
C999   C1000   1.421   .     A
C999   C1001   1.398   .     A
C1000  C1003   1.426   .     A
C1000  C1026   1.427   .     A
C1001  H1039   1.084   .     S
C1001  C1002   1.386   .     A
C1002  H1044   1.084   .     S
C1002  C1014   1.395   .     A
C1003  C1014   1.411   .     A
C1003  C1016   1.494   .     S
C1004  C863    1.336   1_655 S
C1004  H898    1.088   1_655 S
C1006  C1013   1.419   .     A
C1006  O1053   1.378   .     S
C1006  C1015   1.410   .     A
C1007  C1010   1.450   .     S
C1007  C1221   1.331   .     S
C1007  H1255   1.088   .     S
C1008  C1009   1.435   .     S
C1009  O1060   1.279   .     A
C1009  O1054   1.279   .     A
C1010  O1061   1.268   .     A
C1010  O1055   1.270   .     A
C1011  C1014   1.452   .     S
C1011  O1050   1.273   .     A
C1011  O1048   1.271   .     A
C1012  O1049   1.279   .     A
C1012  O1051   1.291   .     A
C1012  C1013   1.479   .     S
C1013  C1017   1.396   .     A
C1015  C1024   1.409   .     A
C1015  O1052   1.385   .     S
C1016  C1022   1.409   .     A
C1016  C1018   1.405   .     A
C1017  H1046   1.077   .     S
C1017  C1023   1.404   .     A
C1018  H1032   1.083   .     S
C1018  C1019   1.399   .     A
C1019  H1033   1.082   .     S
C1019  C1020   1.397   .     A
C1020  C1021   1.397   .     A
C1020  H1034   1.083   .     S
C1021  H1035   1.082   .     S
C1021  C1022   1.398   .     A
C1022  H1036   1.083   .     S
C1023  C1024   1.418   .     A
C1023  C1025   1.426   .     A
C1024  C389    1.397   1_556 S
C1025  C387    1.424   1_556 S
C1026  C1027   1.409   .     A
C1027  C1028   1.384   .     A
C1027  H1030   1.076   .     S
C1028  H1029   1.083   .     S
H1037  O1052   0.990   .     S
H1038  O1053   0.991   .     S
H1041  C863    1.086   1_655 S
H1043  C1221   1.086   .     S
O1047  Zn1063  1.939   .     S
O1047  Zn1062  1.970   .     S
O1047  Zn1064  1.936   .     S
O1047  Zn1065  1.926   .     S
O1048  Zn1063  1.935   .     S
O1049  Zn1065  1.948   .     S
O1050  Zn1064  1.937   .     S
O1051  Zn1062  1.926   .     S
O1054  Zn1062  1.925   .     S
O1055  Zn1065  1.933   .     S
O1056  Zn1063  1.925   .     S
O1057  Zn1064  1.938   .     S
O1058  Zn1065  1.931   .     S
O1059  Zn1062  1.921   .     S
O1060  Zn1063  1.941   .     S
O1061  Zn1064  1.929   .     S
C1066  O1129   1.267   .     A
C1066  O1127   1.268   .     A
C1066  C1076   1.438   .     S
C1067  H1102   1.077   .     S
C1067  C1068   1.385   .     A
C1067  C1096   1.414   .     A
C1068  H1116   1.084   .     S
C1068  C431    1.392   1_556 S
C1069  O1128   1.287   .     A
C1069  O1130   1.282   .     A
C1069  C1075   1.457   .     S
C1070  C1071   1.421   .     A
C1070  C1072   1.398   .     A
C1071  C1074   1.426   .     A
C1071  C1097   1.427   .     A
C1072  H1110   1.084   .     S
C1072  C1073   1.386   .     A
C1073  H1115   1.084   .     S
C1073  C1085   1.395   .     A
C1074  C1085   1.411   .     A
C1074  C1087   1.494   .     S
C1075  C1147   1.336   .     S
C1075  H1182   1.088   .     S
C1076  C1217   1.336   1_455 S
C1076  H1254   1.086   1_455 S
C1077  C1084   1.419   .     A
C1077  O1124   1.378   .     S
C1077  C1086   1.410   .     A
C1078  C1081   1.450   .     S
C1078  C653    1.331   1_565 S
C1078  H687    1.088   1_565 S
C1079  C1080   1.435   .     S
C1080  O1131   1.279   .     A
C1080  O1125   1.279   .     A
C1081  O1132   1.268   .     A
C1081  O1126   1.270   .     A
C1082  C1085   1.452   .     S
C1082  O1121   1.273   .     A
C1082  O1119   1.271   .     A
C1083  O1120   1.279   .     A
C1083  O1122   1.291   .     A
C1083  C1084   1.479   .     S
C1084  C1088   1.396   .     A
C1086  C1095   1.409   .     A
C1086  O1123   1.385   .     S
C1087  C1093   1.409   .     A
C1087  C1089   1.405   .     A
C1088  H1117   1.077   .     S
C1088  C1094   1.404   .     A
C1089  H1103   1.083   .     S
C1089  C1090   1.399   .     A
C1090  H1104   1.082   .     S
C1090  C1091   1.397   .     A
C1091  C1092   1.397   .     A
C1091  H1105   1.083   .     S
C1092  H1106   1.082   .     S
C1092  C1093   1.398   .     A
C1093  H1107   1.083   .     S
C1094  C1095   1.418   .     A
C1094  C1096   1.426   .     A
C1095  C460    1.397   1_556 S
C1096  C458    1.424   1_556 S
C1097  C1098   1.409   .     A
C1098  C1099   1.384   .     A
C1098  H1101   1.076   .     S
C1099  H1100   1.083   .     S
H1108  O1123   0.990   .     S
H1109  O1124   0.991   .     S
H1111  C1217   1.088   1_455 S
H1112  C1147   1.086   .     S
H1114  C653    1.086   1_565 S
O1118  Zn1134  1.939   .     S
O1118  Zn1133  1.970   .     S
O1118  Zn1135  1.936   .     S
O1118  Zn1136  1.926   .     S
O1119  Zn1134  1.935   .     S
O1120  Zn1136  1.948   .     S
O1121  Zn1135  1.937   .     S
O1122  Zn1133  1.926   .     S
O1125  Zn1133  1.925   .     S
O1126  Zn1136  1.933   .     S
O1127  Zn1134  1.925   .     S
O1128  Zn1135  1.938   .     S
O1129  Zn1136  1.931   .     S
O1130  Zn1133  1.921   .     S
O1131  Zn1134  1.941   .     S
O1132  Zn1135  1.929   .     S
C1137  O1200   1.267   .     A
C1137  O1198   1.268   .     A
C1137  C1147   1.438   .     S
C1138  H1173   1.077   .     S
C1138  C1139   1.385   .     A
C1138  C1167   1.414   .     A
C1139  H1187   1.084   .     S
C1139  C502    1.392   1_556 S
C1140  O1199   1.287   .     A
C1140  O1201   1.282   .     A
C1140  C1146   1.457   .     S
C1141  C1142   1.421   .     A
C1141  C1143   1.398   .     A
C1142  C1145   1.426   .     A
C1142  C1168   1.427   .     A
C1143  H1181   1.084   .     S
C1143  C1144   1.386   .     A
C1144  H1186   1.084   .     S
C1144  C1156   1.395   .     A
C1145  C1156   1.411   .     A
C1145  C1158   1.494   .     S
C1146  C1218   1.336   .     S
C1146  H1253   1.088   .     S
C1148  C1155   1.419   .     A
C1148  O1195   1.378   .     S
C1148  C1157   1.410   .     A
C1149  C1152   1.450   .     S
C1149  C724    1.331   1_565 S
C1149  H758    1.088   1_565 S
C1150  C1151   1.435   .     S
C1151  O1202   1.279   .     A
C1151  O1196   1.279   .     A
C1152  O1203   1.268   .     A
C1152  O1197   1.270   .     A
C1153  C1156   1.452   .     S
C1153  O1192   1.273   .     A
C1153  O1190   1.271   .     A
C1154  O1191   1.279   .     A
C1154  O1193   1.291   .     A
C1154  C1155   1.479   .     S
C1155  C1159   1.396   .     A
C1157  C1166   1.409   .     A
C1157  O1194   1.385   .     S
C1158  C1164   1.409   .     A
C1158  C1160   1.405   .     A
C1159  H1188   1.077   .     S
C1159  C1165   1.404   .     A
C1160  H1174   1.083   .     S
C1160  C1161   1.399   .     A
C1161  H1175   1.082   .     S
C1161  C1162   1.397   .     A
C1162  C1163   1.397   .     A
C1162  H1176   1.083   .     S
C1163  H1177   1.082   .     S
C1163  C1164   1.398   .     A
C1164  H1178   1.083   .     S
C1165  C1166   1.418   .     A
C1165  C1167   1.426   .     A
C1166  C531    1.397   1_556 S
C1167  C529    1.424   1_556 S
C1168  C1169   1.409   .     A
C1169  C1170   1.384   .     A
C1169  H1172   1.076   .     S
C1170  H1171   1.083   .     S
H1179  O1194   0.990   .     S
H1180  O1195   0.991   .     S
H1183  C1218   1.086   .     S
H1185  C724    1.086   1_565 S
O1189  Zn1205  1.939   .     S
O1189  Zn1204  1.970   .     S
O1189  Zn1206  1.936   .     S
O1189  Zn1207  1.926   .     S
O1190  Zn1205  1.935   .     S
O1191  Zn1207  1.948   .     S
O1192  Zn1206  1.937   .     S
O1193  Zn1204  1.926   .     S
O1196  Zn1204  1.925   .     S
O1197  Zn1207  1.933   .     S
O1198  Zn1205  1.925   .     S
O1199  Zn1206  1.938   .     S
O1200  Zn1207  1.931   .     S
O1201  Zn1204  1.921   .     S
O1202  Zn1205  1.941   .     S
O1203  Zn1206  1.929   .     S
C1208  O1271   1.267   .     A
C1208  O1269   1.268   .     A
C1208  C1218   1.438   .     S
C1209  H1244   1.077   .     S
C1209  C1210   1.385   .     A
C1209  C1238   1.414   .     A
C1210  H1258   1.084   .     S
C1210  C573    1.392   1_556 S
C1211  O1270   1.287   .     A
C1211  O1272   1.282   .     A
C1211  C1217   1.457   .     S
C1212  C1213   1.421   .     A
C1212  C1214   1.398   .     A
C1213  C1216   1.426   .     A
C1213  C1239   1.427   .     A
C1214  H1252   1.084   .     S
C1214  C1215   1.386   .     A
C1215  H1257   1.084   .     S
C1215  C1227   1.395   .     A
C1216  C1227   1.411   .     A
C1216  C1229   1.494   .     S
C1217  C1076   1.336   1_655 S
C1217  H1111   1.088   1_655 S
C1219  C1226   1.419   .     A
C1219  O1266   1.378   .     S
C1219  C1228   1.410   .     A
C1220  C1223   1.450   .     S
C1220  C795    1.331   1_565 S
C1220  H829    1.088   1_565 S
C1221  C1222   1.435   .     S
C1222  O1273   1.279   .     A
C1222  O1267   1.279   .     A
C1223  O1274   1.268   .     A
C1223  O1268   1.270   .     A
C1224  C1227   1.452   .     S
C1224  O1263   1.273   .     A
C1224  O1261   1.271   .     A
C1225  O1262   1.279   .     A
C1225  O1264   1.291   .     A
C1225  C1226   1.479   .     S
C1226  C1230   1.396   .     A
C1228  C1237   1.409   .     A
C1228  O1265   1.385   .     S
C1229  C1235   1.409   .     A
C1229  C1231   1.405   .     A
C1230  H1259   1.077   .     S
C1230  C1236   1.404   .     A
C1231  H1245   1.083   .     S
C1231  C1232   1.399   .     A
C1232  H1246   1.082   .     S
C1232  C1233   1.397   .     A
C1233  C1234   1.397   .     A
C1233  H1247   1.083   .     S
C1234  H1248   1.082   .     S
C1234  C1235   1.398   .     A
C1235  H1249   1.083   .     S
C1236  C1237   1.418   .     A
C1236  C1238   1.426   .     A
C1237  C602    1.397   1_556 S
C1238  C600    1.424   1_556 S
C1239  C1240   1.409   .     A
C1240  C1241   1.384   .     A
C1240  H1243   1.076   .     S
C1241  H1242   1.083   .     S
H1250  O1265   0.990   .     S
H1251  O1266   0.991   .     S
H1254  C1076   1.086   1_655 S
H1256  C795    1.086   1_565 S
O1260  Zn1276  1.939   .     S
O1260  Zn1275  1.970   .     S
O1260  Zn1277  1.936   .     S
O1260  Zn1278  1.926   .     S
O1261  Zn1276  1.935   .     S
O1262  Zn1278  1.948   .     S
O1263  Zn1277  1.937   .     S
O1264  Zn1275  1.926   .     S
O1267  Zn1275  1.925   .     S
O1268  Zn1278  1.933   .     S
O1269  Zn1276  1.925   .     S
O1270  Zn1277  1.938   .     S
O1271  Zn1278  1.931   .     S
O1272  Zn1275  1.921   .     S
O1273  Zn1276  1.941   .     S
O1274  Zn1277  1.929   .     S
