data_str_m1_o10_o16_pcu_sym.48
_audit_creation_date              2020-01-03
_audit_creation_method            'Materials Studio'
_symmetry_space_group_name_H-M    'P1'
_symmetry_Int_Tables_number       1
_symmetry_cell_setting            triclinic
loop_
_symmetry_equiv_pos_as_xyz
  x,y,z
_cell_length_a                    32.6286
_cell_length_b                    32.6152
_cell_length_c                    31.0365
_cell_angle_alpha                 96.4813
_cell_angle_beta                  74.7656
_cell_angle_gamma                 98.1696
loop_
_atom_site_label
_atom_site_type_symbol
_atom_site_fract_x
_atom_site_fract_y
_atom_site_fract_z
_atom_site_U_iso_or_equiv
_atom_site_adp_type
_atom_site_occupancy
C1     C     0.05302   0.15991   0.25998   0.00000  Uiso   1.00
C2     C     0.18012   0.16729   0.05741   0.00000  Uiso   1.00
C3     C     0.19928   0.09927   0.06273   0.00000  Uiso   1.00
C4     C     0.28068   0.17360   0.24020   0.00000  Uiso   1.00
C5     C     0.14316   0.19420   0.41952   0.00000  Uiso   1.00
C6     C     0.32636   0.17455   0.23562   0.00000  Uiso   1.00
C7     C     0.00794   0.15764   0.26547   0.00000  Uiso   1.00
C8     C     0.17842   0.32205   0.23587   0.00000  Uiso   1.00
C9     C     0.15181   0.01273   0.26538   0.00000  Uiso   1.00
C10    C     0.15639   0.05615   0.26018   0.00000  Uiso   1.00
C11    C     0.17626   0.27787   0.24029   0.00000  Uiso   1.00
C12    C     0.13632   0.24792   0.48080   0.00000  Uiso   1.00
C13    C     0.18523   0.14798   0.12953   0.00000  Uiso   1.00
C14    C     0.14811   0.18419   0.37103   0.00000  Uiso   1.00
C15    C     0.19435   0.08676   0.02000   0.00000  Uiso   1.00
C16    C     0.19149   0.13920   0.08161   0.00000  Uiso   1.00
C17    C     0.13367   0.23415   0.43754   0.00000  Uiso   1.00
C18    C     0.14965   0.22251   0.00637   0.00000  Uiso   1.00
C19    C     0.15877   0.18162   0.48980   0.00000  Uiso   1.00
C20    C     0.15289   0.16668   0.44671   0.00000  Uiso   1.00
C21    C     0.17331   0.15495   0.01458   0.00000  Uiso   1.00
C22    C     0.18020   0.11369   0.49638   0.00000  Uiso   1.00
C23    C     0.17092   0.09885   0.45582   0.00000  Uiso   1.00
C24    C     0.15641   0.12451   0.43196   0.00000  Uiso   1.00
H25    H     0.12577   0.25547   0.41741   0.00000  Uiso   1.00
H26    H     0.20730   0.07719   0.08194   0.00000  Uiso   1.00
H27    H     0.17413   0.06686   0.44280   0.00000  Uiso   1.00
H28    H     0.19969   0.05536   0.00625   0.00000  Uiso   1.00
H29    H     0.17410   0.19737   0.07428   0.00000  Uiso   1.00
H30    H     0.15217   0.23578   0.03904   0.00000  Uiso   1.00
H31    H     0.14713   0.11036   0.40224   0.00000  Uiso   1.00
I32    I     0.30621   0.13160   0.32672   0.00000  Uiso   1.00
I33    I     0.22545   0.01377   0.18007   0.00000  Uiso   1.00
I34    I     0.10511   0.32950   0.32538   0.00000  Uiso   1.00
I35    I     0.12272   0.30858   0.00667   0.00000  Uiso   1.00
I36    I     0.03538   0.20312   0.17912   0.00000  Uiso   1.00
O37    O     0.16667   0.16667   0.25000   0.00000  Uiso   1.00
O38    O     0.15451   0.12637   0.15459   0.00000  Uiso   1.00
O39    O     0.12940   0.20391   0.34968   0.00000  Uiso   1.00
O40    O     0.20824   0.17759   0.14606   0.00000  Uiso   1.00
O41    O     0.17451   0.15880   0.34968   0.00000  Uiso   1.00
O42    O     0.17930   0.08019   0.28214   0.00000  Uiso   1.00
O43    O     0.14632   0.26085   0.27014   0.00000  Uiso   1.00
O44    O     0.07412   0.13291   0.23413   0.00000  Uiso   1.00
O45    O     0.26693   0.19272   0.21361   0.00000  Uiso   1.00
O46    O     0.07071   0.18878   0.28213   0.00000  Uiso   1.00
O47    O     0.25491   0.15226   0.27014   0.00000  Uiso   1.00
O48    O     0.13760   0.06944   0.23413   0.00000  Uiso   1.00
O49    O     0.20345   0.25620   0.21361   0.00000  Uiso   1.00
Zn50   Zn    0.19338   0.13994   0.28734   0.00000  Uiso   1.00
Zn51   Zn    0.13379   0.12458   0.21876   0.00000  Uiso   1.00
Zn52   Zn    0.21056   0.19775   0.20657   0.00000  Uiso   1.00
Zn53   Zn    0.12893   0.20439   0.28734   0.00000  Uiso   1.00
C54    C     0.38635   0.15991   0.25998   0.00000  Uiso   1.00
C55    C     0.51345   0.16729   0.05741   0.00000  Uiso   1.00
C56    C     0.53262   0.09927   0.06273   0.00000  Uiso   1.00
C57    C     0.61402   0.17360   0.24020   0.00000  Uiso   1.00
C58    C     0.47649   0.19420   0.41952   0.00000  Uiso   1.00
C59    C     0.65970   0.17455   0.23562   0.00000  Uiso   1.00
C60    C     0.34128   0.15764   0.26547   0.00000  Uiso   1.00
C61    C     0.51175   0.32205   0.23587   0.00000  Uiso   1.00
C62    C     0.48514   0.01273   0.26538   0.00000  Uiso   1.00
C63    C     0.48972   0.05615   0.26018   0.00000  Uiso   1.00
C64    C     0.50959   0.27787   0.24029   0.00000  Uiso   1.00
C65    C     0.46966   0.24792   0.48080   0.00000  Uiso   1.00
C66    C     0.51856   0.14798   0.12953   0.00000  Uiso   1.00
C67    C     0.48144   0.18419   0.37103   0.00000  Uiso   1.00
C68    C     0.52768   0.08676   0.02000   0.00000  Uiso   1.00
C69    C     0.52482   0.13920   0.08161   0.00000  Uiso   1.00
C70    C     0.46700   0.23415   0.43754   0.00000  Uiso   1.00
C71    C     0.48298   0.22251   0.00637   0.00000  Uiso   1.00
C72    C     0.49210   0.18162   0.48980   0.00000  Uiso   1.00
C73    C     0.48622   0.16668   0.44671   0.00000  Uiso   1.00
C74    C     0.50664   0.15495   0.01458   0.00000  Uiso   1.00
C75    C     0.51353   0.11369   0.49638   0.00000  Uiso   1.00
C76    C     0.50426   0.09885   0.45582   0.00000  Uiso   1.00
C77    C     0.48974   0.12451   0.43196   0.00000  Uiso   1.00
H78    H     0.45911   0.25547   0.41741   0.00000  Uiso   1.00
H79    H     0.54063   0.07719   0.08194   0.00000  Uiso   1.00
H80    H     0.50746   0.06686   0.44280   0.00000  Uiso   1.00
H81    H     0.53303   0.05536   0.00625   0.00000  Uiso   1.00
H82    H     0.50744   0.19737   0.07428   0.00000  Uiso   1.00
H83    H     0.48551   0.23578   0.03904   0.00000  Uiso   1.00
H84    H     0.48046   0.11036   0.40224   0.00000  Uiso   1.00
I85    I     0.63955   0.13160   0.32672   0.00000  Uiso   1.00
I86    I     0.55878   0.01377   0.18007   0.00000  Uiso   1.00
I87    I     0.43844   0.32950   0.32538   0.00000  Uiso   1.00
I88    I     0.45605   0.30858   0.00667   0.00000  Uiso   1.00
I89    I     0.36871   0.20312   0.17912   0.00000  Uiso   1.00
O90    O     0.50000   0.16667   0.25000   0.00000  Uiso   1.00
O91    O     0.48784   0.12637   0.15459   0.00000  Uiso   1.00
O92    O     0.46274   0.20391   0.34968   0.00000  Uiso   1.00
O93    O     0.54157   0.17759   0.14606   0.00000  Uiso   1.00
O94    O     0.50785   0.15880   0.34968   0.00000  Uiso   1.00
O95    O     0.51264   0.08019   0.28214   0.00000  Uiso   1.00
O96    O     0.47965   0.26085   0.27014   0.00000  Uiso   1.00
O97    O     0.40745   0.13291   0.23413   0.00000  Uiso   1.00
O98    O     0.60026   0.19272   0.21361   0.00000  Uiso   1.00
O99    O     0.40405   0.18878   0.28213   0.00000  Uiso   1.00
O100   O     0.58824   0.15226   0.27014   0.00000  Uiso   1.00
O101   O     0.47093   0.06944   0.23413   0.00000  Uiso   1.00
O102   O     0.53678   0.25620   0.21361   0.00000  Uiso   1.00
Zn103  Zn    0.52672   0.13994   0.28734   0.00000  Uiso   1.00
Zn104  Zn    0.46713   0.12458   0.21876   0.00000  Uiso   1.00
Zn105  Zn    0.54389   0.19775   0.20657   0.00000  Uiso   1.00
Zn106  Zn    0.46226   0.20439   0.28734   0.00000  Uiso   1.00
C107   C     0.71969   0.15991   0.25998   0.00000  Uiso   1.00
C108   C     0.84679   0.16729   0.05741   0.00000  Uiso   1.00
C109   C     0.86595   0.09927   0.06273   0.00000  Uiso   1.00
C110   C     0.94735   0.17360   0.24020   0.00000  Uiso   1.00
C111   C     0.80982   0.19420   0.41952   0.00000  Uiso   1.00
C112   C     0.99303   0.17455   0.23562   0.00000  Uiso   1.00
C113   C     0.67461   0.15764   0.26547   0.00000  Uiso   1.00
C114   C     0.84508   0.32205   0.23587   0.00000  Uiso   1.00
C115   C     0.81848   0.01273   0.26538   0.00000  Uiso   1.00
C116   C     0.82305   0.05615   0.26018   0.00000  Uiso   1.00
C117   C     0.84293   0.27787   0.24029   0.00000  Uiso   1.00
C118   C     0.80299   0.24792   0.48080   0.00000  Uiso   1.00
C119   C     0.85190   0.14798   0.12953   0.00000  Uiso   1.00
C120   C     0.81478   0.18419   0.37103   0.00000  Uiso   1.00
C121   C     0.86102   0.08676   0.02000   0.00000  Uiso   1.00
C122   C     0.85815   0.13920   0.08161   0.00000  Uiso   1.00
C123   C     0.80033   0.23415   0.43754   0.00000  Uiso   1.00
C124   C     0.81631   0.22251   0.00637   0.00000  Uiso   1.00
C125   C     0.82543   0.18162   0.48980   0.00000  Uiso   1.00
C126   C     0.81955   0.16668   0.44671   0.00000  Uiso   1.00
C127   C     0.83997   0.15495   0.01458   0.00000  Uiso   1.00
C128   C     0.84686   0.11369   0.49638   0.00000  Uiso   1.00
C129   C     0.83759   0.09885   0.45582   0.00000  Uiso   1.00
C130   C     0.82308   0.12451   0.43196   0.00000  Uiso   1.00
H131   H     0.79244   0.25547   0.41741   0.00000  Uiso   1.00
H132   H     0.87396   0.07719   0.08194   0.00000  Uiso   1.00
H133   H     0.84079   0.06686   0.44280   0.00000  Uiso   1.00
H134   H     0.86636   0.05536   0.00625   0.00000  Uiso   1.00
H135   H     0.84077   0.19737   0.07428   0.00000  Uiso   1.00
H136   H     0.81884   0.23578   0.03904   0.00000  Uiso   1.00
H137   H     0.81379   0.11036   0.40224   0.00000  Uiso   1.00
I138   I     0.97288   0.13160   0.32672   0.00000  Uiso   1.00
I139   I     0.89212   0.01377   0.18007   0.00000  Uiso   1.00
I140   I     0.77177   0.32950   0.32538   0.00000  Uiso   1.00
I141   I     0.78939   0.30858   0.00667   0.00000  Uiso   1.00
I142   I     0.70205   0.20312   0.17912   0.00000  Uiso   1.00
O143   O     0.83333   0.16667   0.25000   0.00000  Uiso   1.00
O144   O     0.82118   0.12637   0.15459   0.00000  Uiso   1.00
O145   O     0.79607   0.20391   0.34968   0.00000  Uiso   1.00
O146   O     0.87491   0.17759   0.14606   0.00000  Uiso   1.00
O147   O     0.84118   0.15880   0.34968   0.00000  Uiso   1.00
O148   O     0.84597   0.08019   0.28214   0.00000  Uiso   1.00
O149   O     0.81298   0.26085   0.27014   0.00000  Uiso   1.00
O150   O     0.74078   0.13291   0.23413   0.00000  Uiso   1.00
O151   O     0.93360   0.19272   0.21361   0.00000  Uiso   1.00
O152   O     0.73738   0.18878   0.28213   0.00000  Uiso   1.00
O153   O     0.92158   0.15226   0.27014   0.00000  Uiso   1.00
O154   O     0.80426   0.06944   0.23413   0.00000  Uiso   1.00
O155   O     0.87012   0.25620   0.21361   0.00000  Uiso   1.00
Zn156  Zn    0.86005   0.13994   0.28734   0.00000  Uiso   1.00
Zn157  Zn    0.80046   0.12458   0.21876   0.00000  Uiso   1.00
Zn158  Zn    0.87723   0.19775   0.20657   0.00000  Uiso   1.00
Zn159  Zn    0.79560   0.20439   0.28734   0.00000  Uiso   1.00
C160   C     0.05302   0.49325   0.25998   0.00000  Uiso   1.00
C161   C     0.18012   0.50062   0.05741   0.00000  Uiso   1.00
C162   C     0.19928   0.43260   0.06273   0.00000  Uiso   1.00
C163   C     0.28068   0.50694   0.24020   0.00000  Uiso   1.00
C164   C     0.14316   0.52753   0.41952   0.00000  Uiso   1.00
C165   C     0.32636   0.50788   0.23562   0.00000  Uiso   1.00
C166   C     0.00794   0.49098   0.26547   0.00000  Uiso   1.00
C167   C     0.17842   0.65538   0.23587   0.00000  Uiso   1.00
C168   C     0.15181   0.34606   0.26538   0.00000  Uiso   1.00
C169   C     0.15639   0.38948   0.26018   0.00000  Uiso   1.00
C170   C     0.17626   0.61120   0.24029   0.00000  Uiso   1.00
C171   C     0.13632   0.58125   0.48080   0.00000  Uiso   1.00
C172   C     0.18523   0.48132   0.12953   0.00000  Uiso   1.00
C173   C     0.14811   0.51753   0.37103   0.00000  Uiso   1.00
C174   C     0.19435   0.42010   0.02000   0.00000  Uiso   1.00
C175   C     0.19149   0.47254   0.08161   0.00000  Uiso   1.00
C176   C     0.13367   0.56749   0.43754   0.00000  Uiso   1.00
C177   C     0.14965   0.55585   0.00637   0.00000  Uiso   1.00
C178   C     0.15877   0.51496   0.48980   0.00000  Uiso   1.00
C179   C     0.15289   0.50001   0.44671   0.00000  Uiso   1.00
C180   C     0.17331   0.48828   0.01458   0.00000  Uiso   1.00
C181   C     0.18020   0.44703   0.49638   0.00000  Uiso   1.00
C182   C     0.17092   0.43218   0.45582   0.00000  Uiso   1.00
C183   C     0.15641   0.45784   0.43196   0.00000  Uiso   1.00
H184   H     0.12577   0.58880   0.41741   0.00000  Uiso   1.00
H185   H     0.20730   0.41052   0.08194   0.00000  Uiso   1.00
H186   H     0.17413   0.40020   0.44280   0.00000  Uiso   1.00
H187   H     0.19969   0.38869   0.00625   0.00000  Uiso   1.00
H188   H     0.17410   0.53070   0.07428   0.00000  Uiso   1.00
H189   H     0.15217   0.56912   0.03904   0.00000  Uiso   1.00
H190   H     0.14713   0.44369   0.40224   0.00000  Uiso   1.00
I191   I     0.30621   0.46493   0.32672   0.00000  Uiso   1.00
I192   I     0.22545   0.34710   0.18007   0.00000  Uiso   1.00
I193   I     0.10511   0.66283   0.32538   0.00000  Uiso   1.00
I194   I     0.12272   0.64191   0.00667   0.00000  Uiso   1.00
I195   I     0.03538   0.53645   0.17912   0.00000  Uiso   1.00
O196   O     0.16667   0.50000   0.25000   0.00000  Uiso   1.00
O197   O     0.15451   0.45970   0.15459   0.00000  Uiso   1.00
O198   O     0.12940   0.53724   0.34968   0.00000  Uiso   1.00
O199   O     0.20824   0.51092   0.14606   0.00000  Uiso   1.00
O200   O     0.17451   0.49213   0.34968   0.00000  Uiso   1.00
O201   O     0.17930   0.41352   0.28214   0.00000  Uiso   1.00
O202   O     0.14632   0.59418   0.27014   0.00000  Uiso   1.00
O203   O     0.07412   0.46625   0.23413   0.00000  Uiso   1.00
O204   O     0.26693   0.52605   0.21361   0.00000  Uiso   1.00
O205   O     0.07071   0.52211   0.28213   0.00000  Uiso   1.00
O206   O     0.25491   0.48559   0.27014   0.00000  Uiso   1.00
O207   O     0.13760   0.40277   0.23413   0.00000  Uiso   1.00
O208   O     0.20345   0.58953   0.21361   0.00000  Uiso   1.00
Zn209  Zn    0.19338   0.47327   0.28734   0.00000  Uiso   1.00
Zn210  Zn    0.13379   0.45791   0.21876   0.00000  Uiso   1.00
Zn211  Zn    0.21056   0.53109   0.20657   0.00000  Uiso   1.00
Zn212  Zn    0.12893   0.53773   0.28734   0.00000  Uiso   1.00
C213   C     0.38635   0.49325   0.25998   0.00000  Uiso   1.00
C214   C     0.51345   0.50062   0.05741   0.00000  Uiso   1.00
C215   C     0.53262   0.43260   0.06273   0.00000  Uiso   1.00
C216   C     0.61402   0.50694   0.24020   0.00000  Uiso   1.00
C217   C     0.47649   0.52753   0.41952   0.00000  Uiso   1.00
C218   C     0.65970   0.50788   0.23562   0.00000  Uiso   1.00
C219   C     0.34128   0.49098   0.26547   0.00000  Uiso   1.00
C220   C     0.51175   0.65538   0.23587   0.00000  Uiso   1.00
C221   C     0.48514   0.34606   0.26538   0.00000  Uiso   1.00
C222   C     0.48972   0.38948   0.26018   0.00000  Uiso   1.00
C223   C     0.50959   0.61120   0.24029   0.00000  Uiso   1.00
C224   C     0.46966   0.58125   0.48080   0.00000  Uiso   1.00
C225   C     0.51856   0.48132   0.12953   0.00000  Uiso   1.00
C226   C     0.48144   0.51753   0.37103   0.00000  Uiso   1.00
C227   C     0.52768   0.42010   0.02000   0.00000  Uiso   1.00
C228   C     0.52482   0.47254   0.08161   0.00000  Uiso   1.00
C229   C     0.46700   0.56749   0.43754   0.00000  Uiso   1.00
C230   C     0.48298   0.55585   0.00637   0.00000  Uiso   1.00
C231   C     0.49210   0.51496   0.48980   0.00000  Uiso   1.00
C232   C     0.48622   0.50001   0.44671   0.00000  Uiso   1.00
C233   C     0.50664   0.48828   0.01458   0.00000  Uiso   1.00
C234   C     0.51353   0.44703   0.49638   0.00000  Uiso   1.00
C235   C     0.50426   0.43218   0.45582   0.00000  Uiso   1.00
C236   C     0.48974   0.45784   0.43196   0.00000  Uiso   1.00
H237   H     0.45911   0.58880   0.41741   0.00000  Uiso   1.00
H238   H     0.54063   0.41052   0.08194   0.00000  Uiso   1.00
H239   H     0.50746   0.40020   0.44280   0.00000  Uiso   1.00
H240   H     0.53303   0.38869   0.00625   0.00000  Uiso   1.00
H241   H     0.50744   0.53070   0.07428   0.00000  Uiso   1.00
H242   H     0.48551   0.56912   0.03904   0.00000  Uiso   1.00
H243   H     0.48046   0.44369   0.40224   0.00000  Uiso   1.00
I244   I     0.63955   0.46493   0.32672   0.00000  Uiso   1.00
I245   I     0.55878   0.34710   0.18007   0.00000  Uiso   1.00
I246   I     0.43844   0.66283   0.32538   0.00000  Uiso   1.00
I247   I     0.45605   0.64191   0.00667   0.00000  Uiso   1.00
I248   I     0.36871   0.53645   0.17912   0.00000  Uiso   1.00
O249   O     0.50000   0.50000   0.25000   0.00000  Uiso   1.00
O250   O     0.48784   0.45970   0.15459   0.00000  Uiso   1.00
O251   O     0.46274   0.53724   0.34968   0.00000  Uiso   1.00
O252   O     0.54157   0.51092   0.14606   0.00000  Uiso   1.00
O253   O     0.50785   0.49213   0.34968   0.00000  Uiso   1.00
O254   O     0.51264   0.41352   0.28214   0.00000  Uiso   1.00
O255   O     0.47965   0.59418   0.27014   0.00000  Uiso   1.00
O256   O     0.40745   0.46625   0.23413   0.00000  Uiso   1.00
O257   O     0.60026   0.52605   0.21361   0.00000  Uiso   1.00
O258   O     0.40405   0.52211   0.28213   0.00000  Uiso   1.00
O259   O     0.58824   0.48559   0.27014   0.00000  Uiso   1.00
O260   O     0.47093   0.40277   0.23413   0.00000  Uiso   1.00
O261   O     0.53678   0.58953   0.21361   0.00000  Uiso   1.00
Zn262  Zn    0.52672   0.47327   0.28734   0.00000  Uiso   1.00
Zn263  Zn    0.46713   0.45791   0.21876   0.00000  Uiso   1.00
Zn264  Zn    0.54389   0.53109   0.20657   0.00000  Uiso   1.00
Zn265  Zn    0.46226   0.53773   0.28734   0.00000  Uiso   1.00
C266   C     0.71969   0.49325   0.25998   0.00000  Uiso   1.00
C267   C     0.84679   0.50062   0.05741   0.00000  Uiso   1.00
C268   C     0.86595   0.43260   0.06273   0.00000  Uiso   1.00
C269   C     0.94735   0.50694   0.24020   0.00000  Uiso   1.00
C270   C     0.80982   0.52753   0.41952   0.00000  Uiso   1.00
C271   C     0.99303   0.50788   0.23562   0.00000  Uiso   1.00
C272   C     0.67461   0.49098   0.26547   0.00000  Uiso   1.00
C273   C     0.84508   0.65538   0.23587   0.00000  Uiso   1.00
C274   C     0.81848   0.34606   0.26538   0.00000  Uiso   1.00
C275   C     0.82305   0.38948   0.26018   0.00000  Uiso   1.00
C276   C     0.84293   0.61120   0.24029   0.00000  Uiso   1.00
C277   C     0.80299   0.58125   0.48080   0.00000  Uiso   1.00
C278   C     0.85190   0.48132   0.12953   0.00000  Uiso   1.00
C279   C     0.81478   0.51753   0.37103   0.00000  Uiso   1.00
C280   C     0.86102   0.42010   0.02000   0.00000  Uiso   1.00
C281   C     0.85815   0.47254   0.08161   0.00000  Uiso   1.00
C282   C     0.80033   0.56749   0.43754   0.00000  Uiso   1.00
C283   C     0.81631   0.55585   0.00637   0.00000  Uiso   1.00
C284   C     0.82543   0.51496   0.48980   0.00000  Uiso   1.00
C285   C     0.81955   0.50001   0.44671   0.00000  Uiso   1.00
C286   C     0.83997   0.48828   0.01458   0.00000  Uiso   1.00
C287   C     0.84686   0.44703   0.49638   0.00000  Uiso   1.00
C288   C     0.83759   0.43218   0.45582   0.00000  Uiso   1.00
C289   C     0.82308   0.45784   0.43196   0.00000  Uiso   1.00
H290   H     0.79244   0.58880   0.41741   0.00000  Uiso   1.00
H291   H     0.87396   0.41052   0.08194   0.00000  Uiso   1.00
H292   H     0.84079   0.40020   0.44280   0.00000  Uiso   1.00
H293   H     0.86636   0.38869   0.00625   0.00000  Uiso   1.00
H294   H     0.84077   0.53070   0.07428   0.00000  Uiso   1.00
H295   H     0.81884   0.56912   0.03904   0.00000  Uiso   1.00
H296   H     0.81379   0.44369   0.40224   0.00000  Uiso   1.00
I297   I     0.97288   0.46493   0.32672   0.00000  Uiso   1.00
I298   I     0.89212   0.34710   0.18007   0.00000  Uiso   1.00
I299   I     0.77177   0.66283   0.32538   0.00000  Uiso   1.00
I300   I     0.78939   0.64191   0.00667   0.00000  Uiso   1.00
I301   I     0.70205   0.53645   0.17912   0.00000  Uiso   1.00
O302   O     0.83333   0.50000   0.25000   0.00000  Uiso   1.00
O303   O     0.82118   0.45970   0.15459   0.00000  Uiso   1.00
O304   O     0.79607   0.53724   0.34968   0.00000  Uiso   1.00
O305   O     0.87491   0.51092   0.14606   0.00000  Uiso   1.00
O306   O     0.84118   0.49213   0.34968   0.00000  Uiso   1.00
O307   O     0.84597   0.41352   0.28214   0.00000  Uiso   1.00
O308   O     0.81298   0.59418   0.27014   0.00000  Uiso   1.00
O309   O     0.74078   0.46625   0.23413   0.00000  Uiso   1.00
O310   O     0.93360   0.52605   0.21361   0.00000  Uiso   1.00
O311   O     0.73738   0.52211   0.28213   0.00000  Uiso   1.00
O312   O     0.92158   0.48559   0.27014   0.00000  Uiso   1.00
O313   O     0.80426   0.40277   0.23413   0.00000  Uiso   1.00
O314   O     0.87012   0.58953   0.21361   0.00000  Uiso   1.00
Zn315  Zn    0.86005   0.47327   0.28734   0.00000  Uiso   1.00
Zn316  Zn    0.80046   0.45791   0.21876   0.00000  Uiso   1.00
Zn317  Zn    0.87723   0.53109   0.20657   0.00000  Uiso   1.00
Zn318  Zn    0.79560   0.53773   0.28734   0.00000  Uiso   1.00
C319   C     0.05302   0.82658   0.25998   0.00000  Uiso   1.00
C320   C     0.18012   0.83395   0.05741   0.00000  Uiso   1.00
C321   C     0.19928   0.76593   0.06273   0.00000  Uiso   1.00
C322   C     0.28068   0.84027   0.24020   0.00000  Uiso   1.00
C323   C     0.14316   0.86087   0.41952   0.00000  Uiso   1.00
C324   C     0.32636   0.84122   0.23562   0.00000  Uiso   1.00
C325   C     0.00794   0.82431   0.26547   0.00000  Uiso   1.00
C326   C     0.17842   0.98871   0.23587   0.00000  Uiso   1.00
C327   C     0.15181   0.67939   0.26538   0.00000  Uiso   1.00
C328   C     0.15639   0.72282   0.26018   0.00000  Uiso   1.00
C329   C     0.17626   0.94453   0.24029   0.00000  Uiso   1.00
C330   C     0.13632   0.91458   0.48080   0.00000  Uiso   1.00
C331   C     0.18523   0.81465   0.12953   0.00000  Uiso   1.00
C332   C     0.14811   0.85086   0.37103   0.00000  Uiso   1.00
C333   C     0.19435   0.75343   0.02000   0.00000  Uiso   1.00
C334   C     0.19149   0.80587   0.08161   0.00000  Uiso   1.00
C335   C     0.13367   0.90082   0.43754   0.00000  Uiso   1.00
C336   C     0.14965   0.88918   0.00637   0.00000  Uiso   1.00
C337   C     0.15877   0.84829   0.48980   0.00000  Uiso   1.00
C338   C     0.15289   0.83334   0.44671   0.00000  Uiso   1.00
C339   C     0.17331   0.82162   0.01458   0.00000  Uiso   1.00
C340   C     0.18020   0.78036   0.49638   0.00000  Uiso   1.00
C341   C     0.17092   0.76551   0.45582   0.00000  Uiso   1.00
C342   C     0.15641   0.79118   0.43196   0.00000  Uiso   1.00
H343   H     0.12577   0.92214   0.41741   0.00000  Uiso   1.00
H344   H     0.20730   0.74386   0.08194   0.00000  Uiso   1.00
H345   H     0.17413   0.73353   0.44280   0.00000  Uiso   1.00
H346   H     0.19969   0.72203   0.00625   0.00000  Uiso   1.00
H347   H     0.17410   0.86404   0.07428   0.00000  Uiso   1.00
H348   H     0.15217   0.90245   0.03904   0.00000  Uiso   1.00
H349   H     0.14713   0.77702   0.40224   0.00000  Uiso   1.00
I350   I     0.30621   0.79827   0.32672   0.00000  Uiso   1.00
I351   I     0.22545   0.68043   0.18007   0.00000  Uiso   1.00
I352   I     0.10511   0.99617   0.32538   0.00000  Uiso   1.00
I353   I     0.12272   0.97525   0.00667   0.00000  Uiso   1.00
I354   I     0.03538   0.86979   0.17912   0.00000  Uiso   1.00
O355   O     0.16667   0.83333   0.25000   0.00000  Uiso   1.00
O356   O     0.15451   0.79304   0.15459   0.00000  Uiso   1.00
O357   O     0.12940   0.87058   0.34968   0.00000  Uiso   1.00
O358   O     0.20824   0.84425   0.14606   0.00000  Uiso   1.00
O359   O     0.17451   0.82546   0.34968   0.00000  Uiso   1.00
O360   O     0.17930   0.74686   0.28214   0.00000  Uiso   1.00
O361   O     0.14632   0.92751   0.27014   0.00000  Uiso   1.00
O362   O     0.07412   0.79958   0.23413   0.00000  Uiso   1.00
O363   O     0.26693   0.85939   0.21361   0.00000  Uiso   1.00
O364   O     0.07071   0.85544   0.28213   0.00000  Uiso   1.00
O365   O     0.25491   0.81892   0.27014   0.00000  Uiso   1.00
O366   O     0.13760   0.73610   0.23413   0.00000  Uiso   1.00
O367   O     0.20345   0.92286   0.21361   0.00000  Uiso   1.00
Zn368  Zn    0.19338   0.80661   0.28734   0.00000  Uiso   1.00
Zn369  Zn    0.13379   0.79124   0.21876   0.00000  Uiso   1.00
Zn370  Zn    0.21056   0.86442   0.20657   0.00000  Uiso   1.00
Zn371  Zn    0.12893   0.87106   0.28734   0.00000  Uiso   1.00
C372   C     0.38635   0.82658   0.25998   0.00000  Uiso   1.00
C373   C     0.51345   0.83395   0.05741   0.00000  Uiso   1.00
C374   C     0.53262   0.76593   0.06273   0.00000  Uiso   1.00
C375   C     0.61402   0.84027   0.24020   0.00000  Uiso   1.00
C376   C     0.47649   0.86087   0.41952   0.00000  Uiso   1.00
C377   C     0.65970   0.84122   0.23562   0.00000  Uiso   1.00
C378   C     0.34128   0.82431   0.26547   0.00000  Uiso   1.00
C379   C     0.51175   0.98871   0.23587   0.00000  Uiso   1.00
C380   C     0.48514   0.67939   0.26538   0.00000  Uiso   1.00
C381   C     0.48972   0.72282   0.26018   0.00000  Uiso   1.00
C382   C     0.50959   0.94453   0.24029   0.00000  Uiso   1.00
C383   C     0.46966   0.91458   0.48080   0.00000  Uiso   1.00
C384   C     0.51856   0.81465   0.12953   0.00000  Uiso   1.00
C385   C     0.48144   0.85086   0.37103   0.00000  Uiso   1.00
C386   C     0.52768   0.75343   0.02000   0.00000  Uiso   1.00
C387   C     0.52482   0.80587   0.08161   0.00000  Uiso   1.00
C388   C     0.46700   0.90082   0.43754   0.00000  Uiso   1.00
C389   C     0.48298   0.88918   0.00637   0.00000  Uiso   1.00
C390   C     0.49210   0.84829   0.48980   0.00000  Uiso   1.00
C391   C     0.48622   0.83334   0.44671   0.00000  Uiso   1.00
C392   C     0.50664   0.82162   0.01458   0.00000  Uiso   1.00
C393   C     0.51353   0.78036   0.49638   0.00000  Uiso   1.00
C394   C     0.50426   0.76551   0.45582   0.00000  Uiso   1.00
C395   C     0.48974   0.79118   0.43196   0.00000  Uiso   1.00
H396   H     0.45911   0.92214   0.41741   0.00000  Uiso   1.00
H397   H     0.54063   0.74386   0.08194   0.00000  Uiso   1.00
H398   H     0.50746   0.73353   0.44280   0.00000  Uiso   1.00
H399   H     0.53303   0.72203   0.00625   0.00000  Uiso   1.00
H400   H     0.50744   0.86404   0.07428   0.00000  Uiso   1.00
H401   H     0.48551   0.90245   0.03904   0.00000  Uiso   1.00
H402   H     0.48046   0.77702   0.40224   0.00000  Uiso   1.00
I403   I     0.63955   0.79827   0.32672   0.00000  Uiso   1.00
I404   I     0.55878   0.68043   0.18007   0.00000  Uiso   1.00
I405   I     0.43844   0.99617   0.32538   0.00000  Uiso   1.00
I406   I     0.45605   0.97525   0.00667   0.00000  Uiso   1.00
I407   I     0.36871   0.86979   0.17912   0.00000  Uiso   1.00
O408   O     0.50000   0.83333   0.25000   0.00000  Uiso   1.00
O409   O     0.48784   0.79304   0.15459   0.00000  Uiso   1.00
O410   O     0.46274   0.87058   0.34968   0.00000  Uiso   1.00
O411   O     0.54157   0.84425   0.14606   0.00000  Uiso   1.00
O412   O     0.50785   0.82546   0.34968   0.00000  Uiso   1.00
O413   O     0.51264   0.74686   0.28214   0.00000  Uiso   1.00
O414   O     0.47965   0.92751   0.27014   0.00000  Uiso   1.00
O415   O     0.40745   0.79958   0.23413   0.00000  Uiso   1.00
O416   O     0.60026   0.85939   0.21361   0.00000  Uiso   1.00
O417   O     0.40405   0.85544   0.28213   0.00000  Uiso   1.00
O418   O     0.58824   0.81892   0.27014   0.00000  Uiso   1.00
O419   O     0.47093   0.73610   0.23413   0.00000  Uiso   1.00
O420   O     0.53678   0.92286   0.21361   0.00000  Uiso   1.00
Zn421  Zn    0.52672   0.80661   0.28734   0.00000  Uiso   1.00
Zn422  Zn    0.46713   0.79124   0.21876   0.00000  Uiso   1.00
Zn423  Zn    0.54389   0.86442   0.20657   0.00000  Uiso   1.00
Zn424  Zn    0.46226   0.87106   0.28734   0.00000  Uiso   1.00
C425   C     0.71969   0.82658   0.25998   0.00000  Uiso   1.00
C426   C     0.84679   0.83395   0.05741   0.00000  Uiso   1.00
C427   C     0.86595   0.76593   0.06273   0.00000  Uiso   1.00
C428   C     0.94735   0.84027   0.24020   0.00000  Uiso   1.00
C429   C     0.80982   0.86087   0.41952   0.00000  Uiso   1.00
C430   C     0.99303   0.84122   0.23562   0.00000  Uiso   1.00
C431   C     0.67461   0.82431   0.26547   0.00000  Uiso   1.00
C432   C     0.84508   0.98871   0.23587   0.00000  Uiso   1.00
C433   C     0.81848   0.67939   0.26538   0.00000  Uiso   1.00
C434   C     0.82305   0.72282   0.26018   0.00000  Uiso   1.00
C435   C     0.84293   0.94453   0.24029   0.00000  Uiso   1.00
C436   C     0.80299   0.91458   0.48080   0.00000  Uiso   1.00
C437   C     0.85190   0.81465   0.12953   0.00000  Uiso   1.00
C438   C     0.81478   0.85086   0.37103   0.00000  Uiso   1.00
C439   C     0.86102   0.75343   0.02000   0.00000  Uiso   1.00
C440   C     0.85815   0.80587   0.08161   0.00000  Uiso   1.00
C441   C     0.80033   0.90082   0.43754   0.00000  Uiso   1.00
C442   C     0.81631   0.88918   0.00637   0.00000  Uiso   1.00
C443   C     0.82543   0.84829   0.48980   0.00000  Uiso   1.00
C444   C     0.81955   0.83334   0.44671   0.00000  Uiso   1.00
C445   C     0.83997   0.82162   0.01458   0.00000  Uiso   1.00
C446   C     0.84686   0.78036   0.49638   0.00000  Uiso   1.00
C447   C     0.83759   0.76551   0.45582   0.00000  Uiso   1.00
C448   C     0.82308   0.79118   0.43196   0.00000  Uiso   1.00
H449   H     0.79244   0.92214   0.41741   0.00000  Uiso   1.00
H450   H     0.87396   0.74386   0.08194   0.00000  Uiso   1.00
H451   H     0.84079   0.73353   0.44280   0.00000  Uiso   1.00
H452   H     0.86636   0.72203   0.00625   0.00000  Uiso   1.00
H453   H     0.84077   0.86404   0.07428   0.00000  Uiso   1.00
H454   H     0.81884   0.90245   0.03904   0.00000  Uiso   1.00
H455   H     0.81379   0.77702   0.40224   0.00000  Uiso   1.00
I456   I     0.97288   0.79827   0.32672   0.00000  Uiso   1.00
I457   I     0.89212   0.68043   0.18007   0.00000  Uiso   1.00
I458   I     0.77177   0.99617   0.32538   0.00000  Uiso   1.00
I459   I     0.78939   0.97525   0.00667   0.00000  Uiso   1.00
I460   I     0.70205   0.86979   0.17912   0.00000  Uiso   1.00
O461   O     0.83333   0.83333   0.25000   0.00000  Uiso   1.00
O462   O     0.82118   0.79304   0.15459   0.00000  Uiso   1.00
O463   O     0.79607   0.87058   0.34968   0.00000  Uiso   1.00
O464   O     0.87491   0.84425   0.14606   0.00000  Uiso   1.00
O465   O     0.84118   0.82546   0.34968   0.00000  Uiso   1.00
O466   O     0.84597   0.74686   0.28214   0.00000  Uiso   1.00
O467   O     0.81298   0.92751   0.27014   0.00000  Uiso   1.00
O468   O     0.74078   0.79958   0.23413   0.00000  Uiso   1.00
O469   O     0.93360   0.85939   0.21361   0.00000  Uiso   1.00
O470   O     0.73738   0.85544   0.28213   0.00000  Uiso   1.00
O471   O     0.92158   0.81892   0.27014   0.00000  Uiso   1.00
O472   O     0.80426   0.73610   0.23413   0.00000  Uiso   1.00
O473   O     0.87012   0.92286   0.21361   0.00000  Uiso   1.00
Zn474  Zn    0.86005   0.80661   0.28734   0.00000  Uiso   1.00
Zn475  Zn    0.80046   0.79124   0.21876   0.00000  Uiso   1.00
Zn476  Zn    0.87723   0.86442   0.20657   0.00000  Uiso   1.00
Zn477  Zn    0.79560   0.87106   0.28734   0.00000  Uiso   1.00
C478   C     0.05302   0.15991   0.75998   0.00000  Uiso   1.00
C479   C     0.18012   0.16729   0.55741   0.00000  Uiso   1.00
C480   C     0.19928   0.09927   0.56273   0.00000  Uiso   1.00
C481   C     0.28068   0.17360   0.74020   0.00000  Uiso   1.00
C482   C     0.14316   0.19420   0.91952   0.00000  Uiso   1.00
C483   C     0.32636   0.17455   0.73562   0.00000  Uiso   1.00
C484   C     0.00794   0.15764   0.76547   0.00000  Uiso   1.00
C485   C     0.17842   0.32205   0.73587   0.00000  Uiso   1.00
C486   C     0.15181   0.01273   0.76538   0.00000  Uiso   1.00
C487   C     0.15639   0.05615   0.76018   0.00000  Uiso   1.00
C488   C     0.17626   0.27787   0.74029   0.00000  Uiso   1.00
C489   C     0.13632   0.24792   0.98080   0.00000  Uiso   1.00
C490   C     0.18523   0.14798   0.62953   0.00000  Uiso   1.00
C491   C     0.14811   0.18419   0.87103   0.00000  Uiso   1.00
C492   C     0.19435   0.08676   0.52000   0.00000  Uiso   1.00
C493   C     0.19149   0.13920   0.58161   0.00000  Uiso   1.00
C494   C     0.13367   0.23415   0.93754   0.00000  Uiso   1.00
C495   C     0.14965   0.22251   0.50637   0.00000  Uiso   1.00
C496   C     0.15877   0.18162   0.98980   0.00000  Uiso   1.00
C497   C     0.15289   0.16668   0.94671   0.00000  Uiso   1.00
C498   C     0.17331   0.15495   0.51458   0.00000  Uiso   1.00
C499   C     0.18020   0.11369   0.99638   0.00000  Uiso   1.00
C500   C     0.17092   0.09885   0.95582   0.00000  Uiso   1.00
C501   C     0.15641   0.12451   0.93196   0.00000  Uiso   1.00
H502   H     0.12577   0.25547   0.91741   0.00000  Uiso   1.00
H503   H     0.20730   0.07719   0.58194   0.00000  Uiso   1.00
H504   H     0.17413   0.06686   0.94280   0.00000  Uiso   1.00
H505   H     0.19969   0.05536   0.50625   0.00000  Uiso   1.00
H506   H     0.17410   0.19737   0.57428   0.00000  Uiso   1.00
H507   H     0.15217   0.23578   0.53904   0.00000  Uiso   1.00
H508   H     0.14713   0.11036   0.90224   0.00000  Uiso   1.00
I509   I     0.30621   0.13160   0.82672   0.00000  Uiso   1.00
I510   I     0.22545   0.01377   0.68007   0.00000  Uiso   1.00
I511   I     0.10511   0.32950   0.82538   0.00000  Uiso   1.00
I512   I     0.12272   0.30858   0.50667   0.00000  Uiso   1.00
I513   I     0.03538   0.20312   0.67912   0.00000  Uiso   1.00
O514   O     0.16667   0.16667   0.75000   0.00000  Uiso   1.00
O515   O     0.15451   0.12637   0.65459   0.00000  Uiso   1.00
O516   O     0.12940   0.20391   0.84968   0.00000  Uiso   1.00
O517   O     0.20824   0.17759   0.64606   0.00000  Uiso   1.00
O518   O     0.17451   0.15880   0.84968   0.00000  Uiso   1.00
O519   O     0.17930   0.08019   0.78214   0.00000  Uiso   1.00
O520   O     0.14632   0.26085   0.77014   0.00000  Uiso   1.00
O521   O     0.07412   0.13291   0.73413   0.00000  Uiso   1.00
O522   O     0.26693   0.19272   0.71361   0.00000  Uiso   1.00
O523   O     0.07071   0.18878   0.78213   0.00000  Uiso   1.00
O524   O     0.25491   0.15226   0.77014   0.00000  Uiso   1.00
O525   O     0.13760   0.06944   0.73413   0.00000  Uiso   1.00
O526   O     0.20345   0.25620   0.71361   0.00000  Uiso   1.00
Zn527  Zn    0.19338   0.13994   0.78734   0.00000  Uiso   1.00
Zn528  Zn    0.13379   0.12458   0.71876   0.00000  Uiso   1.00
Zn529  Zn    0.21056   0.19775   0.70657   0.00000  Uiso   1.00
Zn530  Zn    0.12893   0.20439   0.78734   0.00000  Uiso   1.00
C531   C     0.38635   0.15991   0.75998   0.00000  Uiso   1.00
C532   C     0.51345   0.16729   0.55741   0.00000  Uiso   1.00
C533   C     0.53262   0.09927   0.56273   0.00000  Uiso   1.00
C534   C     0.61402   0.17360   0.74020   0.00000  Uiso   1.00
C535   C     0.47649   0.19420   0.91952   0.00000  Uiso   1.00
C536   C     0.65970   0.17455   0.73562   0.00000  Uiso   1.00
C537   C     0.34128   0.15764   0.76547   0.00000  Uiso   1.00
C538   C     0.51175   0.32205   0.73587   0.00000  Uiso   1.00
C539   C     0.48514   0.01273   0.76538   0.00000  Uiso   1.00
C540   C     0.48972   0.05615   0.76018   0.00000  Uiso   1.00
C541   C     0.50959   0.27787   0.74029   0.00000  Uiso   1.00
C542   C     0.46966   0.24792   0.98080   0.00000  Uiso   1.00
C543   C     0.51856   0.14798   0.62953   0.00000  Uiso   1.00
C544   C     0.48144   0.18419   0.87103   0.00000  Uiso   1.00
C545   C     0.52768   0.08676   0.52000   0.00000  Uiso   1.00
C546   C     0.52482   0.13920   0.58161   0.00000  Uiso   1.00
C547   C     0.46700   0.23415   0.93754   0.00000  Uiso   1.00
C548   C     0.48298   0.22251   0.50637   0.00000  Uiso   1.00
C549   C     0.49210   0.18162   0.98980   0.00000  Uiso   1.00
C550   C     0.48622   0.16668   0.94671   0.00000  Uiso   1.00
C551   C     0.50664   0.15495   0.51458   0.00000  Uiso   1.00
C552   C     0.51353   0.11369   0.99638   0.00000  Uiso   1.00
C553   C     0.50426   0.09885   0.95582   0.00000  Uiso   1.00
C554   C     0.48974   0.12451   0.93196   0.00000  Uiso   1.00
H555   H     0.45911   0.25547   0.91741   0.00000  Uiso   1.00
H556   H     0.54063   0.07719   0.58194   0.00000  Uiso   1.00
H557   H     0.50746   0.06686   0.94280   0.00000  Uiso   1.00
H558   H     0.53303   0.05536   0.50625   0.00000  Uiso   1.00
H559   H     0.50744   0.19737   0.57428   0.00000  Uiso   1.00
H560   H     0.48551   0.23578   0.53904   0.00000  Uiso   1.00
H561   H     0.48046   0.11036   0.90224   0.00000  Uiso   1.00
I562   I     0.63955   0.13160   0.82672   0.00000  Uiso   1.00
I563   I     0.55878   0.01377   0.68007   0.00000  Uiso   1.00
I564   I     0.43844   0.32950   0.82538   0.00000  Uiso   1.00
I565   I     0.45605   0.30858   0.50667   0.00000  Uiso   1.00
I566   I     0.36871   0.20312   0.67912   0.00000  Uiso   1.00
O567   O     0.50000   0.16667   0.75000   0.00000  Uiso   1.00
O568   O     0.48784   0.12637   0.65459   0.00000  Uiso   1.00
O569   O     0.46274   0.20391   0.84968   0.00000  Uiso   1.00
O570   O     0.54157   0.17759   0.64606   0.00000  Uiso   1.00
O571   O     0.50785   0.15880   0.84968   0.00000  Uiso   1.00
O572   O     0.51264   0.08019   0.78214   0.00000  Uiso   1.00
O573   O     0.47965   0.26085   0.77014   0.00000  Uiso   1.00
O574   O     0.40745   0.13291   0.73413   0.00000  Uiso   1.00
O575   O     0.60026   0.19272   0.71361   0.00000  Uiso   1.00
O576   O     0.40405   0.18878   0.78213   0.00000  Uiso   1.00
O577   O     0.58824   0.15226   0.77014   0.00000  Uiso   1.00
O578   O     0.47093   0.06944   0.73413   0.00000  Uiso   1.00
O579   O     0.53678   0.25620   0.71361   0.00000  Uiso   1.00
Zn580  Zn    0.52672   0.13994   0.78734   0.00000  Uiso   1.00
Zn581  Zn    0.46713   0.12458   0.71876   0.00000  Uiso   1.00
Zn582  Zn    0.54389   0.19775   0.70657   0.00000  Uiso   1.00
Zn583  Zn    0.46226   0.20439   0.78734   0.00000  Uiso   1.00
C584   C     0.71969   0.15991   0.75998   0.00000  Uiso   1.00
C585   C     0.84679   0.16729   0.55741   0.00000  Uiso   1.00
C586   C     0.86595   0.09927   0.56273   0.00000  Uiso   1.00
C587   C     0.94735   0.17360   0.74020   0.00000  Uiso   1.00
C588   C     0.80982   0.19420   0.91952   0.00000  Uiso   1.00
C589   C     0.99303   0.17455   0.73562   0.00000  Uiso   1.00
C590   C     0.67461   0.15764   0.76547   0.00000  Uiso   1.00
C591   C     0.84508   0.32205   0.73587   0.00000  Uiso   1.00
C592   C     0.81848   0.01273   0.76538   0.00000  Uiso   1.00
C593   C     0.82305   0.05615   0.76018   0.00000  Uiso   1.00
C594   C     0.84293   0.27787   0.74029   0.00000  Uiso   1.00
C595   C     0.80299   0.24792   0.98080   0.00000  Uiso   1.00
C596   C     0.85190   0.14798   0.62953   0.00000  Uiso   1.00
C597   C     0.81478   0.18419   0.87103   0.00000  Uiso   1.00
C598   C     0.86102   0.08676   0.52000   0.00000  Uiso   1.00
C599   C     0.85815   0.13920   0.58161   0.00000  Uiso   1.00
C600   C     0.80033   0.23415   0.93754   0.00000  Uiso   1.00
C601   C     0.81631   0.22251   0.50637   0.00000  Uiso   1.00
C602   C     0.82543   0.18162   0.98980   0.00000  Uiso   1.00
C603   C     0.81955   0.16668   0.94671   0.00000  Uiso   1.00
C604   C     0.83997   0.15495   0.51458   0.00000  Uiso   1.00
C605   C     0.84686   0.11369   0.99638   0.00000  Uiso   1.00
C606   C     0.83759   0.09885   0.95582   0.00000  Uiso   1.00
C607   C     0.82308   0.12451   0.93196   0.00000  Uiso   1.00
H608   H     0.79244   0.25547   0.91741   0.00000  Uiso   1.00
H609   H     0.87396   0.07719   0.58194   0.00000  Uiso   1.00
H610   H     0.84079   0.06686   0.94280   0.00000  Uiso   1.00
H611   H     0.86636   0.05536   0.50625   0.00000  Uiso   1.00
H612   H     0.84077   0.19737   0.57428   0.00000  Uiso   1.00
H613   H     0.81884   0.23578   0.53904   0.00000  Uiso   1.00
H614   H     0.81379   0.11036   0.90224   0.00000  Uiso   1.00
I615   I     0.97288   0.13160   0.82672   0.00000  Uiso   1.00
I616   I     0.89212   0.01377   0.68007   0.00000  Uiso   1.00
I617   I     0.77177   0.32950   0.82538   0.00000  Uiso   1.00
I618   I     0.78939   0.30858   0.50667   0.00000  Uiso   1.00
I619   I     0.70205   0.20312   0.67912   0.00000  Uiso   1.00
O620   O     0.83333   0.16667   0.75000   0.00000  Uiso   1.00
O621   O     0.82118   0.12637   0.65459   0.00000  Uiso   1.00
O622   O     0.79607   0.20391   0.84968   0.00000  Uiso   1.00
O623   O     0.87491   0.17759   0.64606   0.00000  Uiso   1.00
O624   O     0.84118   0.15880   0.84968   0.00000  Uiso   1.00
O625   O     0.84597   0.08019   0.78214   0.00000  Uiso   1.00
O626   O     0.81298   0.26085   0.77014   0.00000  Uiso   1.00
O627   O     0.74078   0.13291   0.73413   0.00000  Uiso   1.00
O628   O     0.93360   0.19272   0.71361   0.00000  Uiso   1.00
O629   O     0.73738   0.18878   0.78213   0.00000  Uiso   1.00
O630   O     0.92158   0.15226   0.77014   0.00000  Uiso   1.00
O631   O     0.80426   0.06944   0.73413   0.00000  Uiso   1.00
O632   O     0.87012   0.25620   0.71361   0.00000  Uiso   1.00
Zn633  Zn    0.86005   0.13994   0.78734   0.00000  Uiso   1.00
Zn634  Zn    0.80046   0.12458   0.71876   0.00000  Uiso   1.00
Zn635  Zn    0.87723   0.19775   0.70657   0.00000  Uiso   1.00
Zn636  Zn    0.79560   0.20439   0.78734   0.00000  Uiso   1.00
C637   C     0.05302   0.49325   0.75998   0.00000  Uiso   1.00
C638   C     0.18012   0.50062   0.55741   0.00000  Uiso   1.00
C639   C     0.19928   0.43260   0.56273   0.00000  Uiso   1.00
C640   C     0.28068   0.50694   0.74020   0.00000  Uiso   1.00
C641   C     0.14316   0.52753   0.91952   0.00000  Uiso   1.00
C642   C     0.32636   0.50788   0.73562   0.00000  Uiso   1.00
C643   C     0.00794   0.49098   0.76547   0.00000  Uiso   1.00
C644   C     0.17842   0.65538   0.73587   0.00000  Uiso   1.00
C645   C     0.15181   0.34606   0.76538   0.00000  Uiso   1.00
C646   C     0.15639   0.38948   0.76018   0.00000  Uiso   1.00
C647   C     0.17626   0.61120   0.74029   0.00000  Uiso   1.00
C648   C     0.13632   0.58125   0.98080   0.00000  Uiso   1.00
C649   C     0.18523   0.48132   0.62953   0.00000  Uiso   1.00
C650   C     0.14811   0.51753   0.87103   0.00000  Uiso   1.00
C651   C     0.19435   0.42010   0.52000   0.00000  Uiso   1.00
C652   C     0.19149   0.47254   0.58161   0.00000  Uiso   1.00
C653   C     0.13367   0.56749   0.93754   0.00000  Uiso   1.00
C654   C     0.14965   0.55585   0.50637   0.00000  Uiso   1.00
C655   C     0.15877   0.51496   0.98980   0.00000  Uiso   1.00
C656   C     0.15289   0.50001   0.94671   0.00000  Uiso   1.00
C657   C     0.17331   0.48828   0.51458   0.00000  Uiso   1.00
C658   C     0.18020   0.44703   0.99638   0.00000  Uiso   1.00
C659   C     0.17092   0.43218   0.95582   0.00000  Uiso   1.00
C660   C     0.15641   0.45784   0.93196   0.00000  Uiso   1.00
H661   H     0.12577   0.58880   0.91741   0.00000  Uiso   1.00
H662   H     0.20730   0.41052   0.58194   0.00000  Uiso   1.00
H663   H     0.17413   0.40020   0.94280   0.00000  Uiso   1.00
H664   H     0.19969   0.38869   0.50625   0.00000  Uiso   1.00
H665   H     0.17410   0.53070   0.57428   0.00000  Uiso   1.00
H666   H     0.15217   0.56912   0.53904   0.00000  Uiso   1.00
H667   H     0.14713   0.44369   0.90224   0.00000  Uiso   1.00
I668   I     0.30621   0.46493   0.82672   0.00000  Uiso   1.00
I669   I     0.22545   0.34710   0.68007   0.00000  Uiso   1.00
I670   I     0.10511   0.66283   0.82538   0.00000  Uiso   1.00
I671   I     0.12272   0.64191   0.50667   0.00000  Uiso   1.00
I672   I     0.03538   0.53645   0.67912   0.00000  Uiso   1.00
O673   O     0.16667   0.50000   0.75000   0.00000  Uiso   1.00
O674   O     0.15451   0.45970   0.65459   0.00000  Uiso   1.00
O675   O     0.12940   0.53724   0.84968   0.00000  Uiso   1.00
O676   O     0.20824   0.51092   0.64606   0.00000  Uiso   1.00
O677   O     0.17451   0.49213   0.84968   0.00000  Uiso   1.00
O678   O     0.17930   0.41352   0.78214   0.00000  Uiso   1.00
O679   O     0.14632   0.59418   0.77014   0.00000  Uiso   1.00
O680   O     0.07412   0.46625   0.73413   0.00000  Uiso   1.00
O681   O     0.26693   0.52605   0.71361   0.00000  Uiso   1.00
O682   O     0.07071   0.52211   0.78213   0.00000  Uiso   1.00
O683   O     0.25491   0.48559   0.77014   0.00000  Uiso   1.00
O684   O     0.13760   0.40277   0.73413   0.00000  Uiso   1.00
O685   O     0.20345   0.58953   0.71361   0.00000  Uiso   1.00
Zn686  Zn    0.19338   0.47327   0.78734   0.00000  Uiso   1.00
Zn687  Zn    0.13379   0.45791   0.71876   0.00000  Uiso   1.00
Zn688  Zn    0.21056   0.53109   0.70657   0.00000  Uiso   1.00
Zn689  Zn    0.12893   0.53773   0.78734   0.00000  Uiso   1.00
C690   C     0.38635   0.49325   0.75998   0.00000  Uiso   1.00
C691   C     0.51345   0.50062   0.55741   0.00000  Uiso   1.00
C692   C     0.53262   0.43260   0.56273   0.00000  Uiso   1.00
C693   C     0.61402   0.50694   0.74020   0.00000  Uiso   1.00
C694   C     0.47649   0.52753   0.91952   0.00000  Uiso   1.00
C695   C     0.65970   0.50788   0.73562   0.00000  Uiso   1.00
C696   C     0.34128   0.49098   0.76547   0.00000  Uiso   1.00
C697   C     0.51175   0.65538   0.73587   0.00000  Uiso   1.00
C698   C     0.48514   0.34606   0.76538   0.00000  Uiso   1.00
C699   C     0.48972   0.38948   0.76018   0.00000  Uiso   1.00
C700   C     0.50959   0.61120   0.74029   0.00000  Uiso   1.00
C701   C     0.46966   0.58125   0.98080   0.00000  Uiso   1.00
C702   C     0.51856   0.48132   0.62953   0.00000  Uiso   1.00
C703   C     0.48144   0.51753   0.87103   0.00000  Uiso   1.00
C704   C     0.52768   0.42010   0.52000   0.00000  Uiso   1.00
C705   C     0.52482   0.47254   0.58161   0.00000  Uiso   1.00
C706   C     0.46700   0.56749   0.93754   0.00000  Uiso   1.00
C707   C     0.48298   0.55585   0.50637   0.00000  Uiso   1.00
C708   C     0.49210   0.51496   0.98980   0.00000  Uiso   1.00
C709   C     0.48622   0.50001   0.94671   0.00000  Uiso   1.00
C710   C     0.50664   0.48828   0.51458   0.00000  Uiso   1.00
C711   C     0.51353   0.44703   0.99638   0.00000  Uiso   1.00
C712   C     0.50426   0.43218   0.95582   0.00000  Uiso   1.00
C713   C     0.48974   0.45784   0.93196   0.00000  Uiso   1.00
H714   H     0.45911   0.58880   0.91741   0.00000  Uiso   1.00
H715   H     0.54063   0.41052   0.58194   0.00000  Uiso   1.00
H716   H     0.50746   0.40020   0.94280   0.00000  Uiso   1.00
H717   H     0.53303   0.38869   0.50625   0.00000  Uiso   1.00
H718   H     0.50744   0.53070   0.57428   0.00000  Uiso   1.00
H719   H     0.48551   0.56912   0.53904   0.00000  Uiso   1.00
H720   H     0.48046   0.44369   0.90224   0.00000  Uiso   1.00
I721   I     0.63955   0.46493   0.82672   0.00000  Uiso   1.00
I722   I     0.55878   0.34710   0.68007   0.00000  Uiso   1.00
I723   I     0.43844   0.66283   0.82538   0.00000  Uiso   1.00
I724   I     0.45605   0.64191   0.50667   0.00000  Uiso   1.00
I725   I     0.36871   0.53645   0.67912   0.00000  Uiso   1.00
O726   O     0.50000   0.50000   0.75000   0.00000  Uiso   1.00
O727   O     0.48784   0.45970   0.65459   0.00000  Uiso   1.00
O728   O     0.46274   0.53724   0.84968   0.00000  Uiso   1.00
O729   O     0.54157   0.51092   0.64606   0.00000  Uiso   1.00
O730   O     0.50785   0.49213   0.84968   0.00000  Uiso   1.00
O731   O     0.51264   0.41352   0.78214   0.00000  Uiso   1.00
O732   O     0.47965   0.59418   0.77014   0.00000  Uiso   1.00
O733   O     0.40745   0.46625   0.73413   0.00000  Uiso   1.00
O734   O     0.60026   0.52605   0.71361   0.00000  Uiso   1.00
O735   O     0.40405   0.52211   0.78213   0.00000  Uiso   1.00
O736   O     0.58824   0.48559   0.77014   0.00000  Uiso   1.00
O737   O     0.47093   0.40277   0.73413   0.00000  Uiso   1.00
O738   O     0.53678   0.58953   0.71361   0.00000  Uiso   1.00
Zn739  Zn    0.52672   0.47327   0.78734   0.00000  Uiso   1.00
Zn740  Zn    0.46713   0.45791   0.71876   0.00000  Uiso   1.00
Zn741  Zn    0.54389   0.53109   0.70657   0.00000  Uiso   1.00
Zn742  Zn    0.46226   0.53773   0.78734   0.00000  Uiso   1.00
C743   C     0.71969   0.49325   0.75998   0.00000  Uiso   1.00
C744   C     0.84679   0.50062   0.55741   0.00000  Uiso   1.00
C745   C     0.86595   0.43260   0.56273   0.00000  Uiso   1.00
C746   C     0.94735   0.50694   0.74020   0.00000  Uiso   1.00
C747   C     0.80982   0.52753   0.91952   0.00000  Uiso   1.00
C748   C     0.99303   0.50788   0.73562   0.00000  Uiso   1.00
C749   C     0.67461   0.49098   0.76547   0.00000  Uiso   1.00
C750   C     0.84508   0.65538   0.73587   0.00000  Uiso   1.00
C751   C     0.81848   0.34606   0.76538   0.00000  Uiso   1.00
C752   C     0.82305   0.38948   0.76018   0.00000  Uiso   1.00
C753   C     0.84293   0.61120   0.74029   0.00000  Uiso   1.00
C754   C     0.80299   0.58125   0.98080   0.00000  Uiso   1.00
C755   C     0.85190   0.48132   0.62953   0.00000  Uiso   1.00
C756   C     0.81478   0.51753   0.87103   0.00000  Uiso   1.00
C757   C     0.86102   0.42010   0.52000   0.00000  Uiso   1.00
C758   C     0.85815   0.47254   0.58161   0.00000  Uiso   1.00
C759   C     0.80033   0.56749   0.93754   0.00000  Uiso   1.00
C760   C     0.81631   0.55585   0.50637   0.00000  Uiso   1.00
C761   C     0.82543   0.51496   0.98980   0.00000  Uiso   1.00
C762   C     0.81955   0.50001   0.94671   0.00000  Uiso   1.00
C763   C     0.83997   0.48828   0.51458   0.00000  Uiso   1.00
C764   C     0.84686   0.44703   0.99638   0.00000  Uiso   1.00
C765   C     0.83759   0.43218   0.95582   0.00000  Uiso   1.00
C766   C     0.82308   0.45784   0.93196   0.00000  Uiso   1.00
H767   H     0.79244   0.58880   0.91741   0.00000  Uiso   1.00
H768   H     0.87396   0.41052   0.58194   0.00000  Uiso   1.00
H769   H     0.84079   0.40020   0.94280   0.00000  Uiso   1.00
H770   H     0.86636   0.38869   0.50625   0.00000  Uiso   1.00
H771   H     0.84077   0.53070   0.57428   0.00000  Uiso   1.00
H772   H     0.81884   0.56912   0.53904   0.00000  Uiso   1.00
H773   H     0.81379   0.44369   0.90224   0.00000  Uiso   1.00
I774   I     0.97288   0.46493   0.82672   0.00000  Uiso   1.00
I775   I     0.89212   0.34710   0.68007   0.00000  Uiso   1.00
I776   I     0.77177   0.66283   0.82538   0.00000  Uiso   1.00
I777   I     0.78939   0.64191   0.50667   0.00000  Uiso   1.00
I778   I     0.70205   0.53645   0.67912   0.00000  Uiso   1.00
O779   O     0.83333   0.50000   0.75000   0.00000  Uiso   1.00
O780   O     0.82118   0.45970   0.65459   0.00000  Uiso   1.00
O781   O     0.79607   0.53724   0.84968   0.00000  Uiso   1.00
O782   O     0.87491   0.51092   0.64606   0.00000  Uiso   1.00
O783   O     0.84118   0.49213   0.84968   0.00000  Uiso   1.00
O784   O     0.84597   0.41352   0.78214   0.00000  Uiso   1.00
O785   O     0.81298   0.59418   0.77014   0.00000  Uiso   1.00
O786   O     0.74078   0.46625   0.73413   0.00000  Uiso   1.00
O787   O     0.93360   0.52605   0.71361   0.00000  Uiso   1.00
O788   O     0.73738   0.52211   0.78213   0.00000  Uiso   1.00
O789   O     0.92158   0.48559   0.77014   0.00000  Uiso   1.00
O790   O     0.80426   0.40277   0.73413   0.00000  Uiso   1.00
O791   O     0.87012   0.58953   0.71361   0.00000  Uiso   1.00
Zn792  Zn    0.86005   0.47327   0.78734   0.00000  Uiso   1.00
Zn793  Zn    0.80046   0.45791   0.71876   0.00000  Uiso   1.00
Zn794  Zn    0.87723   0.53109   0.70657   0.00000  Uiso   1.00
Zn795  Zn    0.79560   0.53773   0.78734   0.00000  Uiso   1.00
C796   C     0.05302   0.82658   0.75998   0.00000  Uiso   1.00
C797   C     0.18012   0.83395   0.55741   0.00000  Uiso   1.00
C798   C     0.19928   0.76593   0.56273   0.00000  Uiso   1.00
C799   C     0.28068   0.84027   0.74020   0.00000  Uiso   1.00
C800   C     0.14316   0.86087   0.91952   0.00000  Uiso   1.00
C801   C     0.32636   0.84122   0.73562   0.00000  Uiso   1.00
C802   C     0.00794   0.82431   0.76547   0.00000  Uiso   1.00
C803   C     0.17842   0.98871   0.73587   0.00000  Uiso   1.00
C804   C     0.15181   0.67939   0.76538   0.00000  Uiso   1.00
C805   C     0.15639   0.72282   0.76018   0.00000  Uiso   1.00
C806   C     0.17626   0.94453   0.74029   0.00000  Uiso   1.00
C807   C     0.13632   0.91458   0.98080   0.00000  Uiso   1.00
C808   C     0.18523   0.81465   0.62953   0.00000  Uiso   1.00
C809   C     0.14811   0.85086   0.87103   0.00000  Uiso   1.00
C810   C     0.19435   0.75343   0.52000   0.00000  Uiso   1.00
C811   C     0.19149   0.80587   0.58161   0.00000  Uiso   1.00
C812   C     0.13367   0.90082   0.93754   0.00000  Uiso   1.00
C813   C     0.14965   0.88918   0.50637   0.00000  Uiso   1.00
C814   C     0.15877   0.84829   0.98980   0.00000  Uiso   1.00
C815   C     0.15289   0.83334   0.94671   0.00000  Uiso   1.00
C816   C     0.17331   0.82162   0.51458   0.00000  Uiso   1.00
C817   C     0.18020   0.78036   0.99638   0.00000  Uiso   1.00
C818   C     0.17092   0.76551   0.95582   0.00000  Uiso   1.00
C819   C     0.15641   0.79118   0.93196   0.00000  Uiso   1.00
H820   H     0.12577   0.92214   0.91741   0.00000  Uiso   1.00
H821   H     0.20730   0.74386   0.58194   0.00000  Uiso   1.00
H822   H     0.17413   0.73353   0.94280   0.00000  Uiso   1.00
H823   H     0.19969   0.72203   0.50625   0.00000  Uiso   1.00
H824   H     0.17410   0.86404   0.57428   0.00000  Uiso   1.00
H825   H     0.15217   0.90245   0.53904   0.00000  Uiso   1.00
H826   H     0.14713   0.77702   0.90224   0.00000  Uiso   1.00
I827   I     0.30621   0.79827   0.82672   0.00000  Uiso   1.00
I828   I     0.22545   0.68043   0.68007   0.00000  Uiso   1.00
I829   I     0.10511   0.99617   0.82538   0.00000  Uiso   1.00
I830   I     0.12272   0.97525   0.50667   0.00000  Uiso   1.00
I831   I     0.03538   0.86979   0.67912   0.00000  Uiso   1.00
O832   O     0.16667   0.83333   0.75000   0.00000  Uiso   1.00
O833   O     0.15451   0.79304   0.65459   0.00000  Uiso   1.00
O834   O     0.12940   0.87058   0.84968   0.00000  Uiso   1.00
O835   O     0.20824   0.84425   0.64606   0.00000  Uiso   1.00
O836   O     0.17451   0.82546   0.84968   0.00000  Uiso   1.00
O837   O     0.17930   0.74686   0.78214   0.00000  Uiso   1.00
O838   O     0.14632   0.92751   0.77014   0.00000  Uiso   1.00
O839   O     0.07412   0.79958   0.73413   0.00000  Uiso   1.00
O840   O     0.26693   0.85939   0.71361   0.00000  Uiso   1.00
O841   O     0.07071   0.85544   0.78213   0.00000  Uiso   1.00
O842   O     0.25491   0.81892   0.77014   0.00000  Uiso   1.00
O843   O     0.13760   0.73610   0.73413   0.00000  Uiso   1.00
O844   O     0.20345   0.92286   0.71361   0.00000  Uiso   1.00
Zn845  Zn    0.19338   0.80661   0.78734   0.00000  Uiso   1.00
Zn846  Zn    0.13379   0.79124   0.71876   0.00000  Uiso   1.00
Zn847  Zn    0.21056   0.86442   0.70657   0.00000  Uiso   1.00
Zn848  Zn    0.12893   0.87106   0.78734   0.00000  Uiso   1.00
C849   C     0.38635   0.82658   0.75998   0.00000  Uiso   1.00
C850   C     0.51345   0.83395   0.55741   0.00000  Uiso   1.00
C851   C     0.53262   0.76593   0.56273   0.00000  Uiso   1.00
C852   C     0.61402   0.84027   0.74020   0.00000  Uiso   1.00
C853   C     0.47649   0.86087   0.91952   0.00000  Uiso   1.00
C854   C     0.65970   0.84122   0.73562   0.00000  Uiso   1.00
C855   C     0.34128   0.82431   0.76547   0.00000  Uiso   1.00
C856   C     0.51175   0.98871   0.73587   0.00000  Uiso   1.00
C857   C     0.48514   0.67939   0.76538   0.00000  Uiso   1.00
C858   C     0.48972   0.72282   0.76018   0.00000  Uiso   1.00
C859   C     0.50959   0.94453   0.74029   0.00000  Uiso   1.00
C860   C     0.46966   0.91458   0.98080   0.00000  Uiso   1.00
C861   C     0.51856   0.81465   0.62953   0.00000  Uiso   1.00
C862   C     0.48144   0.85086   0.87103   0.00000  Uiso   1.00
C863   C     0.52768   0.75343   0.52000   0.00000  Uiso   1.00
C864   C     0.52482   0.80587   0.58161   0.00000  Uiso   1.00
C865   C     0.46700   0.90082   0.93754   0.00000  Uiso   1.00
C866   C     0.48298   0.88918   0.50637   0.00000  Uiso   1.00
C867   C     0.49210   0.84829   0.98980   0.00000  Uiso   1.00
C868   C     0.48622   0.83334   0.94671   0.00000  Uiso   1.00
C869   C     0.50664   0.82162   0.51458   0.00000  Uiso   1.00
C870   C     0.51353   0.78036   0.99638   0.00000  Uiso   1.00
C871   C     0.50426   0.76551   0.95582   0.00000  Uiso   1.00
C872   C     0.48974   0.79118   0.93196   0.00000  Uiso   1.00
H873   H     0.45911   0.92214   0.91741   0.00000  Uiso   1.00
H874   H     0.54063   0.74386   0.58194   0.00000  Uiso   1.00
H875   H     0.50746   0.73353   0.94280   0.00000  Uiso   1.00
H876   H     0.53303   0.72203   0.50625   0.00000  Uiso   1.00
H877   H     0.50744   0.86404   0.57428   0.00000  Uiso   1.00
H878   H     0.48551   0.90245   0.53904   0.00000  Uiso   1.00
H879   H     0.48046   0.77702   0.90224   0.00000  Uiso   1.00
I880   I     0.63955   0.79827   0.82672   0.00000  Uiso   1.00
I881   I     0.55878   0.68043   0.68007   0.00000  Uiso   1.00
I882   I     0.43844   0.99617   0.82538   0.00000  Uiso   1.00
I883   I     0.45605   0.97525   0.50667   0.00000  Uiso   1.00
I884   I     0.36871   0.86979   0.67912   0.00000  Uiso   1.00
O885   O     0.50000   0.83333   0.75000   0.00000  Uiso   1.00
O886   O     0.48784   0.79304   0.65459   0.00000  Uiso   1.00
O887   O     0.46274   0.87058   0.84968   0.00000  Uiso   1.00
O888   O     0.54157   0.84425   0.64606   0.00000  Uiso   1.00
O889   O     0.50785   0.82546   0.84968   0.00000  Uiso   1.00
O890   O     0.51264   0.74686   0.78214   0.00000  Uiso   1.00
O891   O     0.47965   0.92751   0.77014   0.00000  Uiso   1.00
O892   O     0.40745   0.79958   0.73413   0.00000  Uiso   1.00
O893   O     0.60026   0.85939   0.71361   0.00000  Uiso   1.00
O894   O     0.40405   0.85544   0.78213   0.00000  Uiso   1.00
O895   O     0.58824   0.81892   0.77014   0.00000  Uiso   1.00
O896   O     0.47093   0.73610   0.73413   0.00000  Uiso   1.00
O897   O     0.53678   0.92286   0.71361   0.00000  Uiso   1.00
Zn898  Zn    0.52672   0.80661   0.78734   0.00000  Uiso   1.00
Zn899  Zn    0.46713   0.79124   0.71876   0.00000  Uiso   1.00
Zn900  Zn    0.54389   0.86442   0.70657   0.00000  Uiso   1.00
Zn901  Zn    0.46226   0.87106   0.78734   0.00000  Uiso   1.00
C902   C     0.71969   0.82658   0.75998   0.00000  Uiso   1.00
C903   C     0.84679   0.83395   0.55741   0.00000  Uiso   1.00
C904   C     0.86595   0.76593   0.56273   0.00000  Uiso   1.00
C905   C     0.94735   0.84027   0.74020   0.00000  Uiso   1.00
C906   C     0.80982   0.86087   0.91952   0.00000  Uiso   1.00
C907   C     0.99303   0.84122   0.73562   0.00000  Uiso   1.00
C908   C     0.67461   0.82431   0.76547   0.00000  Uiso   1.00
C909   C     0.84508   0.98871   0.73587   0.00000  Uiso   1.00
C910   C     0.81848   0.67939   0.76538   0.00000  Uiso   1.00
C911   C     0.82305   0.72282   0.76018   0.00000  Uiso   1.00
C912   C     0.84293   0.94453   0.74029   0.00000  Uiso   1.00
C913   C     0.80299   0.91458   0.98080   0.00000  Uiso   1.00
C914   C     0.85190   0.81465   0.62953   0.00000  Uiso   1.00
C915   C     0.81478   0.85086   0.87103   0.00000  Uiso   1.00
C916   C     0.86102   0.75343   0.52000   0.00000  Uiso   1.00
C917   C     0.85815   0.80587   0.58161   0.00000  Uiso   1.00
C918   C     0.80033   0.90082   0.93754   0.00000  Uiso   1.00
C919   C     0.81631   0.88918   0.50637   0.00000  Uiso   1.00
C920   C     0.82543   0.84829   0.98980   0.00000  Uiso   1.00
C921   C     0.81955   0.83334   0.94671   0.00000  Uiso   1.00
C922   C     0.83997   0.82162   0.51458   0.00000  Uiso   1.00
C923   C     0.84686   0.78036   0.99638   0.00000  Uiso   1.00
C924   C     0.83759   0.76551   0.95582   0.00000  Uiso   1.00
C925   C     0.82308   0.79118   0.93196   0.00000  Uiso   1.00
H926   H     0.79244   0.92214   0.91741   0.00000  Uiso   1.00
H927   H     0.87396   0.74386   0.58194   0.00000  Uiso   1.00
H928   H     0.84079   0.73353   0.94280   0.00000  Uiso   1.00
H929   H     0.86636   0.72203   0.50625   0.00000  Uiso   1.00
H930   H     0.84077   0.86404   0.57428   0.00000  Uiso   1.00
H931   H     0.81884   0.90245   0.53904   0.00000  Uiso   1.00
H932   H     0.81379   0.77702   0.90224   0.00000  Uiso   1.00
I933   I     0.97288   0.79827   0.82672   0.00000  Uiso   1.00
I934   I     0.89212   0.68043   0.68007   0.00000  Uiso   1.00
I935   I     0.77177   0.99617   0.82538   0.00000  Uiso   1.00
I936   I     0.78939   0.97525   0.50667   0.00000  Uiso   1.00
I937   I     0.70205   0.86979   0.67912   0.00000  Uiso   1.00
O938   O     0.83333   0.83333   0.75000   0.00000  Uiso   1.00
O939   O     0.82118   0.79304   0.65459   0.00000  Uiso   1.00
O940   O     0.79607   0.87058   0.84968   0.00000  Uiso   1.00
O941   O     0.87491   0.84425   0.64606   0.00000  Uiso   1.00
O942   O     0.84118   0.82546   0.84968   0.00000  Uiso   1.00
O943   O     0.84597   0.74686   0.78214   0.00000  Uiso   1.00
O944   O     0.81298   0.92751   0.77014   0.00000  Uiso   1.00
O945   O     0.74078   0.79958   0.73413   0.00000  Uiso   1.00
O946   O     0.93360   0.85939   0.71361   0.00000  Uiso   1.00
O947   O     0.73738   0.85544   0.78213   0.00000  Uiso   1.00
O948   O     0.92158   0.81892   0.77014   0.00000  Uiso   1.00
O949   O     0.80426   0.73610   0.73413   0.00000  Uiso   1.00
O950   O     0.87012   0.92286   0.71361   0.00000  Uiso   1.00
Zn951  Zn    0.86005   0.80661   0.78734   0.00000  Uiso   1.00
Zn952  Zn    0.80046   0.79124   0.71876   0.00000  Uiso   1.00
Zn953  Zn    0.87723   0.86442   0.70657   0.00000  Uiso   1.00
Zn954  Zn    0.79560   0.87106   0.78734   0.00000  Uiso   1.00
loop_
_geom_bond_atom_site_label_1
_geom_bond_atom_site_label_2
_geom_bond_distance
_geom_bond_site_symmetry_2
_ccdc_geom_bond_type
C1     O44     1.271   .     A
C1     O46     1.265   .     A
C1     C7      1.428   .     S
C2     C16     1.392   .     A
C2     C21     1.410   .     A
C2     H29     1.077   .     S
C3     H26     1.084   .     S
C3     C15     1.387   .     A
C3     C16     1.396   .     A
C4     O45     1.289   .     A
C4     C6      1.456   .     S
C4     O47     1.274   .     A
C5     C14     1.475   .     S
C5     C20     1.418   .     A
C5     C17     1.402   .     A
C6     C60     1.352   .     S
C6     I89     2.140   .     S
C7     C112    1.352   1_455 S
C7     I138    2.143   1_455 S
C8     C11     1.453   .     S
C8     C168    1.349   .     S
C8     I192    2.142   .     S
C9     C10     1.426   .     S
C9     C326    1.349   1_545 S
C9     I352    2.141   1_545 S
C10    O42     1.272   .     A
C10    O48     1.278   .     A
C11    O43     1.268   .     A
C11    O49     1.278   .     A
C12    C17     1.388   .     A
C12    C495    1.392   .     S
C12    I512    2.112   .     S
C13    O38     1.273   .     A
C13    C16     1.448   .     S
C13    O40     1.282   .     A
C14    O41     1.283   .     A
C14    O39     1.283   .     A
C15    H28     1.084   .     S
C15    C499    1.400   1_554 S
C17    H25     1.083   .     S
C18    H30     1.076   .     S
C18    C489    1.392   1_554 S
C18    C496    1.417   1_554 S
C19    C20     1.423   .     A
C19    C495    1.417   .     S
C19    C498    1.426   .     S
C20    C24     1.410   .     A
C21    C496    1.426   1_554 S
C21    C499    1.424   1_554 S
C22    C23     1.390   .     A
C22    C492    1.400   .     S
C22    C498    1.424   .     S
C23    C24     1.382   .     A
C23    H27     1.084   .     S
C24    H31     1.080   .     S
I32    C60     2.143   .     S
I33    C326    2.142   1_545 S
I34    C168    2.141   .     S
I35    C489    2.112   1_554 S
I36    C112    2.140   1_455 S
O37    Zn53    1.932   .     S
O37    Zn50    1.959   .     S
O37    Zn51    1.950   .     S
O37    Zn52    1.944   .     S
O38    Zn51    1.932   .     S
O39    Zn53    1.941   .     S
O40    Zn52    1.936   .     S
O41    Zn50    1.927   .     S
O42    Zn50    1.936   .     S
O43    Zn53    1.940   .     S
O44    Zn51    1.930   .     S
O45    Zn52    1.940   .     S
O46    Zn53    1.939   .     S
O47    Zn50    1.932   .     S
O48    Zn51    1.941   .     S
O49    Zn52    1.934   .     S
C54    O97     1.271   .     A
C54    O99     1.265   .     A
C54    C60     1.428   .     S
C55    C69     1.392   .     A
C55    C74     1.410   .     A
C55    H82     1.077   .     S
C56    H79     1.084   .     S
C56    C68     1.387   .     A
C56    C69     1.396   .     A
C57    O98     1.289   .     A
C57    C59     1.456   .     S
C57    O100    1.274   .     A
C58    C67     1.475   .     S
C58    C73     1.418   .     A
C58    C70     1.402   .     A
C59    C113    1.352   .     S
C59    I142    2.140   .     S
C61    C64     1.453   .     S
C61    C221    1.349   .     S
C61    I245    2.142   .     S
C62    C63     1.426   .     S
C62    C379    1.349   1_545 S
C62    I405    2.141   1_545 S
C63    O95     1.272   .     A
C63    O101    1.278   .     A
C64    O96     1.268   .     A
C64    O102    1.278   .     A
C65    C70     1.388   .     A
C65    C548    1.392   .     S
C65    I565    2.112   .     S
C66    O91     1.273   .     A
C66    C69     1.448   .     S
C66    O93     1.282   .     A
C67    O94     1.283   .     A
C67    O92     1.283   .     A
C68    H81     1.084   .     S
C68    C552    1.400   1_554 S
C70    H78     1.083   .     S
C71    H83     1.076   .     S
C71    C542    1.392   1_554 S
C71    C549    1.417   1_554 S
C72    C73     1.423   .     A
C72    C548    1.417   .     S
C72    C551    1.426   .     S
C73    C77     1.410   .     A
C74    C549    1.426   1_554 S
C74    C552    1.424   1_554 S
C75    C76     1.390   .     A
C75    C545    1.400   .     S
C75    C551    1.424   .     S
C76    C77     1.382   .     A
C76    H80     1.084   .     S
C77    H84     1.080   .     S
I85    C113    2.143   .     S
I86    C379    2.142   1_545 S
I87    C221    2.141   .     S
I88    C542    2.112   1_554 S
O90    Zn106   1.932   .     S
O90    Zn103   1.959   .     S
O90    Zn104   1.950   .     S
O90    Zn105   1.944   .     S
O91    Zn104   1.932   .     S
O92    Zn106   1.941   .     S
O93    Zn105   1.936   .     S
O94    Zn103   1.927   .     S
O95    Zn103   1.936   .     S
O96    Zn106   1.940   .     S
O97    Zn104   1.930   .     S
O98    Zn105   1.940   .     S
O99    Zn106   1.939   .     S
O100   Zn103   1.932   .     S
O101   Zn104   1.941   .     S
O102   Zn105   1.934   .     S
C107   O150    1.271   .     A
C107   O152    1.265   .     A
C107   C113    1.428   .     S
C108   C122    1.392   .     A
C108   C127    1.410   .     A
C108   H135    1.077   .     S
C109   H132    1.084   .     S
C109   C121    1.387   .     A
C109   C122    1.396   .     A
C110   O151    1.289   .     A
C110   C112    1.456   .     S
C110   O153    1.274   .     A
C111   C120    1.475   .     S
C111   C126    1.418   .     A
C111   C123    1.402   .     A
C112   C7      1.352   1_655 S
C112   I36     2.140   1_655 S
C114   C117    1.453   .     S
C114   C274    1.349   .     S
C114   I298    2.142   .     S
C115   C116    1.426   .     S
C115   C432    1.349   1_545 S
C115   I458    2.141   1_545 S
C116   O148    1.272   .     A
C116   O154    1.278   .     A
C117   O149    1.268   .     A
C117   O155    1.278   .     A
C118   C123    1.388   .     A
C118   C601    1.392   .     S
C118   I618    2.112   .     S
C119   O144    1.273   .     A
C119   C122    1.448   .     S
C119   O146    1.282   .     A
C120   O147    1.283   .     A
C120   O145    1.283   .     A
C121   H134    1.084   .     S
C121   C605    1.400   1_554 S
C123   H131    1.083   .     S
C124   H136    1.076   .     S
C124   C595    1.392   1_554 S
C124   C602    1.417   1_554 S
C125   C126    1.423   .     A
C125   C601    1.417   .     S
C125   C604    1.426   .     S
C126   C130    1.410   .     A
C127   C602    1.426   1_554 S
C127   C605    1.424   1_554 S
C128   C129    1.390   .     A
C128   C598    1.400   .     S
C128   C604    1.424   .     S
C129   C130    1.382   .     A
C129   H133    1.084   .     S
C130   H137    1.080   .     S
I138   C7      2.143   1_655 S
I139   C432    2.142   1_545 S
I140   C274    2.141   .     S
I141   C595    2.112   1_554 S
O143   Zn159   1.932   .     S
O143   Zn156   1.959   .     S
O143   Zn157   1.950   .     S
O143   Zn158   1.944   .     S
O144   Zn157   1.932   .     S
O145   Zn159   1.941   .     S
O146   Zn158   1.936   .     S
O147   Zn156   1.927   .     S
O148   Zn156   1.936   .     S
O149   Zn159   1.940   .     S
O150   Zn157   1.930   .     S
O151   Zn158   1.940   .     S
O152   Zn159   1.939   .     S
O153   Zn156   1.932   .     S
O154   Zn157   1.941   .     S
O155   Zn158   1.934   .     S
C160   O203    1.271   .     A
C160   O205    1.265   .     A
C160   C166    1.428   .     S
C161   C175    1.392   .     A
C161   C180    1.410   .     A
C161   H188    1.077   .     S
C162   H185    1.084   .     S
C162   C174    1.387   .     A
C162   C175    1.396   .     A
C163   O204    1.289   .     A
C163   C165    1.456   .     S
C163   O206    1.274   .     A
C164   C173    1.475   .     S
C164   C179    1.418   .     A
C164   C176    1.402   .     A
C165   C219    1.352   .     S
C165   I248    2.140   .     S
C166   C271    1.352   1_455 S
C166   I297    2.143   1_455 S
C167   C170    1.453   .     S
C167   C327    1.349   .     S
C167   I351    2.142   .     S
C168   C169    1.426   .     S
C169   O201    1.272   .     A
C169   O207    1.278   .     A
C170   O202    1.268   .     A
C170   O208    1.278   .     A
C171   C176    1.388   .     A
C171   C654    1.392   .     S
C171   I671    2.112   .     S
C172   O197    1.273   .     A
C172   C175    1.448   .     S
C172   O199    1.282   .     A
C173   O200    1.283   .     A
C173   O198    1.283   .     A
C174   H187    1.084   .     S
C174   C658    1.400   1_554 S
C176   H184    1.083   .     S
C177   H189    1.076   .     S
C177   C648    1.392   1_554 S
C177   C655    1.417   1_554 S
C178   C179    1.423   .     A
C178   C654    1.417   .     S
C178   C657    1.426   .     S
C179   C183    1.410   .     A
C180   C655    1.426   1_554 S
C180   C658    1.424   1_554 S
C181   C182    1.390   .     A
C181   C651    1.400   .     S
C181   C657    1.424   .     S
C182   C183    1.382   .     A
C182   H186    1.084   .     S
C183   H190    1.080   .     S
I191   C219    2.143   .     S
I193   C327    2.141   .     S
I194   C648    2.112   1_554 S
I195   C271    2.140   1_455 S
O196   Zn212   1.932   .     S
O196   Zn209   1.959   .     S
O196   Zn210   1.950   .     S
O196   Zn211   1.944   .     S
O197   Zn210   1.932   .     S
O198   Zn212   1.941   .     S
O199   Zn211   1.936   .     S
O200   Zn209   1.927   .     S
O201   Zn209   1.936   .     S
O202   Zn212   1.940   .     S
O203   Zn210   1.930   .     S
O204   Zn211   1.940   .     S
O205   Zn212   1.939   .     S
O206   Zn209   1.932   .     S
O207   Zn210   1.941   .     S
O208   Zn211   1.934   .     S
C213   O256    1.271   .     A
C213   O258    1.265   .     A
C213   C219    1.428   .     S
C214   C228    1.392   .     A
C214   C233    1.410   .     A
C214   H241    1.077   .     S
C215   H238    1.084   .     S
C215   C227    1.387   .     A
C215   C228    1.396   .     A
C216   O257    1.289   .     A
C216   C218    1.456   .     S
C216   O259    1.274   .     A
C217   C226    1.475   .     S
C217   C232    1.418   .     A
C217   C229    1.402   .     A
C218   C272    1.352   .     S
C218   I301    2.140   .     S
C220   C223    1.453   .     S
C220   C380    1.349   .     S
C220   I404    2.142   .     S
C221   C222    1.426   .     S
C222   O254    1.272   .     A
C222   O260    1.278   .     A
C223   O255    1.268   .     A
C223   O261    1.278   .     A
C224   C229    1.388   .     A
C224   C707    1.392   .     S
C224   I724    2.112   .     S
C225   O250    1.273   .     A
C225   C228    1.448   .     S
C225   O252    1.282   .     A
C226   O253    1.283   .     A
C226   O251    1.283   .     A
C227   H240    1.084   .     S
C227   C711    1.400   1_554 S
C229   H237    1.083   .     S
C230   H242    1.076   .     S
C230   C701    1.392   1_554 S
C230   C708    1.417   1_554 S
C231   C232    1.423   .     A
C231   C707    1.417   .     S
C231   C710    1.426   .     S
C232   C236    1.410   .     A
C233   C708    1.426   1_554 S
C233   C711    1.424   1_554 S
C234   C235    1.390   .     A
C234   C704    1.400   .     S
C234   C710    1.424   .     S
C235   C236    1.382   .     A
C235   H239    1.084   .     S
C236   H243    1.080   .     S
I244   C272    2.143   .     S
I246   C380    2.141   .     S
I247   C701    2.112   1_554 S
O249   Zn265   1.932   .     S
O249   Zn262   1.959   .     S
O249   Zn263   1.950   .     S
O249   Zn264   1.944   .     S
O250   Zn263   1.932   .     S
O251   Zn265   1.941   .     S
O252   Zn264   1.936   .     S
O253   Zn262   1.927   .     S
O254   Zn262   1.936   .     S
O255   Zn265   1.940   .     S
O256   Zn263   1.930   .     S
O257   Zn264   1.940   .     S
O258   Zn265   1.939   .     S
O259   Zn262   1.932   .     S
O260   Zn263   1.941   .     S
O261   Zn264   1.934   .     S
C266   O309    1.271   .     A
C266   O311    1.265   .     A
C266   C272    1.428   .     S
C267   C281    1.392   .     A
C267   C286    1.410   .     A
C267   H294    1.077   .     S
C268   H291    1.084   .     S
C268   C280    1.387   .     A
C268   C281    1.396   .     A
C269   O310    1.289   .     A
C269   C271    1.456   .     S
C269   O312    1.274   .     A
C270   C279    1.475   .     S
C270   C285    1.418   .     A
C270   C282    1.402   .     A
C271   C166    1.352   1_655 S
C271   I195    2.140   1_655 S
C273   C276    1.453   .     S
C273   C433    1.349   .     S
C273   I457    2.142   .     S
C274   C275    1.426   .     S
C275   O307    1.272   .     A
C275   O313    1.278   .     A
C276   O308    1.268   .     A
C276   O314    1.278   .     A
C277   C282    1.388   .     A
C277   C760    1.392   .     S
C277   I777    2.112   .     S
C278   O303    1.273   .     A
C278   C281    1.448   .     S
C278   O305    1.282   .     A
C279   O306    1.283   .     A
C279   O304    1.283   .     A
C280   H293    1.084   .     S
C280   C764    1.400   1_554 S
C282   H290    1.083   .     S
C283   H295    1.076   .     S
C283   C754    1.392   1_554 S
C283   C761    1.417   1_554 S
C284   C285    1.423   .     A
C284   C760    1.417   .     S
C284   C763    1.426   .     S
C285   C289    1.410   .     A
C286   C761    1.426   1_554 S
C286   C764    1.424   1_554 S
C287   C288    1.390   .     A
C287   C757    1.400   .     S
C287   C763    1.424   .     S
C288   C289    1.382   .     A
C288   H292    1.084   .     S
C289   H296    1.080   .     S
I297   C166    2.143   1_655 S
I299   C433    2.141   .     S
I300   C754    2.112   1_554 S
O302   Zn318   1.932   .     S
O302   Zn315   1.959   .     S
O302   Zn316   1.950   .     S
O302   Zn317   1.944   .     S
O303   Zn316   1.932   .     S
O304   Zn318   1.941   .     S
O305   Zn317   1.936   .     S
O306   Zn315   1.927   .     S
O307   Zn315   1.936   .     S
O308   Zn318   1.940   .     S
O309   Zn316   1.930   .     S
O310   Zn317   1.940   .     S
O311   Zn318   1.939   .     S
O312   Zn315   1.932   .     S
O313   Zn316   1.941   .     S
O314   Zn317   1.934   .     S
C319   O362    1.271   .     A
C319   O364    1.265   .     A
C319   C325    1.428   .     S
C320   C334    1.392   .     A
C320   C339    1.410   .     A
C320   H347    1.077   .     S
C321   H344    1.084   .     S
C321   C333    1.387   .     A
C321   C334    1.396   .     A
C322   O363    1.289   .     A
C322   C324    1.456   .     S
C322   O365    1.274   .     A
C323   C332    1.475   .     S
C323   C338    1.418   .     A
C323   C335    1.402   .     A
C324   C378    1.352   .     S
C324   I407    2.140   .     S
C325   C430    1.352   1_455 S
C325   I456    2.143   1_455 S
C326   C329    1.453   .     S
C326   C9      1.349   1_565 S
C326   I33     2.142   1_565 S
C327   C328    1.426   .     S
C328   O360    1.272   .     A
C328   O366    1.278   .     A
C329   O361    1.268   .     A
C329   O367    1.278   .     A
C330   C335    1.388   .     A
C330   C813    1.392   .     S
C330   I830    2.112   .     S
C331   O356    1.273   .     A
C331   C334    1.448   .     S
C331   O358    1.282   .     A
C332   O359    1.283   .     A
C332   O357    1.283   .     A
C333   H346    1.084   .     S
C333   C817    1.400   1_554 S
C335   H343    1.083   .     S
C336   H348    1.076   .     S
C336   C807    1.392   1_554 S
C336   C814    1.417   1_554 S
C337   C338    1.423   .     A
C337   C813    1.417   .     S
C337   C816    1.426   .     S
C338   C342    1.410   .     A
C339   C814    1.426   1_554 S
C339   C817    1.424   1_554 S
C340   C341    1.390   .     A
C340   C810    1.400   .     S
C340   C816    1.424   .     S
C341   C342    1.382   .     A
C341   H345    1.084   .     S
C342   H349    1.080   .     S
I350   C378    2.143   .     S
I352   C9      2.141   1_565 S
I353   C807    2.112   1_554 S
I354   C430    2.140   1_455 S
O355   Zn371   1.932   .     S
O355   Zn368   1.959   .     S
O355   Zn369   1.950   .     S
O355   Zn370   1.944   .     S
O356   Zn369   1.932   .     S
O357   Zn371   1.941   .     S
O358   Zn370   1.936   .     S
O359   Zn368   1.927   .     S
O360   Zn368   1.936   .     S
O361   Zn371   1.940   .     S
O362   Zn369   1.930   .     S
O363   Zn370   1.940   .     S
O364   Zn371   1.939   .     S
O365   Zn368   1.932   .     S
O366   Zn369   1.941   .     S
O367   Zn370   1.934   .     S
C372   O415    1.271   .     A
C372   O417    1.265   .     A
C372   C378    1.428   .     S
C373   C387    1.392   .     A
C373   C392    1.410   .     A
C373   H400    1.077   .     S
C374   H397    1.084   .     S
C374   C386    1.387   .     A
C374   C387    1.396   .     A
C375   O416    1.289   .     A
C375   C377    1.456   .     S
C375   O418    1.274   .     A
C376   C385    1.475   .     S
C376   C391    1.418   .     A
C376   C388    1.402   .     A
C377   C431    1.352   .     S
C377   I460    2.140   .     S
C379   C382    1.453   .     S
C379   C62     1.349   1_565 S
C379   I86     2.142   1_565 S
C380   C381    1.426   .     S
C381   O413    1.272   .     A
C381   O419    1.278   .     A
C382   O414    1.268   .     A
C382   O420    1.278   .     A
C383   C388    1.388   .     A
C383   C866    1.392   .     S
C383   I883    2.112   .     S
C384   O409    1.273   .     A
C384   C387    1.448   .     S
C384   O411    1.282   .     A
C385   O412    1.283   .     A
C385   O410    1.283   .     A
C386   H399    1.084   .     S
C386   C870    1.400   1_554 S
C388   H396    1.083   .     S
C389   H401    1.076   .     S
C389   C860    1.392   1_554 S
C389   C867    1.417   1_554 S
C390   C391    1.423   .     A
C390   C866    1.417   .     S
C390   C869    1.426   .     S
C391   C395    1.410   .     A
C392   C867    1.426   1_554 S
C392   C870    1.424   1_554 S
C393   C394    1.390   .     A
C393   C863    1.400   .     S
C393   C869    1.424   .     S
C394   C395    1.382   .     A
C394   H398    1.084   .     S
C395   H402    1.080   .     S
I403   C431    2.143   .     S
I405   C62     2.141   1_565 S
I406   C860    2.112   1_554 S
O408   Zn424   1.932   .     S
O408   Zn421   1.959   .     S
O408   Zn422   1.950   .     S
O408   Zn423   1.944   .     S
O409   Zn422   1.932   .     S
O410   Zn424   1.941   .     S
O411   Zn423   1.936   .     S
O412   Zn421   1.927   .     S
O413   Zn421   1.936   .     S
O414   Zn424   1.940   .     S
O415   Zn422   1.930   .     S
O416   Zn423   1.940   .     S
O417   Zn424   1.939   .     S
O418   Zn421   1.932   .     S
O419   Zn422   1.941   .     S
O420   Zn423   1.934   .     S
C425   O468    1.271   .     A
C425   O470    1.265   .     A
C425   C431    1.428   .     S
C426   C440    1.392   .     A
C426   C445    1.410   .     A
C426   H453    1.077   .     S
C427   H450    1.084   .     S
C427   C439    1.387   .     A
C427   C440    1.396   .     A
C428   O469    1.289   .     A
C428   C430    1.456   .     S
C428   O471    1.274   .     A
C429   C438    1.475   .     S
C429   C444    1.418   .     A
C429   C441    1.402   .     A
C430   C325    1.352   1_655 S
C430   I354    2.140   1_655 S
C432   C435    1.453   .     S
C432   C115    1.349   1_565 S
C432   I139    2.142   1_565 S
C433   C434    1.426   .     S
C434   O466    1.272   .     A
C434   O472    1.278   .     A
C435   O467    1.268   .     A
C435   O473    1.278   .     A
C436   C441    1.388   .     A
C436   C919    1.392   .     S
C436   I936    2.112   .     S
C437   O462    1.273   .     A
C437   C440    1.448   .     S
C437   O464    1.282   .     A
C438   O465    1.283   .     A
C438   O463    1.283   .     A
C439   H452    1.084   .     S
C439   C923    1.400   1_554 S
C441   H449    1.083   .     S
C442   H454    1.076   .     S
C442   C913    1.392   1_554 S
C442   C920    1.417   1_554 S
C443   C444    1.423   .     A
C443   C919    1.417   .     S
C443   C922    1.426   .     S
C444   C448    1.410   .     A
C445   C920    1.426   1_554 S
C445   C923    1.424   1_554 S
C446   C447    1.390   .     A
C446   C916    1.400   .     S
C446   C922    1.424   .     S
C447   C448    1.382   .     A
C447   H451    1.084   .     S
C448   H455    1.080   .     S
I456   C325    2.143   1_655 S
I458   C115    2.141   1_565 S
I459   C913    2.112   1_554 S
O461   Zn477   1.932   .     S
O461   Zn474   1.959   .     S
O461   Zn475   1.950   .     S
O461   Zn476   1.944   .     S
O462   Zn475   1.932   .     S
O463   Zn477   1.941   .     S
O464   Zn476   1.936   .     S
O465   Zn474   1.927   .     S
O466   Zn474   1.936   .     S
O467   Zn477   1.940   .     S
O468   Zn475   1.930   .     S
O469   Zn476   1.940   .     S
O470   Zn477   1.939   .     S
O471   Zn474   1.932   .     S
O472   Zn475   1.941   .     S
O473   Zn476   1.934   .     S
C478   O521    1.271   .     A
C478   O523    1.265   .     A
C478   C484    1.428   .     S
C479   C493    1.392   .     A
C479   C498    1.410   .     A
C479   H506    1.077   .     S
C480   H503    1.084   .     S
C480   C492    1.387   .     A
C480   C493    1.396   .     A
C481   O522    1.289   .     A
C481   C483    1.456   .     S
C481   O524    1.274   .     A
C482   C491    1.475   .     S
C482   C497    1.418   .     A
C482   C494    1.402   .     A
C483   C537    1.352   .     S
C483   I566    2.140   .     S
C484   C589    1.352   1_455 S
C484   I615    2.143   1_455 S
C485   C488    1.453   .     S
C485   C645    1.349   .     S
C485   I669    2.142   .     S
C486   C487    1.426   .     S
C486   C803    1.349   1_545 S
C486   I829    2.141   1_545 S
C487   O519    1.272   .     A
C487   O525    1.278   .     A
C488   O520    1.268   .     A
C488   O526    1.278   .     A
C489   C494    1.388   .     A
C489   C18     1.392   1_556 S
C489   I35     2.112   1_556 S
C490   O515    1.273   .     A
C490   C493    1.448   .     S
C490   O517    1.282   .     A
C491   O518    1.283   .     A
C491   O516    1.283   .     A
C492   H505    1.084   .     S
C494   H502    1.083   .     S
C495   H507    1.076   .     S
C496   C497    1.423   .     A
C496   C18     1.417   1_556 S
C496   C21     1.426   1_556 S
C497   C501    1.410   .     A
C499   C500    1.390   .     A
C499   C15     1.400   1_556 S
C499   C21     1.424   1_556 S
C500   C501    1.382   .     A
C500   H504    1.084   .     S
C501   H508    1.080   .     S
I509   C537    2.143   .     S
I510   C803    2.142   1_545 S
I511   C645    2.141   .     S
I513   C589    2.140   1_455 S
O514   Zn530   1.932   .     S
O514   Zn527   1.959   .     S
O514   Zn528   1.950   .     S
O514   Zn529   1.944   .     S
O515   Zn528   1.932   .     S
O516   Zn530   1.941   .     S
O517   Zn529   1.936   .     S
O518   Zn527   1.927   .     S
O519   Zn527   1.936   .     S
O520   Zn530   1.940   .     S
O521   Zn528   1.930   .     S
O522   Zn529   1.940   .     S
O523   Zn530   1.939   .     S
O524   Zn527   1.932   .     S
O525   Zn528   1.941   .     S
O526   Zn529   1.934   .     S
C531   O574    1.271   .     A
C531   O576    1.265   .     A
C531   C537    1.428   .     S
C532   C546    1.392   .     A
C532   C551    1.410   .     A
C532   H559    1.077   .     S
C533   H556    1.084   .     S
C533   C545    1.387   .     A
C533   C546    1.396   .     A
C534   O575    1.289   .     A
C534   C536    1.456   .     S
C534   O577    1.274   .     A
C535   C544    1.475   .     S
C535   C550    1.418   .     A
C535   C547    1.402   .     A
C536   C590    1.352   .     S
C536   I619    2.140   .     S
C538   C541    1.453   .     S
C538   C698    1.349   .     S
C538   I722    2.142   .     S
C539   C540    1.426   .     S
C539   C856    1.349   1_545 S
C539   I882    2.141   1_545 S
C540   O572    1.272   .     A
C540   O578    1.278   .     A
C541   O573    1.268   .     A
C541   O579    1.278   .     A
C542   C547    1.388   .     A
C542   C71     1.392   1_556 S
C542   I88     2.112   1_556 S
C543   O568    1.273   .     A
C543   C546    1.448   .     S
C543   O570    1.282   .     A
C544   O571    1.283   .     A
C544   O569    1.283   .     A
C545   H558    1.084   .     S
C547   H555    1.083   .     S
C548   H560    1.076   .     S
C549   C550    1.423   .     A
C549   C71     1.417   1_556 S
C549   C74     1.426   1_556 S
C550   C554    1.410   .     A
C552   C553    1.390   .     A
C552   C68     1.400   1_556 S
C552   C74     1.424   1_556 S
C553   C554    1.382   .     A
C553   H557    1.084   .     S
C554   H561    1.080   .     S
I562   C590    2.143   .     S
I563   C856    2.142   1_545 S
I564   C698    2.141   .     S
O567   Zn583   1.932   .     S
O567   Zn580   1.959   .     S
O567   Zn581   1.950   .     S
O567   Zn582   1.944   .     S
O568   Zn581   1.932   .     S
O569   Zn583   1.941   .     S
O570   Zn582   1.936   .     S
O571   Zn580   1.927   .     S
O572   Zn580   1.936   .     S
O573   Zn583   1.940   .     S
O574   Zn581   1.930   .     S
O575   Zn582   1.940   .     S
O576   Zn583   1.939   .     S
O577   Zn580   1.932   .     S
O578   Zn581   1.941   .     S
O579   Zn582   1.934   .     S
C584   O627    1.271   .     A
C584   O629    1.265   .     A
C584   C590    1.428   .     S
C585   C599    1.392   .     A
C585   C604    1.410   .     A
C585   H612    1.077   .     S
C586   H609    1.084   .     S
C586   C598    1.387   .     A
C586   C599    1.396   .     A
C587   O628    1.289   .     A
C587   C589    1.456   .     S
C587   O630    1.274   .     A
C588   C597    1.475   .     S
C588   C603    1.418   .     A
C588   C600    1.402   .     A
C589   C484    1.352   1_655 S
C589   I513    2.140   1_655 S
C591   C594    1.453   .     S
C591   C751    1.349   .     S
C591   I775    2.142   .     S
C592   C593    1.426   .     S
C592   C909    1.349   1_545 S
C592   I935    2.141   1_545 S
C593   O625    1.272   .     A
C593   O631    1.278   .     A
C594   O626    1.268   .     A
C594   O632    1.278   .     A
C595   C600    1.388   .     A
C595   C124    1.392   1_556 S
C595   I141    2.112   1_556 S
C596   O621    1.273   .     A
C596   C599    1.448   .     S
C596   O623    1.282   .     A
C597   O624    1.283   .     A
C597   O622    1.283   .     A
C598   H611    1.084   .     S
C600   H608    1.083   .     S
C601   H613    1.076   .     S
C602   C603    1.423   .     A
C602   C124    1.417   1_556 S
C602   C127    1.426   1_556 S
C603   C607    1.410   .     A
C605   C606    1.390   .     A
C605   C121    1.400   1_556 S
C605   C127    1.424   1_556 S
C606   C607    1.382   .     A
C606   H610    1.084   .     S
C607   H614    1.080   .     S
I615   C484    2.143   1_655 S
I616   C909    2.142   1_545 S
I617   C751    2.141   .     S
O620   Zn636   1.932   .     S
O620   Zn633   1.959   .     S
O620   Zn634   1.950   .     S
O620   Zn635   1.944   .     S
O621   Zn634   1.932   .     S
O622   Zn636   1.941   .     S
O623   Zn635   1.936   .     S
O624   Zn633   1.927   .     S
O625   Zn633   1.936   .     S
O626   Zn636   1.940   .     S
O627   Zn634   1.930   .     S
O628   Zn635   1.940   .     S
O629   Zn636   1.939   .     S
O630   Zn633   1.932   .     S
O631   Zn634   1.941   .     S
O632   Zn635   1.934   .     S
C637   O680    1.271   .     A
C637   O682    1.265   .     A
C637   C643    1.428   .     S
C638   C652    1.392   .     A
C638   C657    1.410   .     A
C638   H665    1.077   .     S
C639   H662    1.084   .     S
C639   C651    1.387   .     A
C639   C652    1.396   .     A
C640   O681    1.289   .     A
C640   C642    1.456   .     S
C640   O683    1.274   .     A
C641   C650    1.475   .     S
C641   C656    1.418   .     A
C641   C653    1.402   .     A
C642   C696    1.352   .     S
C642   I725    2.140   .     S
C643   C748    1.352   1_455 S
C643   I774    2.143   1_455 S
C644   C647    1.453   .     S
C644   C804    1.349   .     S
C644   I828    2.142   .     S
C645   C646    1.426   .     S
C646   O678    1.272   .     A
C646   O684    1.278   .     A
C647   O679    1.268   .     A
C647   O685    1.278   .     A
C648   C653    1.388   .     A
C648   C177    1.392   1_556 S
C648   I194    2.112   1_556 S
C649   O674    1.273   .     A
C649   C652    1.448   .     S
C649   O676    1.282   .     A
C650   O677    1.283   .     A
C650   O675    1.283   .     A
C651   H664    1.084   .     S
C653   H661    1.083   .     S
C654   H666    1.076   .     S
C655   C656    1.423   .     A
C655   C177    1.417   1_556 S
C655   C180    1.426   1_556 S
C656   C660    1.410   .     A
C658   C659    1.390   .     A
C658   C174    1.400   1_556 S
C658   C180    1.424   1_556 S
C659   C660    1.382   .     A
C659   H663    1.084   .     S
C660   H667    1.080   .     S
I668   C696    2.143   .     S
I670   C804    2.141   .     S
I672   C748    2.140   1_455 S
O673   Zn689   1.932   .     S
O673   Zn686   1.959   .     S
O673   Zn687   1.950   .     S
O673   Zn688   1.944   .     S
O674   Zn687   1.932   .     S
O675   Zn689   1.941   .     S
O676   Zn688   1.936   .     S
O677   Zn686   1.927   .     S
O678   Zn686   1.936   .     S
O679   Zn689   1.940   .     S
O680   Zn687   1.930   .     S
O681   Zn688   1.940   .     S
O682   Zn689   1.939   .     S
O683   Zn686   1.932   .     S
O684   Zn687   1.941   .     S
O685   Zn688   1.934   .     S
C690   O733    1.271   .     A
C690   O735    1.265   .     A
C690   C696    1.428   .     S
C691   C705    1.392   .     A
C691   C710    1.410   .     A
C691   H718    1.077   .     S
C692   H715    1.084   .     S
C692   C704    1.387   .     A
C692   C705    1.396   .     A
C693   O734    1.289   .     A
C693   C695    1.456   .     S
C693   O736    1.274   .     A
C694   C703    1.475   .     S
C694   C709    1.418   .     A
C694   C706    1.402   .     A
C695   C749    1.352   .     S
C695   I778    2.140   .     S
C697   C700    1.453   .     S
C697   C857    1.349   .     S
C697   I881    2.142   .     S
C698   C699    1.426   .     S
C699   O731    1.272   .     A
C699   O737    1.278   .     A
C700   O732    1.268   .     A
C700   O738    1.278   .     A
C701   C706    1.388   .     A
C701   C230    1.392   1_556 S
C701   I247    2.112   1_556 S
C702   O727    1.273   .     A
C702   C705    1.448   .     S
C702   O729    1.282   .     A
C703   O730    1.283   .     A
C703   O728    1.283   .     A
C704   H717    1.084   .     S
C706   H714    1.083   .     S
C707   H719    1.076   .     S
C708   C709    1.423   .     A
C708   C230    1.417   1_556 S
C708   C233    1.426   1_556 S
C709   C713    1.410   .     A
C711   C712    1.390   .     A
C711   C227    1.400   1_556 S
C711   C233    1.424   1_556 S
C712   C713    1.382   .     A
C712   H716    1.084   .     S
C713   H720    1.080   .     S
I721   C749    2.143   .     S
I723   C857    2.141   .     S
O726   Zn742   1.932   .     S
O726   Zn739   1.959   .     S
O726   Zn740   1.950   .     S
O726   Zn741   1.944   .     S
O727   Zn740   1.932   .     S
O728   Zn742   1.941   .     S
O729   Zn741   1.936   .     S
O730   Zn739   1.927   .     S
O731   Zn739   1.936   .     S
O732   Zn742   1.940   .     S
O733   Zn740   1.930   .     S
O734   Zn741   1.940   .     S
O735   Zn742   1.939   .     S
O736   Zn739   1.932   .     S
O737   Zn740   1.941   .     S
O738   Zn741   1.934   .     S
C743   O786    1.271   .     A
C743   O788    1.265   .     A
C743   C749    1.428   .     S
C744   C758    1.392   .     A
C744   C763    1.410   .     A
C744   H771    1.077   .     S
C745   H768    1.084   .     S
C745   C757    1.387   .     A
C745   C758    1.396   .     A
C746   O787    1.289   .     A
C746   C748    1.456   .     S
C746   O789    1.274   .     A
C747   C756    1.475   .     S
C747   C762    1.418   .     A
C747   C759    1.402   .     A
C748   C643    1.352   1_655 S
C748   I672    2.140   1_655 S
C750   C753    1.453   .     S
C750   C910    1.349   .     S
C750   I934    2.142   .     S
C751   C752    1.426   .     S
C752   O784    1.272   .     A
C752   O790    1.278   .     A
C753   O785    1.268   .     A
C753   O791    1.278   .     A
C754   C759    1.388   .     A
C754   C283    1.392   1_556 S
C754   I300    2.112   1_556 S
C755   O780    1.273   .     A
C755   C758    1.448   .     S
C755   O782    1.282   .     A
C756   O783    1.283   .     A
C756   O781    1.283   .     A
C757   H770    1.084   .     S
C759   H767    1.083   .     S
C760   H772    1.076   .     S
C761   C762    1.423   .     A
C761   C283    1.417   1_556 S
C761   C286    1.426   1_556 S
C762   C766    1.410   .     A
C764   C765    1.390   .     A
C764   C280    1.400   1_556 S
C764   C286    1.424   1_556 S
C765   C766    1.382   .     A
C765   H769    1.084   .     S
C766   H773    1.080   .     S
I774   C643    2.143   1_655 S
I776   C910    2.141   .     S
O779   Zn795   1.932   .     S
O779   Zn792   1.959   .     S
O779   Zn793   1.950   .     S
O779   Zn794   1.944   .     S
O780   Zn793   1.932   .     S
O781   Zn795   1.941   .     S
O782   Zn794   1.936   .     S
O783   Zn792   1.927   .     S
O784   Zn792   1.936   .     S
O785   Zn795   1.940   .     S
O786   Zn793   1.930   .     S
O787   Zn794   1.940   .     S
O788   Zn795   1.939   .     S
O789   Zn792   1.932   .     S
O790   Zn793   1.941   .     S
O791   Zn794   1.934   .     S
C796   O839    1.271   .     A
C796   O841    1.265   .     A
C796   C802    1.428   .     S
C797   C811    1.392   .     A
C797   C816    1.410   .     A
C797   H824    1.077   .     S
C798   H821    1.084   .     S
C798   C810    1.387   .     A
C798   C811    1.396   .     A
C799   O840    1.289   .     A
C799   C801    1.456   .     S
C799   O842    1.274   .     A
C800   C809    1.475   .     S
C800   C815    1.418   .     A
C800   C812    1.402   .     A
C801   C855    1.352   .     S
C801   I884    2.140   .     S
C802   C907    1.352   1_455 S
C802   I933    2.143   1_455 S
C803   C806    1.453   .     S
C803   C486    1.349   1_565 S
C803   I510    2.142   1_565 S
C804   C805    1.426   .     S
C805   O837    1.272   .     A
C805   O843    1.278   .     A
C806   O838    1.268   .     A
C806   O844    1.278   .     A
C807   C812    1.388   .     A
C807   C336    1.392   1_556 S
C807   I353    2.112   1_556 S
C808   O833    1.273   .     A
C808   C811    1.448   .     S
C808   O835    1.282   .     A
C809   O836    1.283   .     A
C809   O834    1.283   .     A
C810   H823    1.084   .     S
C812   H820    1.083   .     S
C813   H825    1.076   .     S
C814   C815    1.423   .     A
C814   C336    1.417   1_556 S
C814   C339    1.426   1_556 S
C815   C819    1.410   .     A
C817   C818    1.390   .     A
C817   C333    1.400   1_556 S
C817   C339    1.424   1_556 S
C818   C819    1.382   .     A
C818   H822    1.084   .     S
C819   H826    1.080   .     S
I827   C855    2.143   .     S
I829   C486    2.141   1_565 S
I831   C907    2.140   1_455 S
O832   Zn848   1.932   .     S
O832   Zn845   1.959   .     S
O832   Zn846   1.950   .     S
O832   Zn847   1.944   .     S
O833   Zn846   1.932   .     S
O834   Zn848   1.941   .     S
O835   Zn847   1.936   .     S
O836   Zn845   1.927   .     S
O837   Zn845   1.936   .     S
O838   Zn848   1.940   .     S
O839   Zn846   1.930   .     S
O840   Zn847   1.940   .     S
O841   Zn848   1.939   .     S
O842   Zn845   1.932   .     S
O843   Zn846   1.941   .     S
O844   Zn847   1.934   .     S
C849   O892    1.271   .     A
C849   O894    1.265   .     A
C849   C855    1.428   .     S
C850   C864    1.392   .     A
C850   C869    1.410   .     A
C850   H877    1.077   .     S
C851   H874    1.084   .     S
C851   C863    1.387   .     A
C851   C864    1.396   .     A
C852   O893    1.289   .     A
C852   C854    1.456   .     S
C852   O895    1.274   .     A
C853   C862    1.475   .     S
C853   C868    1.418   .     A
C853   C865    1.402   .     A
C854   C908    1.352   .     S
C854   I937    2.140   .     S
C856   C859    1.453   .     S
C856   C539    1.349   1_565 S
C856   I563    2.142   1_565 S
C857   C858    1.426   .     S
C858   O890    1.272   .     A
C858   O896    1.278   .     A
C859   O891    1.268   .     A
C859   O897    1.278   .     A
C860   C865    1.388   .     A
C860   C389    1.392   1_556 S
C860   I406    2.112   1_556 S
C861   O886    1.273   .     A
C861   C864    1.448   .     S
C861   O888    1.282   .     A
C862   O889    1.283   .     A
C862   O887    1.283   .     A
C863   H876    1.084   .     S
C865   H873    1.083   .     S
C866   H878    1.076   .     S
C867   C868    1.423   .     A
C867   C389    1.417   1_556 S
C867   C392    1.426   1_556 S
C868   C872    1.410   .     A
C870   C871    1.390   .     A
C870   C386    1.400   1_556 S
C870   C392    1.424   1_556 S
C871   C872    1.382   .     A
C871   H875    1.084   .     S
C872   H879    1.080   .     S
I880   C908    2.143   .     S
I882   C539    2.141   1_565 S
O885   Zn901   1.932   .     S
O885   Zn898   1.959   .     S
O885   Zn899   1.950   .     S
O885   Zn900   1.944   .     S
O886   Zn899   1.932   .     S
O887   Zn901   1.941   .     S
O888   Zn900   1.936   .     S
O889   Zn898   1.927   .     S
O890   Zn898   1.936   .     S
O891   Zn901   1.940   .     S
O892   Zn899   1.930   .     S
O893   Zn900   1.940   .     S
O894   Zn901   1.939   .     S
O895   Zn898   1.932   .     S
O896   Zn899   1.941   .     S
O897   Zn900   1.934   .     S
C902   O945    1.271   .     A
C902   O947    1.265   .     A
C902   C908    1.428   .     S
C903   C917    1.392   .     A
C903   C922    1.410   .     A
C903   H930    1.077   .     S
C904   H927    1.084   .     S
C904   C916    1.387   .     A
C904   C917    1.396   .     A
C905   O946    1.289   .     A
C905   C907    1.456   .     S
C905   O948    1.274   .     A
C906   C915    1.475   .     S
C906   C921    1.418   .     A
C906   C918    1.402   .     A
C907   C802    1.352   1_655 S
C907   I831    2.140   1_655 S
C909   C912    1.453   .     S
C909   C592    1.349   1_565 S
C909   I616    2.142   1_565 S
C910   C911    1.426   .     S
C911   O943    1.272   .     A
C911   O949    1.278   .     A
C912   O944    1.268   .     A
C912   O950    1.278   .     A
C913   C918    1.388   .     A
C913   C442    1.392   1_556 S
C913   I459    2.112   1_556 S
C914   O939    1.273   .     A
C914   C917    1.448   .     S
C914   O941    1.282   .     A
C915   O942    1.283   .     A
C915   O940    1.283   .     A
C916   H929    1.084   .     S
C918   H926    1.083   .     S
C919   H931    1.076   .     S
C920   C921    1.423   .     A
C920   C442    1.417   1_556 S
C920   C445    1.426   1_556 S
C921   C925    1.410   .     A
C923   C924    1.390   .     A
C923   C439    1.400   1_556 S
C923   C445    1.424   1_556 S
C924   C925    1.382   .     A
C924   H928    1.084   .     S
C925   H932    1.080   .     S
I933   C802    2.143   1_655 S
I935   C592    2.141   1_565 S
O938   Zn954   1.932   .     S
O938   Zn951   1.959   .     S
O938   Zn952   1.950   .     S
O938   Zn953   1.944   .     S
O939   Zn952   1.932   .     S
O940   Zn954   1.941   .     S
O941   Zn953   1.936   .     S
O942   Zn951   1.927   .     S
O943   Zn951   1.936   .     S
O944   Zn954   1.940   .     S
O945   Zn952   1.930   .     S
O946   Zn953   1.940   .     S
O947   Zn954   1.939   .     S
O948   Zn951   1.932   .     S
O949   Zn952   1.941   .     S
O950   Zn953   1.934   .     S
