data_str_m1_o1_o17_pcu_sym.3
_audit_creation_date              2020-01-03
_audit_creation_method            'Materials Studio'
_symmetry_space_group_name_H-M    'P1'
_symmetry_Int_Tables_number       1
_symmetry_cell_setting            triclinic
loop_
_symmetry_equiv_pos_as_xyz
  x,y,z
_cell_length_a                    36.6914
_cell_length_b                    36.6913
_cell_length_c                    34.3883
_cell_angle_alpha                 90.0027
_cell_angle_beta                  90.0024
_cell_angle_gamma                 89.9576
loop_
_atom_site_label
_atom_site_type_symbol
_atom_site_fract_x
_atom_site_fract_y
_atom_site_fract_z
_atom_site_U_iso_or_equiv
_atom_site_adp_type
_atom_site_occupancy
C1     C     0.48529   0.28001   0.41781   0.00000  Uiso   1.00
C2     C     0.26462   0.46994   0.08219   0.00000  Uiso   1.00
C3     C     0.22081   0.01667   0.54124   0.00000  Uiso   1.00
C4     C     0.48315   0.27908   0.45876   0.00000  Uiso   1.00
C5     C     0.01685   0.22092   0.54124   0.00000  Uiso   1.00
C6     C     0.22081   0.01667   0.45876   0.00000  Uiso   1.00
C7     C     0.27919   0.48333   0.54124   0.00000  Uiso   1.00
C8     C     0.26675   0.47085   0.95876   0.00000  Uiso   1.00
C9     C     0.23325   0.02915   0.04124   0.00000  Uiso   1.00
C10    C     0.02918   0.23332   0.95876   0.00000  Uiso   1.00
C11    C     0.47082   0.26668   0.04124   0.00000  Uiso   1.00
C12    C     0.23326   0.02915   0.95876   0.00000  Uiso   1.00
C13    C     0.46992   0.26457   0.91780   0.00000  Uiso   1.00
C14    C     0.26674   0.47085   0.04124   0.00000  Uiso   1.00
C15    C     0.47082   0.26669   0.95876   0.00000  Uiso   1.00
C16    C     0.02918   0.23332   0.04124   0.00000  Uiso   1.00
C17    C     0.09812   0.34811   0.25000   0.00000  Uiso   1.00
C18    C     0.40189   0.15189   0.75000   0.00000  Uiso   1.00
C19    C     0.15189   0.09811   0.25000   0.00000  Uiso   1.00
C20    C     0.34811   0.40189   0.75000   0.00000  Uiso   1.00
C21    C     0.40189   0.15188   0.25000   0.00000  Uiso   1.00
C22    C     0.09811   0.34811   0.75000   0.00000  Uiso   1.00
C23    C     0.34811   0.40189   0.25000   0.00000  Uiso   1.00
C24    C     0.03009   0.23544   0.08220   0.00000  Uiso   1.00
C25    C     0.15189   0.09811   0.75000   0.00000  Uiso   1.00
C26    C     0.09811   0.15189   0.75000   0.00000  Uiso   1.00
C27    C     0.40189   0.34811   0.25000   0.00000  Uiso   1.00
C28    C     0.15189   0.40188   0.75000   0.00000  Uiso   1.00
C29    C     0.34811   0.09812   0.25000   0.00000  Uiso   1.00
C30    C     0.40189   0.34811   0.75000   0.00000  Uiso   1.00
C31    C     0.09811   0.15189   0.25000   0.00000  Uiso   1.00
C32    C     0.34811   0.09811   0.75000   0.00000  Uiso   1.00
C33    C     0.15189   0.40189   0.25000   0.00000  Uiso   1.00
C34    C     0.00000   0.25000   0.47934   0.00000  Uiso   1.00
C35    C     0.26462   0.46994   0.91780   0.00000  Uiso   1.00
C36    C    -0.00000   0.25000   0.52066   0.00000  Uiso   1.00
C37    C     0.25000   0.00000   0.47934   0.00000  Uiso   1.00
C38    C     0.25000  -0.00000   0.52066   0.00000  Uiso   1.00
C39    C     0.25000   0.00000   0.97934   0.00000  Uiso   1.00
C40    C     0.25000  -0.00000   0.02066   0.00000  Uiso   1.00
C41    C     0.00000   0.25000   0.97934   0.00000  Uiso   1.00
C42    C     0.00000   0.25000   0.02066   0.00000  Uiso   1.00
C43    C     0.23538   0.03006   0.08220   0.00000  Uiso   1.00
C44    C     0.03009   0.23544   0.91780   0.00000  Uiso   1.00
C45    C     0.46992   0.26456   0.08220   0.00000  Uiso   1.00
C46    C     0.00000   0.25000   0.39795   0.00000  Uiso   1.00
C47    C    -0.00000   0.25000   0.60205   0.00000  Uiso   1.00
C48    C     0.25000   0.00000   0.39794   0.00000  Uiso   1.00
C49    C     0.01471   0.21999   0.58219   0.00000  Uiso   1.00
C50    C     0.25000  -0.00000   0.60206   0.00000  Uiso   1.00
C51    C     0.25000   0.00000   0.89794   0.00000  Uiso   1.00
C52    C     0.25000  -0.00000   0.10205   0.00000  Uiso   1.00
C53    C     0.00000   0.25000   0.89794   0.00000  Uiso   1.00
C54    C     0.00000   0.25000   0.10206   0.00000  Uiso   1.00
C55    C     0.03560   0.19391   0.47986   0.00000  Uiso   1.00
C56    C     0.46440   0.30608   0.52014   0.00000  Uiso   1.00
C57    C     0.30632   0.46477   0.47986   0.00000  Uiso   1.00
C58    C     0.19368   0.03523   0.52014   0.00000  Uiso   1.00
C59    C     0.46440   0.30608   0.47986   0.00000  Uiso   1.00
C60    C     0.21991   0.01455   0.41780   0.00000  Uiso   1.00
C61    C     0.03560   0.19391   0.52014   0.00000  Uiso   1.00
C62    C     0.19368   0.03523   0.47986   0.00000  Uiso   1.00
C63    C     0.30632   0.46477   0.52014   0.00000  Uiso   1.00
C64    C     0.28538   0.44377   0.97986   0.00000  Uiso   1.00
C65    C     0.21462   0.05623   0.02014   0.00000  Uiso   1.00
C66    C     0.05630   0.21474   0.97986   0.00000  Uiso   1.00
C67    C     0.44370   0.28526   0.02014   0.00000  Uiso   1.00
C68    C     0.21462   0.05623   0.97986   0.00000  Uiso   1.00
C69    C     0.28538   0.44377   0.02014   0.00000  Uiso   1.00
C70    C     0.44370   0.28526   0.97986   0.00000  Uiso   1.00
C71    C     0.28009   0.48544   0.58220   0.00000  Uiso   1.00
C72    C     0.05630   0.21474   0.02014   0.00000  Uiso   1.00
C73    C     0.25000   0.00000   0.35573   0.00000  Uiso   1.00
C74    C     0.25000  -0.00000   0.64427   0.00000  Uiso   1.00
C75    C     0.00000   0.25000   0.35573   0.00000  Uiso   1.00
C76    C    -0.00000   0.25000   0.64427   0.00000  Uiso   1.00
C77    C     0.00000   0.25000   0.85573   0.00000  Uiso   1.00
C78    C     0.00000   0.25000   0.14427   0.00000  Uiso   1.00
C79    C     0.25000   0.00000   0.85573   0.00000  Uiso   1.00
C80    C     0.25000   0.00000   0.14427   0.00000  Uiso   1.00
C81    C     0.17995   0.07005   0.25000   0.00000  Uiso   1.00
C82    C     0.01472   0.21999   0.41781   0.00000  Uiso   1.00
C83    C     0.32005   0.42995   0.75000   0.00000  Uiso   1.00
C84    C     0.42995   0.17995   0.25000   0.00000  Uiso   1.00
C85    C     0.07005   0.32005   0.75000   0.00000  Uiso   1.00
C86    C     0.32005   0.42995   0.25000   0.00000  Uiso   1.00
C87    C     0.17995   0.07005   0.75000   0.00000  Uiso   1.00
C88    C     0.07005   0.32005   0.25000   0.00000  Uiso   1.00
C89    C     0.42995   0.17995   0.75000   0.00000  Uiso   1.00
C90    C     0.17995   0.42995   0.75000   0.00000  Uiso   1.00
C91    C     0.32005   0.07005   0.25000   0.00000  Uiso   1.00
C92    C     0.42995   0.32005   0.75000   0.00000  Uiso   1.00
C93    C     0.48528   0.28001   0.58219   0.00000  Uiso   1.00
C94    C     0.07005   0.17995   0.25000   0.00000  Uiso   1.00
C95    C     0.32005   0.07005   0.75000   0.00000  Uiso   1.00
C96    C     0.17995   0.42995   0.25000   0.00000  Uiso   1.00
C97    C     0.07005   0.17995   0.75000   0.00000  Uiso   1.00
C98    C     0.42995   0.32005   0.25000   0.00000  Uiso   1.00
C99    C     0.13021   0.39651   0.21683   0.00000  Uiso   1.00
C100   C     0.36980   0.10348   0.78316   0.00000  Uiso   1.00
C101   C     0.10393   0.13067   0.21658   0.00000  Uiso   1.00
C102   C     0.39608   0.36934   0.78341   0.00000  Uiso   1.00
C103   C     0.36979   0.10349   0.21683   0.00000  Uiso   1.00
C104   C     0.28009   0.48545   0.41780   0.00000  Uiso   1.00
C105   C     0.13023   0.39649   0.78317   0.00000  Uiso   1.00
C106   C     0.39611   0.36937   0.21660   0.00000  Uiso   1.00
C107   C     0.10389   0.13063   0.78339   0.00000  Uiso   1.00
C108   C     0.13063   0.10389   0.78339   0.00000  Uiso   1.00
C109   C     0.36937   0.39611   0.21660   0.00000  Uiso   1.00
C110   C     0.10351   0.36977   0.78317   0.00000  Uiso   1.00
C111   C     0.39651   0.13021   0.21683   0.00000  Uiso   1.00
C112   C     0.36934   0.39608   0.78341   0.00000  Uiso   1.00
C113   C     0.13067   0.10393   0.21658   0.00000  Uiso   1.00
C114   C     0.39652   0.13020   0.78316   0.00000  Uiso   1.00
C115   C     0.21991   0.01455   0.58220   0.00000  Uiso   1.00
C116   C     0.10349   0.36979   0.21683   0.00000  Uiso   1.00
C117   C     0.38020   0.14652   0.71684   0.00000  Uiso   1.00
C118   C     0.11979   0.35349   0.28317   0.00000  Uiso   1.00
C119   C     0.35392   0.38066   0.71659   0.00000  Uiso   1.00
C120   C     0.14607   0.11933   0.28341   0.00000  Uiso   1.00
C121   C     0.11977   0.35351   0.71683   0.00000  Uiso   1.00
C122   C     0.38021   0.14651   0.28317   0.00000  Uiso   1.00
C123   C     0.14611   0.11937   0.71661   0.00000  Uiso   1.00
C124   C     0.35389   0.38063   0.28340   0.00000  Uiso   1.00
C125   C     0.38063   0.35389   0.28340   0.00000  Uiso   1.00
C126   C     0.23538   0.03006   0.91780   0.00000  Uiso   1.00
C127   C     0.11937   0.14611   0.71661   0.00000  Uiso   1.00
C128   C     0.35349   0.11979   0.28317   0.00000  Uiso   1.00
C129   C     0.14649   0.38023   0.71683   0.00000  Uiso   1.00
C130   C     0.11933   0.14607   0.28341   0.00000  Uiso   1.00
C131   C     0.38066   0.35392   0.71659   0.00000  Uiso   1.00
C132   C     0.14651   0.38021   0.28317   0.00000  Uiso   1.00
C133   C     0.35348   0.11980   0.71684   0.00000  Uiso   1.00
C134   C     0.01685   0.22092   0.45876   0.00000  Uiso   1.00
C135   C     0.48315   0.27908   0.54124   0.00000  Uiso   1.00
C136   C     0.27919   0.48333   0.45876   0.00000  Uiso   1.00
F137   F     0.05629   0.16815   0.46226   0.00000  Uiso   1.00
F138   F     0.19403   0.08209   0.03774   0.00000  Uiso   1.00
F139   F     0.08221   0.19422   0.96227   0.00000  Uiso   1.00
F140   F     0.41780   0.30578   0.03773   0.00000  Uiso   1.00
F141   F     0.19403   0.08209   0.96227   0.00000  Uiso   1.00
F142   F     0.30597   0.41791   0.03773   0.00000  Uiso   1.00
F143   F     0.41780   0.30578   0.96226   0.00000  Uiso   1.00
F144   F     0.08221   0.19422   0.03774   0.00000  Uiso   1.00
F145   F     0.13539   0.41646   0.18402   0.00000  Uiso   1.00
F146   F     0.36463   0.08353   0.81597   0.00000  Uiso   1.00
F147   F     0.08441   0.13633   0.18356   0.00000  Uiso   1.00
F148   F     0.44371   0.33185   0.53774   0.00000  Uiso   1.00
F149   F     0.41561   0.36369   0.81643   0.00000  Uiso   1.00
F150   F     0.36461   0.08354   0.18402   0.00000  Uiso   1.00
F151   F     0.13544   0.41642   0.81599   0.00000  Uiso   1.00
F152   F     0.41566   0.36375   0.18359   0.00000  Uiso   1.00
F153   F     0.08433   0.13625   0.81640   0.00000  Uiso   1.00
F154   F     0.13625   0.08433   0.81640   0.00000  Uiso   1.00
F155   F     0.36375   0.41566   0.18359   0.00000  Uiso   1.00
F156   F     0.08358   0.36457   0.81599   0.00000  Uiso   1.00
F157   F     0.41646   0.13539   0.18402   0.00000  Uiso   1.00
F158   F     0.36369   0.41561   0.81643   0.00000  Uiso   1.00
F159   F     0.33224   0.44427   0.46227   0.00000  Uiso   1.00
F160   F     0.13633   0.08441   0.18356   0.00000  Uiso   1.00
F161   F     0.41648   0.13538   0.81597   0.00000  Uiso   1.00
F162   F     0.08354   0.36460   0.18402   0.00000  Uiso   1.00
F163   F     0.38537   0.16647   0.68403   0.00000  Uiso   1.00
F164   F     0.11461   0.33354   0.31598   0.00000  Uiso   1.00
F165   F     0.33439   0.38631   0.68357   0.00000  Uiso   1.00
F166   F     0.16559   0.11367   0.31644   0.00000  Uiso   1.00
F167   F     0.11457   0.33357   0.68401   0.00000  Uiso   1.00
F168   F     0.38539   0.16646   0.31598   0.00000  Uiso   1.00
F169   F     0.16567   0.11375   0.68360   0.00000  Uiso   1.00
F170   F     0.16776   0.05573   0.53773   0.00000  Uiso   1.00
F171   F     0.33434   0.38625   0.31640   0.00000  Uiso   1.00
F172   F     0.38625   0.33433   0.31640   0.00000  Uiso   1.00
F173   F     0.11376   0.16567   0.68360   0.00000  Uiso   1.00
F174   F     0.33354   0.11461   0.31598   0.00000  Uiso   1.00
F175   F     0.16642   0.38543   0.68401   0.00000  Uiso   1.00
F176   F     0.11367   0.16559   0.31644   0.00000  Uiso   1.00
F177   F     0.38630   0.33439   0.68357   0.00000  Uiso   1.00
F178   F     0.16646   0.38540   0.31598   0.00000  Uiso   1.00
F179   F     0.33352   0.11462   0.68402   0.00000  Uiso   1.00
F180   F     0.44371   0.33185   0.46226   0.00000  Uiso   1.00
F181   F     0.05629   0.16815   0.53774   0.00000  Uiso   1.00
F182   F     0.16776   0.05573   0.46226   0.00000  Uiso   1.00
F183   F     0.33224   0.44427   0.53773   0.00000  Uiso   1.00
F184   F     0.30597   0.41791   0.96226   0.00000  Uiso   1.00
I185   I     0.47071   0.32745   0.38397   0.00000  Uiso   1.00
I186   I     0.27908   0.42248   0.11605   0.00000  Uiso   1.00
I187   I     0.42244   0.27897   0.88393   0.00000  Uiso   1.00
I188   I     0.07756   0.22104   0.11607   0.00000  Uiso   1.00
I189   I     0.27909   0.42248   0.88394   0.00000  Uiso   1.00
I190   I     0.22091   0.07752   0.11606   0.00000  Uiso   1.00
I191   I     0.07756   0.22103   0.88394   0.00000  Uiso   1.00
I192   I     0.42244   0.27896   0.11606   0.00000  Uiso   1.00
I193   I     0.02929   0.17255   0.61603   0.00000  Uiso   1.00
I194   I     0.17243   0.02894   0.38392   0.00000  Uiso   1.00
I195   I     0.32757   0.47105   0.61607   0.00000  Uiso   1.00
I196   I     0.02929   0.17255   0.38396   0.00000  Uiso   1.00
I197   I     0.47071   0.32745   0.61603   0.00000  Uiso   1.00
I198   I     0.32757   0.47107   0.38393   0.00000  Uiso   1.00
I199   I     0.17243   0.02895   0.61607   0.00000  Uiso   1.00
I200   I     0.22091   0.07752   0.88395   0.00000  Uiso   1.00
O201   O     0.25000   0.00000   0.25000   0.00000  Uiso   1.00
O202   O     0.25000   0.46963   0.66245   0.00000  Uiso   1.00
O203   O     0.46964   0.25000   0.33755   0.00000  Uiso   1.00
O204   O     0.03037   0.25000   0.66245   0.00000  Uiso   1.00
O205   O     0.00000   0.21963   0.83755   0.00000  Uiso   1.00
O206   O     0.00000   0.28036   0.16245   0.00000  Uiso   1.00
O207   O     0.28037   0.00000   0.83755   0.00000  Uiso   1.00
O208   O     0.21964   0.00000   0.16245   0.00000  Uiso   1.00
O209   O     0.00000   0.28036   0.83755   0.00000  Uiso   1.00
O210   O     0.00000   0.21963   0.16245   0.00000  Uiso   1.00
O211   O     0.21964   0.00000   0.83755   0.00000  Uiso   1.00
O212   O     0.25000   0.00000   0.75000   0.00000  Uiso   1.00
O213   O     0.28037   0.00000   0.16245   0.00000  Uiso   1.00
O214   O     0.20725   0.07308   0.27302   0.00000  Uiso   1.00
O215   O     0.29276   0.42692   0.72698   0.00000  Uiso   1.00
O216   O     0.42693   0.20724   0.27302   0.00000  Uiso   1.00
O217   O     0.07308   0.29275   0.72698   0.00000  Uiso   1.00
O218   O     0.29276   0.42692   0.27302   0.00000  Uiso   1.00
O219   O     0.20725   0.07308   0.72698   0.00000  Uiso   1.00
O220   O     0.07308   0.29275   0.27302   0.00000  Uiso   1.00
O221   O     0.42693   0.20724   0.72698   0.00000  Uiso   1.00
O222   O     0.20725   0.42692   0.72698   0.00000  Uiso   1.00
O223   O     0.00000   0.25000   0.25000   0.00000  Uiso   1.00
O224   O     0.29276   0.07308   0.27302   0.00000  Uiso   1.00
O225   O     0.42693   0.29275   0.72698   0.00000  Uiso   1.00
O226   O     0.07308   0.20724   0.27302   0.00000  Uiso   1.00
O227   O     0.29276   0.07308   0.72698   0.00000  Uiso   1.00
O228   O     0.20725   0.42692   0.27302   0.00000  Uiso   1.00
O229   O     0.07308   0.20724   0.72698   0.00000  Uiso   1.00
O230   O     0.42693   0.29275   0.27302   0.00000  Uiso   1.00
O231   O     0.45725   0.32307   0.77302   0.00000  Uiso   1.00
O232   O     0.04276   0.17692   0.22698   0.00000  Uiso   1.00
O233   O     0.17693   0.45724   0.77302   0.00000  Uiso   1.00
O234   O     0.00000   0.25000   0.75000   0.00000  Uiso   1.00
O235   O     0.32308   0.04276   0.22698   0.00000  Uiso   1.00
O236   O     0.04276   0.17692   0.77302   0.00000  Uiso   1.00
O237   O     0.45725   0.32307   0.22698   0.00000  Uiso   1.00
O238   O     0.32308   0.04276   0.77302   0.00000  Uiso   1.00
O239   O     0.17693   0.45724   0.22698   0.00000  Uiso   1.00
O240   O     0.45725   0.17692   0.22698   0.00000  Uiso   1.00
O241   O     0.04276   0.32307   0.77302   0.00000  Uiso   1.00
O242   O     0.17693   0.04276   0.22698   0.00000  Uiso   1.00
O243   O     0.32308   0.45724   0.77302   0.00000  Uiso   1.00
O244   O     0.04276   0.32307   0.22698   0.00000  Uiso   1.00
O245   O     0.25000   0.46963   0.33755   0.00000  Uiso   1.00
O246   O     0.45725   0.17692   0.77302   0.00000  Uiso   1.00
O247   O     0.32308   0.45724   0.22698   0.00000  Uiso   1.00
O248   O     0.17693   0.04276   0.77302   0.00000  Uiso   1.00
O249   O     0.25000   0.03037   0.66245   0.00000  Uiso   1.00
O250   O     0.03037   0.25000   0.33755   0.00000  Uiso   1.00
O251   O     0.46964   0.25000   0.66245   0.00000  Uiso   1.00
O252   O     0.25000   0.03037   0.33755   0.00000  Uiso   1.00
Zn253  Zn    0.20660   0.00000   0.21735   0.00000  Uiso   1.00
Zn254  Zn    0.04341   0.25000   0.28265   0.00000  Uiso   1.00
Zn255  Zn    0.25000   0.45659   0.71735   0.00000  Uiso   1.00
Zn256  Zn    0.25000   0.04341   0.28265   0.00000  Uiso   1.00
Zn257  Zn    0.04341   0.25000   0.71735   0.00000  Uiso   1.00
Zn258  Zn    0.45660   0.25000   0.28265   0.00000  Uiso   1.00
Zn259  Zn    0.25000   0.04341   0.71735   0.00000  Uiso   1.00
Zn260  Zn    0.25000   0.45659   0.28265   0.00000  Uiso   1.00
Zn261  Zn    0.29341   0.00000   0.78265   0.00000  Uiso   1.00
Zn262  Zn    0.00000   0.20659   0.21735   0.00000  Uiso   1.00
Zn263  Zn    0.00000   0.29340   0.78265   0.00000  Uiso   1.00
Zn264  Zn    0.29341   0.00000   0.21735   0.00000  Uiso   1.00
Zn265  Zn    0.20660   0.00000   0.78265   0.00000  Uiso   1.00
Zn266  Zn    0.00000   0.29340   0.21735   0.00000  Uiso   1.00
Zn267  Zn    0.00000   0.20659   0.78265   0.00000  Uiso   1.00
Zn268  Zn    0.45660   0.25000   0.71735   0.00000  Uiso   1.00
C269   C     0.98529   0.28001   0.41781   0.00000  Uiso   1.00
C270   C     0.76462   0.46994   0.08219   0.00000  Uiso   1.00
C271   C     0.72081   0.01667   0.54124   0.00000  Uiso   1.00
C272   C     0.98315   0.27908   0.45876   0.00000  Uiso   1.00
C273   C     0.51685   0.22092   0.54124   0.00000  Uiso   1.00
C274   C     0.72081   0.01667   0.45876   0.00000  Uiso   1.00
C275   C     0.77919   0.48333   0.54124   0.00000  Uiso   1.00
C276   C     0.76675   0.47085   0.95876   0.00000  Uiso   1.00
C277   C     0.73325   0.02915   0.04124   0.00000  Uiso   1.00
C278   C     0.52918   0.23332   0.95876   0.00000  Uiso   1.00
C279   C     0.97082   0.26668   0.04124   0.00000  Uiso   1.00
C280   C     0.73326   0.02915   0.95876   0.00000  Uiso   1.00
C281   C     0.96992   0.26457   0.91780   0.00000  Uiso   1.00
C282   C     0.76674   0.47085   0.04124   0.00000  Uiso   1.00
C283   C     0.97082   0.26669   0.95876   0.00000  Uiso   1.00
C284   C     0.52918   0.23332   0.04124   0.00000  Uiso   1.00
C285   C     0.59812   0.34811   0.25000   0.00000  Uiso   1.00
C286   C     0.90189   0.15189   0.75000   0.00000  Uiso   1.00
C287   C     0.65189   0.09811   0.25000   0.00000  Uiso   1.00
C288   C     0.84811   0.40189   0.75000   0.00000  Uiso   1.00
C289   C     0.90189   0.15188   0.25000   0.00000  Uiso   1.00
C290   C     0.59811   0.34811   0.75000   0.00000  Uiso   1.00
C291   C     0.84811   0.40189   0.25000   0.00000  Uiso   1.00
C292   C     0.53009   0.23544   0.08220   0.00000  Uiso   1.00
C293   C     0.65189   0.09811   0.75000   0.00000  Uiso   1.00
C294   C     0.59811   0.15189   0.75000   0.00000  Uiso   1.00
C295   C     0.90189   0.34811   0.25000   0.00000  Uiso   1.00
C296   C     0.65189   0.40188   0.75000   0.00000  Uiso   1.00
C297   C     0.84811   0.09812   0.25000   0.00000  Uiso   1.00
C298   C     0.90189   0.34811   0.75000   0.00000  Uiso   1.00
C299   C     0.59811   0.15189   0.25000   0.00000  Uiso   1.00
C300   C     0.84811   0.09811   0.75000   0.00000  Uiso   1.00
C301   C     0.65189   0.40189   0.25000   0.00000  Uiso   1.00
C302   C     0.50000   0.25000   0.47934   0.00000  Uiso   1.00
C303   C     0.76462   0.46994   0.91780   0.00000  Uiso   1.00
C304   C     0.50000   0.25000   0.52066   0.00000  Uiso   1.00
C305   C     0.75000   0.00000   0.47934   0.00000  Uiso   1.00
C306   C     0.75000  -0.00000   0.52066   0.00000  Uiso   1.00
C307   C     0.75000   0.00000   0.97934   0.00000  Uiso   1.00
C308   C     0.75000  -0.00000   0.02066   0.00000  Uiso   1.00
C309   C     0.50000   0.25000   0.97934   0.00000  Uiso   1.00
C310   C     0.50000   0.25000   0.02066   0.00000  Uiso   1.00
C311   C     0.73538   0.03006   0.08220   0.00000  Uiso   1.00
C312   C     0.53009   0.23544   0.91780   0.00000  Uiso   1.00
C313   C     0.96992   0.26456   0.08220   0.00000  Uiso   1.00
C314   C     0.50000   0.25000   0.39795   0.00000  Uiso   1.00
C315   C     0.50000   0.25000   0.60205   0.00000  Uiso   1.00
C316   C     0.75000   0.00000   0.39794   0.00000  Uiso   1.00
C317   C     0.51471   0.21999   0.58219   0.00000  Uiso   1.00
C318   C     0.75000  -0.00000   0.60206   0.00000  Uiso   1.00
C319   C     0.75000   0.00000   0.89794   0.00000  Uiso   1.00
C320   C     0.75000  -0.00000   0.10205   0.00000  Uiso   1.00
C321   C     0.50000   0.25000   0.89794   0.00000  Uiso   1.00
C322   C     0.50000   0.25000   0.10206   0.00000  Uiso   1.00
C323   C     0.53560   0.19391   0.47986   0.00000  Uiso   1.00
C324   C     0.96440   0.30608   0.52014   0.00000  Uiso   1.00
C325   C     0.80632   0.46477   0.47986   0.00000  Uiso   1.00
C326   C     0.69368   0.03523   0.52014   0.00000  Uiso   1.00
C327   C     0.96440   0.30608   0.47986   0.00000  Uiso   1.00
C328   C     0.71991   0.01455   0.41780   0.00000  Uiso   1.00
C329   C     0.53560   0.19391   0.52014   0.00000  Uiso   1.00
C330   C     0.69368   0.03523   0.47986   0.00000  Uiso   1.00
C331   C     0.80632   0.46477   0.52014   0.00000  Uiso   1.00
C332   C     0.78538   0.44377   0.97986   0.00000  Uiso   1.00
C333   C     0.71462   0.05623   0.02014   0.00000  Uiso   1.00
C334   C     0.55630   0.21474   0.97986   0.00000  Uiso   1.00
C335   C     0.94370   0.28526   0.02014   0.00000  Uiso   1.00
C336   C     0.71462   0.05623   0.97986   0.00000  Uiso   1.00
C337   C     0.78538   0.44377   0.02014   0.00000  Uiso   1.00
C338   C     0.94370   0.28526   0.97986   0.00000  Uiso   1.00
C339   C     0.78009   0.48544   0.58220   0.00000  Uiso   1.00
C340   C     0.55630   0.21474   0.02014   0.00000  Uiso   1.00
C341   C     0.75000   0.00000   0.35573   0.00000  Uiso   1.00
C342   C     0.75000  -0.00000   0.64427   0.00000  Uiso   1.00
C343   C     0.50000   0.25000   0.35573   0.00000  Uiso   1.00
C344   C     0.50000   0.25000   0.64427   0.00000  Uiso   1.00
C345   C     0.50000   0.25000   0.85573   0.00000  Uiso   1.00
C346   C     0.50000   0.25000   0.14427   0.00000  Uiso   1.00
C347   C     0.75000   0.00000   0.85573   0.00000  Uiso   1.00
C348   C     0.75000   0.00000   0.14427   0.00000  Uiso   1.00
C349   C     0.67995   0.07005   0.25000   0.00000  Uiso   1.00
C350   C     0.51472   0.21999   0.41781   0.00000  Uiso   1.00
C351   C     0.82005   0.42995   0.75000   0.00000  Uiso   1.00
C352   C     0.92995   0.17995   0.25000   0.00000  Uiso   1.00
C353   C     0.57005   0.32005   0.75000   0.00000  Uiso   1.00
C354   C     0.82005   0.42995   0.25000   0.00000  Uiso   1.00
C355   C     0.67995   0.07005   0.75000   0.00000  Uiso   1.00
C356   C     0.57005   0.32005   0.25000   0.00000  Uiso   1.00
C357   C     0.92995   0.17995   0.75000   0.00000  Uiso   1.00
C358   C     0.67995   0.42995   0.75000   0.00000  Uiso   1.00
C359   C     0.82005   0.07005   0.25000   0.00000  Uiso   1.00
C360   C     0.92995   0.32005   0.75000   0.00000  Uiso   1.00
C361   C     0.98528   0.28001   0.58219   0.00000  Uiso   1.00
C362   C     0.57005   0.17995   0.25000   0.00000  Uiso   1.00
C363   C     0.82005   0.07005   0.75000   0.00000  Uiso   1.00
C364   C     0.67995   0.42995   0.25000   0.00000  Uiso   1.00
C365   C     0.57005   0.17995   0.75000   0.00000  Uiso   1.00
C366   C     0.92995   0.32005   0.25000   0.00000  Uiso   1.00
C367   C     0.63021   0.39651   0.21683   0.00000  Uiso   1.00
C368   C     0.86980   0.10348   0.78316   0.00000  Uiso   1.00
C369   C     0.60393   0.13067   0.21658   0.00000  Uiso   1.00
C370   C     0.89608   0.36934   0.78341   0.00000  Uiso   1.00
C371   C     0.86979   0.10349   0.21683   0.00000  Uiso   1.00
C372   C     0.78009   0.48545   0.41780   0.00000  Uiso   1.00
C373   C     0.63023   0.39649   0.78317   0.00000  Uiso   1.00
C374   C     0.89611   0.36937   0.21660   0.00000  Uiso   1.00
C375   C     0.60389   0.13063   0.78339   0.00000  Uiso   1.00
C376   C     0.63063   0.10389   0.78339   0.00000  Uiso   1.00
C377   C     0.86937   0.39611   0.21660   0.00000  Uiso   1.00
C378   C     0.60351   0.36977   0.78317   0.00000  Uiso   1.00
C379   C     0.89651   0.13021   0.21683   0.00000  Uiso   1.00
C380   C     0.86934   0.39608   0.78341   0.00000  Uiso   1.00
C381   C     0.63067   0.10393   0.21658   0.00000  Uiso   1.00
C382   C     0.89652   0.13020   0.78316   0.00000  Uiso   1.00
C383   C     0.71991   0.01455   0.58220   0.00000  Uiso   1.00
C384   C     0.60349   0.36979   0.21683   0.00000  Uiso   1.00
C385   C     0.88020   0.14652   0.71684   0.00000  Uiso   1.00
C386   C     0.61979   0.35349   0.28317   0.00000  Uiso   1.00
C387   C     0.85392   0.38066   0.71659   0.00000  Uiso   1.00
C388   C     0.64607   0.11933   0.28341   0.00000  Uiso   1.00
C389   C     0.61977   0.35351   0.71683   0.00000  Uiso   1.00
C390   C     0.88021   0.14651   0.28317   0.00000  Uiso   1.00
C391   C     0.64611   0.11937   0.71661   0.00000  Uiso   1.00
C392   C     0.85389   0.38063   0.28340   0.00000  Uiso   1.00
C393   C     0.88063   0.35389   0.28340   0.00000  Uiso   1.00
C394   C     0.73538   0.03006   0.91780   0.00000  Uiso   1.00
C395   C     0.61937   0.14611   0.71661   0.00000  Uiso   1.00
C396   C     0.85349   0.11979   0.28317   0.00000  Uiso   1.00
C397   C     0.64649   0.38023   0.71683   0.00000  Uiso   1.00
C398   C     0.61933   0.14607   0.28341   0.00000  Uiso   1.00
C399   C     0.88066   0.35392   0.71659   0.00000  Uiso   1.00
C400   C     0.64651   0.38021   0.28317   0.00000  Uiso   1.00
C401   C     0.85348   0.11980   0.71684   0.00000  Uiso   1.00
C402   C     0.51685   0.22092   0.45876   0.00000  Uiso   1.00
C403   C     0.98315   0.27908   0.54124   0.00000  Uiso   1.00
C404   C     0.77919   0.48333   0.45876   0.00000  Uiso   1.00
F405   F     0.55629   0.16815   0.46226   0.00000  Uiso   1.00
F406   F     0.69403   0.08209   0.03774   0.00000  Uiso   1.00
F407   F     0.58221   0.19422   0.96227   0.00000  Uiso   1.00
F408   F     0.91780   0.30578   0.03773   0.00000  Uiso   1.00
F409   F     0.69403   0.08209   0.96227   0.00000  Uiso   1.00
F410   F     0.80597   0.41791   0.03773   0.00000  Uiso   1.00
F411   F     0.91780   0.30578   0.96226   0.00000  Uiso   1.00
F412   F     0.58221   0.19422   0.03774   0.00000  Uiso   1.00
F413   F     0.63539   0.41646   0.18402   0.00000  Uiso   1.00
F414   F     0.86463   0.08353   0.81597   0.00000  Uiso   1.00
F415   F     0.58441   0.13633   0.18356   0.00000  Uiso   1.00
F416   F     0.94371   0.33185   0.53774   0.00000  Uiso   1.00
F417   F     0.91561   0.36369   0.81643   0.00000  Uiso   1.00
F418   F     0.86461   0.08354   0.18402   0.00000  Uiso   1.00
F419   F     0.63544   0.41642   0.81599   0.00000  Uiso   1.00
F420   F     0.91566   0.36375   0.18359   0.00000  Uiso   1.00
F421   F     0.58433   0.13625   0.81640   0.00000  Uiso   1.00
F422   F     0.63625   0.08433   0.81640   0.00000  Uiso   1.00
F423   F     0.86375   0.41566   0.18359   0.00000  Uiso   1.00
F424   F     0.58358   0.36457   0.81599   0.00000  Uiso   1.00
F425   F     0.91646   0.13539   0.18402   0.00000  Uiso   1.00
F426   F     0.86369   0.41561   0.81643   0.00000  Uiso   1.00
F427   F     0.83224   0.44427   0.46227   0.00000  Uiso   1.00
F428   F     0.63633   0.08441   0.18356   0.00000  Uiso   1.00
F429   F     0.91648   0.13538   0.81597   0.00000  Uiso   1.00
F430   F     0.58354   0.36460   0.18402   0.00000  Uiso   1.00
F431   F     0.88537   0.16647   0.68403   0.00000  Uiso   1.00
F432   F     0.61461   0.33354   0.31598   0.00000  Uiso   1.00
F433   F     0.83439   0.38631   0.68357   0.00000  Uiso   1.00
F434   F     0.66559   0.11367   0.31644   0.00000  Uiso   1.00
F435   F     0.61457   0.33357   0.68401   0.00000  Uiso   1.00
F436   F     0.88539   0.16646   0.31598   0.00000  Uiso   1.00
F437   F     0.66567   0.11375   0.68360   0.00000  Uiso   1.00
F438   F     0.66776   0.05573   0.53773   0.00000  Uiso   1.00
F439   F     0.83434   0.38625   0.31640   0.00000  Uiso   1.00
F440   F     0.88625   0.33433   0.31640   0.00000  Uiso   1.00
F441   F     0.61376   0.16567   0.68360   0.00000  Uiso   1.00
F442   F     0.83354   0.11461   0.31598   0.00000  Uiso   1.00
F443   F     0.66642   0.38543   0.68401   0.00000  Uiso   1.00
F444   F     0.61367   0.16559   0.31644   0.00000  Uiso   1.00
F445   F     0.88630   0.33439   0.68357   0.00000  Uiso   1.00
F446   F     0.66646   0.38540   0.31598   0.00000  Uiso   1.00
F447   F     0.83352   0.11462   0.68402   0.00000  Uiso   1.00
F448   F     0.94371   0.33185   0.46226   0.00000  Uiso   1.00
F449   F     0.55629   0.16815   0.53774   0.00000  Uiso   1.00
F450   F     0.66776   0.05573   0.46226   0.00000  Uiso   1.00
F451   F     0.83224   0.44427   0.53773   0.00000  Uiso   1.00
F452   F     0.80597   0.41791   0.96226   0.00000  Uiso   1.00
I453   I     0.97071   0.32745   0.38397   0.00000  Uiso   1.00
I454   I     0.77908   0.42248   0.11605   0.00000  Uiso   1.00
I455   I     0.92244   0.27897   0.88393   0.00000  Uiso   1.00
I456   I     0.57756   0.22104   0.11607   0.00000  Uiso   1.00
I457   I     0.77909   0.42248   0.88394   0.00000  Uiso   1.00
I458   I     0.72091   0.07752   0.11606   0.00000  Uiso   1.00
I459   I     0.57756   0.22103   0.88394   0.00000  Uiso   1.00
I460   I     0.92244   0.27896   0.11606   0.00000  Uiso   1.00
I461   I     0.52929   0.17255   0.61603   0.00000  Uiso   1.00
I462   I     0.67243   0.02894   0.38392   0.00000  Uiso   1.00
I463   I     0.82757   0.47105   0.61607   0.00000  Uiso   1.00
I464   I     0.52929   0.17255   0.38396   0.00000  Uiso   1.00
I465   I     0.97071   0.32745   0.61603   0.00000  Uiso   1.00
I466   I     0.82757   0.47107   0.38393   0.00000  Uiso   1.00
I467   I     0.67243   0.02895   0.61607   0.00000  Uiso   1.00
I468   I     0.72091   0.07752   0.88395   0.00000  Uiso   1.00
O469   O     0.75000   0.00000   0.25000   0.00000  Uiso   1.00
O470   O     0.75000   0.46963   0.66245   0.00000  Uiso   1.00
O471   O     0.96964   0.25000   0.33755   0.00000  Uiso   1.00
O472   O     0.53037   0.25000   0.66245   0.00000  Uiso   1.00
O473   O     0.50000   0.21963   0.83755   0.00000  Uiso   1.00
O474   O     0.50000   0.28036   0.16245   0.00000  Uiso   1.00
O475   O     0.78037   0.00000   0.83755   0.00000  Uiso   1.00
O476   O     0.71964   0.00000   0.16245   0.00000  Uiso   1.00
O477   O     0.50000   0.28036   0.83755   0.00000  Uiso   1.00
O478   O     0.50000   0.21963   0.16245   0.00000  Uiso   1.00
O479   O     0.71964   0.00000   0.83755   0.00000  Uiso   1.00
O480   O     0.75000   0.00000   0.75000   0.00000  Uiso   1.00
O481   O     0.78037   0.00000   0.16245   0.00000  Uiso   1.00
O482   O     0.70725   0.07308   0.27302   0.00000  Uiso   1.00
O483   O     0.79276   0.42692   0.72698   0.00000  Uiso   1.00
O484   O     0.92693   0.20724   0.27302   0.00000  Uiso   1.00
O485   O     0.57308   0.29275   0.72698   0.00000  Uiso   1.00
O486   O     0.79276   0.42692   0.27302   0.00000  Uiso   1.00
O487   O     0.70725   0.07308   0.72698   0.00000  Uiso   1.00
O488   O     0.57308   0.29275   0.27302   0.00000  Uiso   1.00
O489   O     0.92693   0.20724   0.72698   0.00000  Uiso   1.00
O490   O     0.70725   0.42692   0.72698   0.00000  Uiso   1.00
O491   O     0.50000   0.25000   0.25000   0.00000  Uiso   1.00
O492   O     0.79276   0.07308   0.27302   0.00000  Uiso   1.00
O493   O     0.92693   0.29275   0.72698   0.00000  Uiso   1.00
O494   O     0.57308   0.20724   0.27302   0.00000  Uiso   1.00
O495   O     0.79276   0.07308   0.72698   0.00000  Uiso   1.00
O496   O     0.70725   0.42692   0.27302   0.00000  Uiso   1.00
O497   O     0.57308   0.20724   0.72698   0.00000  Uiso   1.00
O498   O     0.92693   0.29275   0.27302   0.00000  Uiso   1.00
O499   O     0.95725   0.32307   0.77302   0.00000  Uiso   1.00
O500   O     0.54276   0.17692   0.22698   0.00000  Uiso   1.00
O501   O     0.67693   0.45724   0.77302   0.00000  Uiso   1.00
O502   O     0.50000   0.25000   0.75000   0.00000  Uiso   1.00
O503   O     0.82308   0.04276   0.22698   0.00000  Uiso   1.00
O504   O     0.54276   0.17692   0.77302   0.00000  Uiso   1.00
O505   O     0.95725   0.32307   0.22698   0.00000  Uiso   1.00
O506   O     0.82308   0.04276   0.77302   0.00000  Uiso   1.00
O507   O     0.67693   0.45724   0.22698   0.00000  Uiso   1.00
O508   O     0.95725   0.17692   0.22698   0.00000  Uiso   1.00
O509   O     0.54276   0.32307   0.77302   0.00000  Uiso   1.00
O510   O     0.67693   0.04276   0.22698   0.00000  Uiso   1.00
O511   O     0.82308   0.45724   0.77302   0.00000  Uiso   1.00
O512   O     0.54276   0.32307   0.22698   0.00000  Uiso   1.00
O513   O     0.75000   0.46963   0.33755   0.00000  Uiso   1.00
O514   O     0.95725   0.17692   0.77302   0.00000  Uiso   1.00
O515   O     0.82308   0.45724   0.22698   0.00000  Uiso   1.00
O516   O     0.67693   0.04276   0.77302   0.00000  Uiso   1.00
O517   O     0.75000   0.03037   0.66245   0.00000  Uiso   1.00
O518   O     0.53037   0.25000   0.33755   0.00000  Uiso   1.00
O519   O     0.96964   0.25000   0.66245   0.00000  Uiso   1.00
O520   O     0.75000   0.03037   0.33755   0.00000  Uiso   1.00
Zn521  Zn    0.70660   0.00000   0.21735   0.00000  Uiso   1.00
Zn522  Zn    0.54341   0.25000   0.28265   0.00000  Uiso   1.00
Zn523  Zn    0.75000   0.45659   0.71735   0.00000  Uiso   1.00
Zn524  Zn    0.75000   0.04341   0.28265   0.00000  Uiso   1.00
Zn525  Zn    0.54341   0.25000   0.71735   0.00000  Uiso   1.00
Zn526  Zn    0.95660   0.25000   0.28265   0.00000  Uiso   1.00
Zn527  Zn    0.75000   0.04341   0.71735   0.00000  Uiso   1.00
Zn528  Zn    0.75000   0.45659   0.28265   0.00000  Uiso   1.00
Zn529  Zn    0.79341   0.00000   0.78265   0.00000  Uiso   1.00
Zn530  Zn    0.50000   0.20659   0.21735   0.00000  Uiso   1.00
Zn531  Zn    0.50000   0.29340   0.78265   0.00000  Uiso   1.00
Zn532  Zn    0.79341   0.00000   0.21735   0.00000  Uiso   1.00
Zn533  Zn    0.70660   0.00000   0.78265   0.00000  Uiso   1.00
Zn534  Zn    0.50000   0.29340   0.21735   0.00000  Uiso   1.00
Zn535  Zn    0.50000   0.20659   0.78265   0.00000  Uiso   1.00
Zn536  Zn    0.95660   0.25000   0.71735   0.00000  Uiso   1.00
C537   C     0.48529   0.78001   0.41781   0.00000  Uiso   1.00
C538   C     0.26462   0.96994   0.08219   0.00000  Uiso   1.00
C539   C     0.22081   0.51667   0.54124   0.00000  Uiso   1.00
C540   C     0.48315   0.77908   0.45876   0.00000  Uiso   1.00
C541   C     0.01685   0.72092   0.54124   0.00000  Uiso   1.00
C542   C     0.22081   0.51667   0.45876   0.00000  Uiso   1.00
C543   C     0.27919   0.98333   0.54124   0.00000  Uiso   1.00
C544   C     0.26675   0.97085   0.95876   0.00000  Uiso   1.00
C545   C     0.23325   0.52915   0.04124   0.00000  Uiso   1.00
C546   C     0.02918   0.73332   0.95876   0.00000  Uiso   1.00
C547   C     0.47082   0.76668   0.04124   0.00000  Uiso   1.00
C548   C     0.23326   0.52915   0.95876   0.00000  Uiso   1.00
C549   C     0.46992   0.76457   0.91780   0.00000  Uiso   1.00
C550   C     0.26674   0.97085   0.04124   0.00000  Uiso   1.00
C551   C     0.47082   0.76669   0.95876   0.00000  Uiso   1.00
C552   C     0.02918   0.73332   0.04124   0.00000  Uiso   1.00
C553   C     0.09812   0.84811   0.25000   0.00000  Uiso   1.00
C554   C     0.40189   0.65189   0.75000   0.00000  Uiso   1.00
C555   C     0.15189   0.59811   0.25000   0.00000  Uiso   1.00
C556   C     0.34811   0.90189   0.75000   0.00000  Uiso   1.00
C557   C     0.40189   0.65188   0.25000   0.00000  Uiso   1.00
C558   C     0.09811   0.84811   0.75000   0.00000  Uiso   1.00
C559   C     0.34811   0.90189   0.25000   0.00000  Uiso   1.00
C560   C     0.03009   0.73544   0.08220   0.00000  Uiso   1.00
C561   C     0.15189   0.59811   0.75000   0.00000  Uiso   1.00
C562   C     0.09811   0.65189   0.75000   0.00000  Uiso   1.00
C563   C     0.40189   0.84811   0.25000   0.00000  Uiso   1.00
C564   C     0.15189   0.90188   0.75000   0.00000  Uiso   1.00
C565   C     0.34811   0.59812   0.25000   0.00000  Uiso   1.00
C566   C     0.40189   0.84811   0.75000   0.00000  Uiso   1.00
C567   C     0.09811   0.65189   0.25000   0.00000  Uiso   1.00
C568   C     0.34811   0.59811   0.75000   0.00000  Uiso   1.00
C569   C     0.15189   0.90189   0.25000   0.00000  Uiso   1.00
C570   C     0.00000   0.75000   0.47934   0.00000  Uiso   1.00
C571   C     0.26462   0.96994   0.91780   0.00000  Uiso   1.00
C572   C    -0.00000   0.75000   0.52066   0.00000  Uiso   1.00
C573   C     0.25000   0.50000   0.47934   0.00000  Uiso   1.00
C574   C     0.25000   0.50000   0.52066   0.00000  Uiso   1.00
C575   C     0.25000   0.50000   0.97934   0.00000  Uiso   1.00
C576   C     0.25000   0.50000   0.02066   0.00000  Uiso   1.00
C577   C     0.00000   0.75000   0.97934   0.00000  Uiso   1.00
C578   C     0.00000   0.75000   0.02066   0.00000  Uiso   1.00
C579   C     0.23538   0.53006   0.08220   0.00000  Uiso   1.00
C580   C     0.03009   0.73544   0.91780   0.00000  Uiso   1.00
C581   C     0.46992   0.76456   0.08220   0.00000  Uiso   1.00
C582   C     0.00000   0.75000   0.39795   0.00000  Uiso   1.00
C583   C    -0.00000   0.75000   0.60205   0.00000  Uiso   1.00
C584   C     0.25000   0.50000   0.39794   0.00000  Uiso   1.00
C585   C     0.01471   0.71999   0.58219   0.00000  Uiso   1.00
C586   C     0.25000   0.50000   0.60206   0.00000  Uiso   1.00
C587   C     0.25000   0.50000   0.89794   0.00000  Uiso   1.00
C588   C     0.25000   0.50000   0.10205   0.00000  Uiso   1.00
C589   C     0.00000   0.75000   0.89794   0.00000  Uiso   1.00
C590   C     0.00000   0.75000   0.10206   0.00000  Uiso   1.00
C591   C     0.03560   0.69391   0.47986   0.00000  Uiso   1.00
C592   C     0.46440   0.80608   0.52014   0.00000  Uiso   1.00
C593   C     0.30632   0.96477   0.47986   0.00000  Uiso   1.00
C594   C     0.19368   0.53523   0.52014   0.00000  Uiso   1.00
C595   C     0.46440   0.80608   0.47986   0.00000  Uiso   1.00
C596   C     0.21991   0.51455   0.41780   0.00000  Uiso   1.00
C597   C     0.03560   0.69391   0.52014   0.00000  Uiso   1.00
C598   C     0.19368   0.53523   0.47986   0.00000  Uiso   1.00
C599   C     0.30632   0.96477   0.52014   0.00000  Uiso   1.00
C600   C     0.28538   0.94377   0.97986   0.00000  Uiso   1.00
C601   C     0.21462   0.55623   0.02014   0.00000  Uiso   1.00
C602   C     0.05630   0.71474   0.97986   0.00000  Uiso   1.00
C603   C     0.44370   0.78526   0.02014   0.00000  Uiso   1.00
C604   C     0.21462   0.55623   0.97986   0.00000  Uiso   1.00
C605   C     0.28538   0.94377   0.02014   0.00000  Uiso   1.00
C606   C     0.44370   0.78526   0.97986   0.00000  Uiso   1.00
C607   C     0.28009   0.98544   0.58220   0.00000  Uiso   1.00
C608   C     0.05630   0.71474   0.02014   0.00000  Uiso   1.00
C609   C     0.25000   0.50000   0.35573   0.00000  Uiso   1.00
C610   C     0.25000   0.50000   0.64427   0.00000  Uiso   1.00
C611   C     0.00000   0.75000   0.35573   0.00000  Uiso   1.00
C612   C    -0.00000   0.75000   0.64427   0.00000  Uiso   1.00
C613   C     0.00000   0.75000   0.85573   0.00000  Uiso   1.00
C614   C     0.00000   0.75000   0.14427   0.00000  Uiso   1.00
C615   C     0.25000   0.50000   0.85573   0.00000  Uiso   1.00
C616   C     0.25000   0.50000   0.14427   0.00000  Uiso   1.00
C617   C     0.17995   0.57005   0.25000   0.00000  Uiso   1.00
C618   C     0.01472   0.71999   0.41781   0.00000  Uiso   1.00
C619   C     0.32005   0.92995   0.75000   0.00000  Uiso   1.00
C620   C     0.42995   0.67995   0.25000   0.00000  Uiso   1.00
C621   C     0.07005   0.82005   0.75000   0.00000  Uiso   1.00
C622   C     0.32005   0.92995   0.25000   0.00000  Uiso   1.00
C623   C     0.17995   0.57005   0.75000   0.00000  Uiso   1.00
C624   C     0.07005   0.82005   0.25000   0.00000  Uiso   1.00
C625   C     0.42995   0.67995   0.75000   0.00000  Uiso   1.00
C626   C     0.17995   0.92995   0.75000   0.00000  Uiso   1.00
C627   C     0.32005   0.57005   0.25000   0.00000  Uiso   1.00
C628   C     0.42995   0.82005   0.75000   0.00000  Uiso   1.00
C629   C     0.48528   0.78001   0.58219   0.00000  Uiso   1.00
C630   C     0.07005   0.67995   0.25000   0.00000  Uiso   1.00
C631   C     0.32005   0.57005   0.75000   0.00000  Uiso   1.00
C632   C     0.17995   0.92995   0.25000   0.00000  Uiso   1.00
C633   C     0.07005   0.67995   0.75000   0.00000  Uiso   1.00
C634   C     0.42995   0.82005   0.25000   0.00000  Uiso   1.00
C635   C     0.13021   0.89651   0.21683   0.00000  Uiso   1.00
C636   C     0.36980   0.60348   0.78316   0.00000  Uiso   1.00
C637   C     0.10393   0.63067   0.21658   0.00000  Uiso   1.00
C638   C     0.39608   0.86934   0.78341   0.00000  Uiso   1.00
C639   C     0.36979   0.60349   0.21683   0.00000  Uiso   1.00
C640   C     0.28009   0.98545   0.41780   0.00000  Uiso   1.00
C641   C     0.13023   0.89649   0.78317   0.00000  Uiso   1.00
C642   C     0.39611   0.86937   0.21660   0.00000  Uiso   1.00
C643   C     0.10389   0.63063   0.78339   0.00000  Uiso   1.00
C644   C     0.13063   0.60389   0.78339   0.00000  Uiso   1.00
C645   C     0.36937   0.89611   0.21660   0.00000  Uiso   1.00
C646   C     0.10351   0.86977   0.78317   0.00000  Uiso   1.00
C647   C     0.39651   0.63021   0.21683   0.00000  Uiso   1.00
C648   C     0.36934   0.89608   0.78341   0.00000  Uiso   1.00
C649   C     0.13067   0.60393   0.21658   0.00000  Uiso   1.00
C650   C     0.39652   0.63020   0.78316   0.00000  Uiso   1.00
C651   C     0.21991   0.51455   0.58220   0.00000  Uiso   1.00
C652   C     0.10349   0.86979   0.21683   0.00000  Uiso   1.00
C653   C     0.38020   0.64652   0.71684   0.00000  Uiso   1.00
C654   C     0.11979   0.85349   0.28317   0.00000  Uiso   1.00
C655   C     0.35392   0.88066   0.71659   0.00000  Uiso   1.00
C656   C     0.14607   0.61933   0.28341   0.00000  Uiso   1.00
C657   C     0.11977   0.85351   0.71683   0.00000  Uiso   1.00
C658   C     0.38021   0.64651   0.28317   0.00000  Uiso   1.00
C659   C     0.14611   0.61937   0.71661   0.00000  Uiso   1.00
C660   C     0.35389   0.88063   0.28340   0.00000  Uiso   1.00
C661   C     0.38063   0.85389   0.28340   0.00000  Uiso   1.00
C662   C     0.23538   0.53006   0.91780   0.00000  Uiso   1.00
C663   C     0.11937   0.64611   0.71661   0.00000  Uiso   1.00
C664   C     0.35349   0.61979   0.28317   0.00000  Uiso   1.00
C665   C     0.14649   0.88023   0.71683   0.00000  Uiso   1.00
C666   C     0.11933   0.64607   0.28341   0.00000  Uiso   1.00
C667   C     0.38066   0.85392   0.71659   0.00000  Uiso   1.00
C668   C     0.14651   0.88021   0.28317   0.00000  Uiso   1.00
C669   C     0.35348   0.61980   0.71684   0.00000  Uiso   1.00
C670   C     0.01685   0.72092   0.45876   0.00000  Uiso   1.00
C671   C     0.48315   0.77908   0.54124   0.00000  Uiso   1.00
C672   C     0.27919   0.98333   0.45876   0.00000  Uiso   1.00
F673   F     0.05629   0.66815   0.46226   0.00000  Uiso   1.00
F674   F     0.19403   0.58209   0.03774   0.00000  Uiso   1.00
F675   F     0.08221   0.69422   0.96227   0.00000  Uiso   1.00
F676   F     0.41780   0.80578   0.03773   0.00000  Uiso   1.00
F677   F     0.19403   0.58209   0.96227   0.00000  Uiso   1.00
F678   F     0.30597   0.91791   0.03773   0.00000  Uiso   1.00
F679   F     0.41780   0.80578   0.96226   0.00000  Uiso   1.00
F680   F     0.08221   0.69422   0.03774   0.00000  Uiso   1.00
F681   F     0.13539   0.91646   0.18402   0.00000  Uiso   1.00
F682   F     0.36463   0.58353   0.81597   0.00000  Uiso   1.00
F683   F     0.08441   0.63633   0.18356   0.00000  Uiso   1.00
F684   F     0.44371   0.83185   0.53774   0.00000  Uiso   1.00
F685   F     0.41561   0.86369   0.81643   0.00000  Uiso   1.00
F686   F     0.36461   0.58354   0.18402   0.00000  Uiso   1.00
F687   F     0.13544   0.91642   0.81599   0.00000  Uiso   1.00
F688   F     0.41566   0.86375   0.18359   0.00000  Uiso   1.00
F689   F     0.08433   0.63625   0.81640   0.00000  Uiso   1.00
F690   F     0.13625   0.58433   0.81640   0.00000  Uiso   1.00
F691   F     0.36375   0.91566   0.18359   0.00000  Uiso   1.00
F692   F     0.08358   0.86457   0.81599   0.00000  Uiso   1.00
F693   F     0.41646   0.63539   0.18402   0.00000  Uiso   1.00
F694   F     0.36369   0.91561   0.81643   0.00000  Uiso   1.00
F695   F     0.33224   0.94427   0.46227   0.00000  Uiso   1.00
F696   F     0.13633   0.58441   0.18356   0.00000  Uiso   1.00
F697   F     0.41648   0.63538   0.81597   0.00000  Uiso   1.00
F698   F     0.08354   0.86460   0.18402   0.00000  Uiso   1.00
F699   F     0.38537   0.66647   0.68403   0.00000  Uiso   1.00
F700   F     0.11461   0.83354   0.31598   0.00000  Uiso   1.00
F701   F     0.33439   0.88631   0.68357   0.00000  Uiso   1.00
F702   F     0.16559   0.61367   0.31644   0.00000  Uiso   1.00
F703   F     0.11457   0.83357   0.68401   0.00000  Uiso   1.00
F704   F     0.38539   0.66646   0.31598   0.00000  Uiso   1.00
F705   F     0.16567   0.61375   0.68360   0.00000  Uiso   1.00
F706   F     0.16776   0.55573   0.53773   0.00000  Uiso   1.00
F707   F     0.33434   0.88625   0.31640   0.00000  Uiso   1.00
F708   F     0.38625   0.83433   0.31640   0.00000  Uiso   1.00
F709   F     0.11376   0.66567   0.68360   0.00000  Uiso   1.00
F710   F     0.33354   0.61461   0.31598   0.00000  Uiso   1.00
F711   F     0.16642   0.88543   0.68401   0.00000  Uiso   1.00
F712   F     0.11367   0.66559   0.31644   0.00000  Uiso   1.00
F713   F     0.38630   0.83439   0.68357   0.00000  Uiso   1.00
F714   F     0.16646   0.88540   0.31598   0.00000  Uiso   1.00
F715   F     0.33352   0.61462   0.68402   0.00000  Uiso   1.00
F716   F     0.44371   0.83185   0.46226   0.00000  Uiso   1.00
F717   F     0.05629   0.66815   0.53774   0.00000  Uiso   1.00
F718   F     0.16776   0.55573   0.46226   0.00000  Uiso   1.00
F719   F     0.33224   0.94427   0.53773   0.00000  Uiso   1.00
F720   F     0.30597   0.91791   0.96226   0.00000  Uiso   1.00
I721   I     0.47071   0.82745   0.38397   0.00000  Uiso   1.00
I722   I     0.27908   0.92248   0.11605   0.00000  Uiso   1.00
I723   I     0.42244   0.77897   0.88393   0.00000  Uiso   1.00
I724   I     0.07756   0.72104   0.11607   0.00000  Uiso   1.00
I725   I     0.27909   0.92248   0.88394   0.00000  Uiso   1.00
I726   I     0.22091   0.57752   0.11606   0.00000  Uiso   1.00
I727   I     0.07756   0.72103   0.88394   0.00000  Uiso   1.00
I728   I     0.42244   0.77896   0.11606   0.00000  Uiso   1.00
I729   I     0.02929   0.67255   0.61603   0.00000  Uiso   1.00
I730   I     0.17243   0.52894   0.38392   0.00000  Uiso   1.00
I731   I     0.32757   0.97105   0.61607   0.00000  Uiso   1.00
I732   I     0.02929   0.67255   0.38396   0.00000  Uiso   1.00
I733   I     0.47071   0.82745   0.61603   0.00000  Uiso   1.00
I734   I     0.32757   0.97107   0.38393   0.00000  Uiso   1.00
I735   I     0.17243   0.52895   0.61607   0.00000  Uiso   1.00
I736   I     0.22091   0.57752   0.88395   0.00000  Uiso   1.00
O737   O     0.25000   0.50000   0.25000   0.00000  Uiso   1.00
O738   O     0.25000   0.96963   0.66245   0.00000  Uiso   1.00
O739   O     0.46964   0.75000   0.33755   0.00000  Uiso   1.00
O740   O     0.03037   0.75000   0.66245   0.00000  Uiso   1.00
O741   O     0.00000   0.71963   0.83755   0.00000  Uiso   1.00
O742   O     0.00000   0.78036   0.16245   0.00000  Uiso   1.00
O743   O     0.28037   0.50000   0.83755   0.00000  Uiso   1.00
O744   O     0.21964   0.50000   0.16245   0.00000  Uiso   1.00
O745   O     0.00000   0.78036   0.83755   0.00000  Uiso   1.00
O746   O     0.00000   0.71963   0.16245   0.00000  Uiso   1.00
O747   O     0.21964   0.50000   0.83755   0.00000  Uiso   1.00
O748   O     0.25000   0.50000   0.75000   0.00000  Uiso   1.00
O749   O     0.28037   0.50000   0.16245   0.00000  Uiso   1.00
O750   O     0.20725   0.57308   0.27302   0.00000  Uiso   1.00
O751   O     0.29276   0.92692   0.72698   0.00000  Uiso   1.00
O752   O     0.42693   0.70724   0.27302   0.00000  Uiso   1.00
O753   O     0.07308   0.79275   0.72698   0.00000  Uiso   1.00
O754   O     0.29276   0.92692   0.27302   0.00000  Uiso   1.00
O755   O     0.20725   0.57308   0.72698   0.00000  Uiso   1.00
O756   O     0.07308   0.79275   0.27302   0.00000  Uiso   1.00
O757   O     0.42693   0.70724   0.72698   0.00000  Uiso   1.00
O758   O     0.20725   0.92692   0.72698   0.00000  Uiso   1.00
O759   O     0.00000   0.75000   0.25000   0.00000  Uiso   1.00
O760   O     0.29276   0.57308   0.27302   0.00000  Uiso   1.00
O761   O     0.42693   0.79275   0.72698   0.00000  Uiso   1.00
O762   O     0.07308   0.70724   0.27302   0.00000  Uiso   1.00
O763   O     0.29276   0.57308   0.72698   0.00000  Uiso   1.00
O764   O     0.20725   0.92692   0.27302   0.00000  Uiso   1.00
O765   O     0.07308   0.70724   0.72698   0.00000  Uiso   1.00
O766   O     0.42693   0.79275   0.27302   0.00000  Uiso   1.00
O767   O     0.45725   0.82307   0.77302   0.00000  Uiso   1.00
O768   O     0.04276   0.67692   0.22698   0.00000  Uiso   1.00
O769   O     0.17693   0.95724   0.77302   0.00000  Uiso   1.00
O770   O     0.00000   0.75000   0.75000   0.00000  Uiso   1.00
O771   O     0.32308   0.54276   0.22698   0.00000  Uiso   1.00
O772   O     0.04276   0.67692   0.77302   0.00000  Uiso   1.00
O773   O     0.45725   0.82307   0.22698   0.00000  Uiso   1.00
O774   O     0.32308   0.54276   0.77302   0.00000  Uiso   1.00
O775   O     0.17693   0.95724   0.22698   0.00000  Uiso   1.00
O776   O     0.45725   0.67692   0.22698   0.00000  Uiso   1.00
O777   O     0.04276   0.82307   0.77302   0.00000  Uiso   1.00
O778   O     0.17693   0.54276   0.22698   0.00000  Uiso   1.00
O779   O     0.32308   0.95724   0.77302   0.00000  Uiso   1.00
O780   O     0.04276   0.82307   0.22698   0.00000  Uiso   1.00
O781   O     0.25000   0.96963   0.33755   0.00000  Uiso   1.00
O782   O     0.45725   0.67692   0.77302   0.00000  Uiso   1.00
O783   O     0.32308   0.95724   0.22698   0.00000  Uiso   1.00
O784   O     0.17693   0.54276   0.77302   0.00000  Uiso   1.00
O785   O     0.25000   0.53037   0.66245   0.00000  Uiso   1.00
O786   O     0.03037   0.75000   0.33755   0.00000  Uiso   1.00
O787   O     0.46964   0.75000   0.66245   0.00000  Uiso   1.00
O788   O     0.25000   0.53037   0.33755   0.00000  Uiso   1.00
Zn789  Zn    0.20660   0.50000   0.21735   0.00000  Uiso   1.00
Zn790  Zn    0.04341   0.75000   0.28265   0.00000  Uiso   1.00
Zn791  Zn    0.25000   0.95659   0.71735   0.00000  Uiso   1.00
Zn792  Zn    0.25000   0.54341   0.28265   0.00000  Uiso   1.00
Zn793  Zn    0.04341   0.75000   0.71735   0.00000  Uiso   1.00
Zn794  Zn    0.45660   0.75000   0.28265   0.00000  Uiso   1.00
Zn795  Zn    0.25000   0.54341   0.71735   0.00000  Uiso   1.00
Zn796  Zn    0.25000   0.95659   0.28265   0.00000  Uiso   1.00
Zn797  Zn    0.29341   0.50000   0.78265   0.00000  Uiso   1.00
Zn798  Zn    0.00000   0.70659   0.21735   0.00000  Uiso   1.00
Zn799  Zn    0.00000   0.79340   0.78265   0.00000  Uiso   1.00
Zn800  Zn    0.29341   0.50000   0.21735   0.00000  Uiso   1.00
Zn801  Zn    0.20660   0.50000   0.78265   0.00000  Uiso   1.00
Zn802  Zn    0.00000   0.79340   0.21735   0.00000  Uiso   1.00
Zn803  Zn    0.00000   0.70659   0.78265   0.00000  Uiso   1.00
Zn804  Zn    0.45660   0.75000   0.71735   0.00000  Uiso   1.00
C805   C     0.98529   0.78001   0.41781   0.00000  Uiso   1.00
C806   C     0.76462   0.96994   0.08219   0.00000  Uiso   1.00
C807   C     0.72081   0.51667   0.54124   0.00000  Uiso   1.00
C808   C     0.98315   0.77908   0.45876   0.00000  Uiso   1.00
C809   C     0.51685   0.72092   0.54124   0.00000  Uiso   1.00
C810   C     0.72081   0.51667   0.45876   0.00000  Uiso   1.00
C811   C     0.77919   0.98333   0.54124   0.00000  Uiso   1.00
C812   C     0.76675   0.97085   0.95876   0.00000  Uiso   1.00
C813   C     0.73325   0.52915   0.04124   0.00000  Uiso   1.00
C814   C     0.52918   0.73332   0.95876   0.00000  Uiso   1.00
C815   C     0.97082   0.76668   0.04124   0.00000  Uiso   1.00
C816   C     0.73326   0.52915   0.95876   0.00000  Uiso   1.00
C817   C     0.96992   0.76457   0.91780   0.00000  Uiso   1.00
C818   C     0.76674   0.97085   0.04124   0.00000  Uiso   1.00
C819   C     0.97082   0.76669   0.95876   0.00000  Uiso   1.00
C820   C     0.52918   0.73332   0.04124   0.00000  Uiso   1.00
C821   C     0.59812   0.84811   0.25000   0.00000  Uiso   1.00
C822   C     0.90189   0.65189   0.75000   0.00000  Uiso   1.00
C823   C     0.65189   0.59811   0.25000   0.00000  Uiso   1.00
C824   C     0.84811   0.90189   0.75000   0.00000  Uiso   1.00
C825   C     0.90189   0.65188   0.25000   0.00000  Uiso   1.00
C826   C     0.59811   0.84811   0.75000   0.00000  Uiso   1.00
C827   C     0.84811   0.90189   0.25000   0.00000  Uiso   1.00
C828   C     0.53009   0.73544   0.08220   0.00000  Uiso   1.00
C829   C     0.65189   0.59811   0.75000   0.00000  Uiso   1.00
C830   C     0.59811   0.65189   0.75000   0.00000  Uiso   1.00
C831   C     0.90189   0.84811   0.25000   0.00000  Uiso   1.00
C832   C     0.65189   0.90188   0.75000   0.00000  Uiso   1.00
C833   C     0.84811   0.59812   0.25000   0.00000  Uiso   1.00
C834   C     0.90189   0.84811   0.75000   0.00000  Uiso   1.00
C835   C     0.59811   0.65189   0.25000   0.00000  Uiso   1.00
C836   C     0.84811   0.59811   0.75000   0.00000  Uiso   1.00
C837   C     0.65189   0.90189   0.25000   0.00000  Uiso   1.00
C838   C     0.50000   0.75000   0.47934   0.00000  Uiso   1.00
C839   C     0.76462   0.96994   0.91780   0.00000  Uiso   1.00
C840   C     0.50000   0.75000   0.52066   0.00000  Uiso   1.00
C841   C     0.75000   0.50000   0.47934   0.00000  Uiso   1.00
C842   C     0.75000   0.50000   0.52066   0.00000  Uiso   1.00
C843   C     0.75000   0.50000   0.97934   0.00000  Uiso   1.00
C844   C     0.75000   0.50000   0.02066   0.00000  Uiso   1.00
C845   C     0.50000   0.75000   0.97934   0.00000  Uiso   1.00
C846   C     0.50000   0.75000   0.02066   0.00000  Uiso   1.00
C847   C     0.73538   0.53006   0.08220   0.00000  Uiso   1.00
C848   C     0.53009   0.73544   0.91780   0.00000  Uiso   1.00
C849   C     0.96992   0.76456   0.08220   0.00000  Uiso   1.00
C850   C     0.50000   0.75000   0.39795   0.00000  Uiso   1.00
C851   C     0.50000   0.75000   0.60205   0.00000  Uiso   1.00
C852   C     0.75000   0.50000   0.39794   0.00000  Uiso   1.00
C853   C     0.51471   0.71999   0.58219   0.00000  Uiso   1.00
C854   C     0.75000   0.50000   0.60206   0.00000  Uiso   1.00
C855   C     0.75000   0.50000   0.89794   0.00000  Uiso   1.00
C856   C     0.75000   0.50000   0.10205   0.00000  Uiso   1.00
C857   C     0.50000   0.75000   0.89794   0.00000  Uiso   1.00
C858   C     0.50000   0.75000   0.10206   0.00000  Uiso   1.00
C859   C     0.53560   0.69391   0.47986   0.00000  Uiso   1.00
C860   C     0.96440   0.80608   0.52014   0.00000  Uiso   1.00
C861   C     0.80632   0.96477   0.47986   0.00000  Uiso   1.00
C862   C     0.69368   0.53523   0.52014   0.00000  Uiso   1.00
C863   C     0.96440   0.80608   0.47986   0.00000  Uiso   1.00
C864   C     0.71991   0.51455   0.41780   0.00000  Uiso   1.00
C865   C     0.53560   0.69391   0.52014   0.00000  Uiso   1.00
C866   C     0.69368   0.53523   0.47986   0.00000  Uiso   1.00
C867   C     0.80632   0.96477   0.52014   0.00000  Uiso   1.00
C868   C     0.78538   0.94377   0.97986   0.00000  Uiso   1.00
C869   C     0.71462   0.55623   0.02014   0.00000  Uiso   1.00
C870   C     0.55630   0.71474   0.97986   0.00000  Uiso   1.00
C871   C     0.94370   0.78526   0.02014   0.00000  Uiso   1.00
C872   C     0.71462   0.55623   0.97986   0.00000  Uiso   1.00
C873   C     0.78538   0.94377   0.02014   0.00000  Uiso   1.00
C874   C     0.94370   0.78526   0.97986   0.00000  Uiso   1.00
C875   C     0.78009   0.98544   0.58220   0.00000  Uiso   1.00
C876   C     0.55630   0.71474   0.02014   0.00000  Uiso   1.00
C877   C     0.75000   0.50000   0.35573   0.00000  Uiso   1.00
C878   C     0.75000   0.50000   0.64427   0.00000  Uiso   1.00
C879   C     0.50000   0.75000   0.35573   0.00000  Uiso   1.00
C880   C     0.50000   0.75000   0.64427   0.00000  Uiso   1.00
C881   C     0.50000   0.75000   0.85573   0.00000  Uiso   1.00
C882   C     0.50000   0.75000   0.14427   0.00000  Uiso   1.00
C883   C     0.75000   0.50000   0.85573   0.00000  Uiso   1.00
C884   C     0.75000   0.50000   0.14427   0.00000  Uiso   1.00
C885   C     0.67995   0.57005   0.25000   0.00000  Uiso   1.00
C886   C     0.51472   0.71999   0.41781   0.00000  Uiso   1.00
C887   C     0.82005   0.92995   0.75000   0.00000  Uiso   1.00
C888   C     0.92995   0.67995   0.25000   0.00000  Uiso   1.00
C889   C     0.57005   0.82005   0.75000   0.00000  Uiso   1.00
C890   C     0.82005   0.92995   0.25000   0.00000  Uiso   1.00
C891   C     0.67995   0.57005   0.75000   0.00000  Uiso   1.00
C892   C     0.57005   0.82005   0.25000   0.00000  Uiso   1.00
C893   C     0.92995   0.67995   0.75000   0.00000  Uiso   1.00
C894   C     0.67995   0.92995   0.75000   0.00000  Uiso   1.00
C895   C     0.82005   0.57005   0.25000   0.00000  Uiso   1.00
C896   C     0.92995   0.82005   0.75000   0.00000  Uiso   1.00
C897   C     0.98528   0.78001   0.58219   0.00000  Uiso   1.00
C898   C     0.57005   0.67995   0.25000   0.00000  Uiso   1.00
C899   C     0.82005   0.57005   0.75000   0.00000  Uiso   1.00
C900   C     0.67995   0.92995   0.25000   0.00000  Uiso   1.00
C901   C     0.57005   0.67995   0.75000   0.00000  Uiso   1.00
C902   C     0.92995   0.82005   0.25000   0.00000  Uiso   1.00
C903   C     0.63021   0.89651   0.21683   0.00000  Uiso   1.00
C904   C     0.86980   0.60348   0.78316   0.00000  Uiso   1.00
C905   C     0.60393   0.63067   0.21658   0.00000  Uiso   1.00
C906   C     0.89608   0.86934   0.78341   0.00000  Uiso   1.00
C907   C     0.86979   0.60349   0.21683   0.00000  Uiso   1.00
C908   C     0.78009   0.98545   0.41780   0.00000  Uiso   1.00
C909   C     0.63023   0.89649   0.78317   0.00000  Uiso   1.00
C910   C     0.89611   0.86937   0.21660   0.00000  Uiso   1.00
C911   C     0.60389   0.63063   0.78339   0.00000  Uiso   1.00
C912   C     0.63063   0.60389   0.78339   0.00000  Uiso   1.00
C913   C     0.86937   0.89611   0.21660   0.00000  Uiso   1.00
C914   C     0.60351   0.86977   0.78317   0.00000  Uiso   1.00
C915   C     0.89651   0.63021   0.21683   0.00000  Uiso   1.00
C916   C     0.86934   0.89608   0.78341   0.00000  Uiso   1.00
C917   C     0.63067   0.60393   0.21658   0.00000  Uiso   1.00
C918   C     0.89652   0.63020   0.78316   0.00000  Uiso   1.00
C919   C     0.71991   0.51455   0.58220   0.00000  Uiso   1.00
C920   C     0.60349   0.86979   0.21683   0.00000  Uiso   1.00
C921   C     0.88020   0.64652   0.71684   0.00000  Uiso   1.00
C922   C     0.61979   0.85349   0.28317   0.00000  Uiso   1.00
C923   C     0.85392   0.88066   0.71659   0.00000  Uiso   1.00
C924   C     0.64607   0.61933   0.28341   0.00000  Uiso   1.00
C925   C     0.61977   0.85351   0.71683   0.00000  Uiso   1.00
C926   C     0.88021   0.64651   0.28317   0.00000  Uiso   1.00
C927   C     0.64611   0.61937   0.71661   0.00000  Uiso   1.00
C928   C     0.85389   0.88063   0.28340   0.00000  Uiso   1.00
C929   C     0.88063   0.85389   0.28340   0.00000  Uiso   1.00
C930   C     0.73538   0.53006   0.91780   0.00000  Uiso   1.00
C931   C     0.61937   0.64611   0.71661   0.00000  Uiso   1.00
C932   C     0.85349   0.61979   0.28317   0.00000  Uiso   1.00
C933   C     0.64649   0.88023   0.71683   0.00000  Uiso   1.00
C934   C     0.61933   0.64607   0.28341   0.00000  Uiso   1.00
C935   C     0.88066   0.85392   0.71659   0.00000  Uiso   1.00
C936   C     0.64651   0.88021   0.28317   0.00000  Uiso   1.00
C937   C     0.85348   0.61980   0.71684   0.00000  Uiso   1.00
C938   C     0.51685   0.72092   0.45876   0.00000  Uiso   1.00
C939   C     0.98315   0.77908   0.54124   0.00000  Uiso   1.00
C940   C     0.77919   0.98333   0.45876   0.00000  Uiso   1.00
F941   F     0.55629   0.66815   0.46226   0.00000  Uiso   1.00
F942   F     0.69403   0.58209   0.03774   0.00000  Uiso   1.00
F943   F     0.58221   0.69422   0.96227   0.00000  Uiso   1.00
F944   F     0.91780   0.80578   0.03773   0.00000  Uiso   1.00
F945   F     0.69403   0.58209   0.96227   0.00000  Uiso   1.00
F946   F     0.80597   0.91791   0.03773   0.00000  Uiso   1.00
F947   F     0.91780   0.80578   0.96226   0.00000  Uiso   1.00
F948   F     0.58221   0.69422   0.03774   0.00000  Uiso   1.00
F949   F     0.63539   0.91646   0.18402   0.00000  Uiso   1.00
F950   F     0.86463   0.58353   0.81597   0.00000  Uiso   1.00
F951   F     0.58441   0.63633   0.18356   0.00000  Uiso   1.00
F952   F     0.94371   0.83185   0.53774   0.00000  Uiso   1.00
F953   F     0.91561   0.86369   0.81643   0.00000  Uiso   1.00
F954   F     0.86461   0.58354   0.18402   0.00000  Uiso   1.00
F955   F     0.63544   0.91642   0.81599   0.00000  Uiso   1.00
F956   F     0.91566   0.86375   0.18359   0.00000  Uiso   1.00
F957   F     0.58433   0.63625   0.81640   0.00000  Uiso   1.00
F958   F     0.63625   0.58433   0.81640   0.00000  Uiso   1.00
F959   F     0.86375   0.91566   0.18359   0.00000  Uiso   1.00
F960   F     0.58358   0.86457   0.81599   0.00000  Uiso   1.00
F961   F     0.91646   0.63539   0.18402   0.00000  Uiso   1.00
F962   F     0.86369   0.91561   0.81643   0.00000  Uiso   1.00
F963   F     0.83224   0.94427   0.46227   0.00000  Uiso   1.00
F964   F     0.63633   0.58441   0.18356   0.00000  Uiso   1.00
F965   F     0.91648   0.63538   0.81597   0.00000  Uiso   1.00
F966   F     0.58354   0.86460   0.18402   0.00000  Uiso   1.00
F967   F     0.88537   0.66647   0.68403   0.00000  Uiso   1.00
F968   F     0.61461   0.83354   0.31598   0.00000  Uiso   1.00
F969   F     0.83439   0.88631   0.68357   0.00000  Uiso   1.00
F970   F     0.66559   0.61367   0.31644   0.00000  Uiso   1.00
F971   F     0.61457   0.83357   0.68401   0.00000  Uiso   1.00
F972   F     0.88539   0.66646   0.31598   0.00000  Uiso   1.00
F973   F     0.66567   0.61375   0.68360   0.00000  Uiso   1.00
F974   F     0.66776   0.55573   0.53773   0.00000  Uiso   1.00
F975   F     0.83434   0.88625   0.31640   0.00000  Uiso   1.00
F976   F     0.88625   0.83433   0.31640   0.00000  Uiso   1.00
F977   F     0.61376   0.66567   0.68360   0.00000  Uiso   1.00
F978   F     0.83354   0.61461   0.31598   0.00000  Uiso   1.00
F979   F     0.66642   0.88543   0.68401   0.00000  Uiso   1.00
F980   F     0.61367   0.66559   0.31644   0.00000  Uiso   1.00
F981   F     0.88630   0.83439   0.68357   0.00000  Uiso   1.00
F982   F     0.66646   0.88540   0.31598   0.00000  Uiso   1.00
F983   F     0.83352   0.61462   0.68402   0.00000  Uiso   1.00
F984   F     0.94371   0.83185   0.46226   0.00000  Uiso   1.00
F985   F     0.55629   0.66815   0.53774   0.00000  Uiso   1.00
F986   F     0.66776   0.55573   0.46226   0.00000  Uiso   1.00
F987   F     0.83224   0.94427   0.53773   0.00000  Uiso   1.00
F988   F     0.80597   0.91791   0.96226   0.00000  Uiso   1.00
I989   I     0.97071   0.82745   0.38397   0.00000  Uiso   1.00
I990   I     0.77908   0.92248   0.11605   0.00000  Uiso   1.00
I991   I     0.92244   0.77897   0.88393   0.00000  Uiso   1.00
I992   I     0.57756   0.72104   0.11607   0.00000  Uiso   1.00
I993   I     0.77909   0.92248   0.88394   0.00000  Uiso   1.00
I994   I     0.72091   0.57752   0.11606   0.00000  Uiso   1.00
I995   I     0.57756   0.72103   0.88394   0.00000  Uiso   1.00
I996   I     0.92244   0.77896   0.11606   0.00000  Uiso   1.00
I997   I     0.52929   0.67255   0.61603   0.00000  Uiso   1.00
I998   I     0.67243   0.52894   0.38392   0.00000  Uiso   1.00
I999   I     0.82757   0.97105   0.61607   0.00000  Uiso   1.00
I1000  I     0.52929   0.67255   0.38396   0.00000  Uiso   1.00
I1001  I     0.97071   0.82745   0.61603   0.00000  Uiso   1.00
I1002  I     0.82757   0.97107   0.38393   0.00000  Uiso   1.00
I1003  I     0.67243   0.52895   0.61607   0.00000  Uiso   1.00
I1004  I     0.72091   0.57752   0.88395   0.00000  Uiso   1.00
O1005  O     0.75000   0.50000   0.25000   0.00000  Uiso   1.00
O1006  O     0.75000   0.96963   0.66245   0.00000  Uiso   1.00
O1007  O     0.96964   0.75000   0.33755   0.00000  Uiso   1.00
O1008  O     0.53037   0.75000   0.66245   0.00000  Uiso   1.00
O1009  O     0.50000   0.71963   0.83755   0.00000  Uiso   1.00
O1010  O     0.50000   0.78036   0.16245   0.00000  Uiso   1.00
O1011  O     0.78037   0.50000   0.83755   0.00000  Uiso   1.00
O1012  O     0.71964   0.50000   0.16245   0.00000  Uiso   1.00
O1013  O     0.50000   0.78036   0.83755   0.00000  Uiso   1.00
O1014  O     0.50000   0.71963   0.16245   0.00000  Uiso   1.00
O1015  O     0.71964   0.50000   0.83755   0.00000  Uiso   1.00
O1016  O     0.75000   0.50000   0.75000   0.00000  Uiso   1.00
O1017  O     0.78037   0.50000   0.16245   0.00000  Uiso   1.00
O1018  O     0.70725   0.57308   0.27302   0.00000  Uiso   1.00
O1019  O     0.79276   0.92692   0.72698   0.00000  Uiso   1.00
O1020  O     0.92693   0.70724   0.27302   0.00000  Uiso   1.00
O1021  O     0.57308   0.79275   0.72698   0.00000  Uiso   1.00
O1022  O     0.79276   0.92692   0.27302   0.00000  Uiso   1.00
O1023  O     0.70725   0.57308   0.72698   0.00000  Uiso   1.00
O1024  O     0.57308   0.79275   0.27302   0.00000  Uiso   1.00
O1025  O     0.92693   0.70724   0.72698   0.00000  Uiso   1.00
O1026  O     0.70725   0.92692   0.72698   0.00000  Uiso   1.00
O1027  O     0.50000   0.75000   0.25000   0.00000  Uiso   1.00
O1028  O     0.79276   0.57308   0.27302   0.00000  Uiso   1.00
O1029  O     0.92693   0.79275   0.72698   0.00000  Uiso   1.00
O1030  O     0.57308   0.70724   0.27302   0.00000  Uiso   1.00
O1031  O     0.79276   0.57308   0.72698   0.00000  Uiso   1.00
O1032  O     0.70725   0.92692   0.27302   0.00000  Uiso   1.00
O1033  O     0.57308   0.70724   0.72698   0.00000  Uiso   1.00
O1034  O     0.92693   0.79275   0.27302   0.00000  Uiso   1.00
O1035  O     0.95725   0.82307   0.77302   0.00000  Uiso   1.00
O1036  O     0.54276   0.67692   0.22698   0.00000  Uiso   1.00
O1037  O     0.67693   0.95724   0.77302   0.00000  Uiso   1.00
O1038  O     0.50000   0.75000   0.75000   0.00000  Uiso   1.00
O1039  O     0.82308   0.54276   0.22698   0.00000  Uiso   1.00
O1040  O     0.54276   0.67692   0.77302   0.00000  Uiso   1.00
O1041  O     0.95725   0.82307   0.22698   0.00000  Uiso   1.00
O1042  O     0.82308   0.54276   0.77302   0.00000  Uiso   1.00
O1043  O     0.67693   0.95724   0.22698   0.00000  Uiso   1.00
O1044  O     0.95725   0.67692   0.22698   0.00000  Uiso   1.00
O1045  O     0.54276   0.82307   0.77302   0.00000  Uiso   1.00
O1046  O     0.67693   0.54276   0.22698   0.00000  Uiso   1.00
O1047  O     0.82308   0.95724   0.77302   0.00000  Uiso   1.00
O1048  O     0.54276   0.82307   0.22698   0.00000  Uiso   1.00
O1049  O     0.75000   0.96963   0.33755   0.00000  Uiso   1.00
O1050  O     0.95725   0.67692   0.77302   0.00000  Uiso   1.00
O1051  O     0.82308   0.95724   0.22698   0.00000  Uiso   1.00
O1052  O     0.67693   0.54276   0.77302   0.00000  Uiso   1.00
O1053  O     0.75000   0.53037   0.66245   0.00000  Uiso   1.00
O1054  O     0.53037   0.75000   0.33755   0.00000  Uiso   1.00
O1055  O     0.96964   0.75000   0.66245   0.00000  Uiso   1.00
O1056  O     0.75000   0.53037   0.33755   0.00000  Uiso   1.00
Zn1057 Zn    0.70660   0.50000   0.21735   0.00000  Uiso   1.00
Zn1058 Zn    0.54341   0.75000   0.28265   0.00000  Uiso   1.00
Zn1059 Zn    0.75000   0.95659   0.71735   0.00000  Uiso   1.00
Zn1060 Zn    0.75000   0.54341   0.28265   0.00000  Uiso   1.00
Zn1061 Zn    0.54341   0.75000   0.71735   0.00000  Uiso   1.00
Zn1062 Zn    0.95660   0.75000   0.28265   0.00000  Uiso   1.00
Zn1063 Zn    0.75000   0.54341   0.71735   0.00000  Uiso   1.00
Zn1064 Zn    0.75000   0.95659   0.28265   0.00000  Uiso   1.00
Zn1065 Zn    0.79341   0.50000   0.78265   0.00000  Uiso   1.00
Zn1066 Zn    0.50000   0.70659   0.21735   0.00000  Uiso   1.00
Zn1067 Zn    0.50000   0.79340   0.78265   0.00000  Uiso   1.00
Zn1068 Zn    0.79341   0.50000   0.21735   0.00000  Uiso   1.00
Zn1069 Zn    0.70660   0.50000   0.78265   0.00000  Uiso   1.00
Zn1070 Zn    0.50000   0.79340   0.21735   0.00000  Uiso   1.00
Zn1071 Zn    0.50000   0.70659   0.78265   0.00000  Uiso   1.00
Zn1072 Zn    0.95660   0.75000   0.71735   0.00000  Uiso   1.00
loop_
_geom_bond_atom_site_label_1
_geom_bond_atom_site_label_2
_geom_bond_distance
_geom_bond_site_symmetry_2
_ccdc_geom_bond_type
C1     I185    2.161   .     S
C1     C4      1.411   .     A
C1     C314    1.403   .     S
C2     I186    2.161   .     S
C2     C588    1.404   .     A
C2     C14     1.411   .     A
C3     C115    1.411   .     A
C3     C58     1.407   .     A
C3     C38     1.422   .     S
C4     C59     1.407   .     A
C4     C302    1.421   .     S
C5     C49     1.411   .     A
C5     C61     1.407   .     A
C5     C36     1.422   .     S
C6     C60     1.411   .     A
C6     C37     1.422   .     A
C6     C62     1.407   .     A
C7     C71     1.411   .     A
C7     C63     1.407   .     A
C7     C574    1.422   .     A
C8     C64     1.407   .     A
C8     C35     1.411   .     A
C8     C575    1.422   .     S
C9     C43     1.411   .     A
C9     C65     1.407   .     A
C9     C40     1.422   .     S
C10    C41     1.422   .     A
C10    C66     1.407   .     A
C10    C44     1.411   .     A
C11    C67     1.407   .     A
C11    C45     1.411   .     A
C11    C310    1.422   .     S
C12    C68     1.407   .     A
C12    C39     1.422   .     A
C12    C126    1.411   .     A
C13    I187    2.161   .     S
C13    C15     1.411   .     A
C13    C321    1.403   .     S
C14    C69     1.407   .     A
C14    C576    1.422   .     A
C15    C70     1.407   .     A
C15    C309    1.422   .     S
C16    C72     1.407   .     A
C16    C42     1.422   .     A
C16    C24     1.411   .     A
C17    C88     1.457   .     S
C17    C118    1.404   .     A
C17    C116    1.405   .     A
C18    C114    1.405   .     A
C18    C89     1.457   .     S
C18    C117    1.405   .     A
C19    C120    1.404   .     A
C19    C113    1.404   .     A
C19    C81     1.456   .     S
C20    C112    1.404   .     A
C20    C83     1.456   .     S
C20    C119    1.404   .     A
C21    C122    1.405   .     A
C21    C111    1.404   .     A
C21    C84     1.457   .     S
C22    C85     1.457   .     S
C22    C110    1.404   .     A
C22    C121    1.404   .     A
C23    C124    1.404   .     A
C23    C86     1.456   .     S
C23    C109    1.404   .     A
C24    C54     1.403   .     A
C24    I188    2.161   .     S
C25    C123    1.404   .     A
C25    C87     1.456   .     S
C25    C108    1.404   .     A
C26    C107    1.404   .     A
C26    C127    1.404   .     A
C26    C97     1.456   .     S
C27    C98     1.456   .     S
C27    C125    1.404   .     A
C27    C106    1.404   .     A
C28    C105    1.404   .     A
C28    C129    1.404   .     A
C28    C90     1.457   .     S
C29    C103    1.405   .     A
C29    C91     1.457   .     S
C29    C128    1.404   .     A
C30    C131    1.404   .     A
C30    C92     1.456   .     S
C30    C102    1.404   .     A
C31    C101    1.404   .     A
C31    C130    1.404   .     A
C31    C94     1.456   .     S
C32    C133    1.405   .     A
C32    C95     1.457   .     S
C32    C100    1.405   .     A
C33    C99     1.404   .     A
C33    C132    1.405   .     A
C33    C96     1.457   .     S
C34    C134    1.422   .     A
C34    C272    1.421   1_455 S
C34    C36     1.421   .     S
C35    I189    2.161   .     S
C35    C587    1.403   .     S
C36    C403    1.422   1_455 A
C37    C38     1.421   .     S
C37    C672    1.422   1_545 S
C38    C543    1.422   1_545 A
C39    C544    1.422   1_545 S
C39    C40     1.421   1_556 S
C40    C550    1.422   1_545 A
C40    C39     1.421   1_554 S
C41    C283    1.422   1_455 S
C41    C42     1.421   1_556 S
C42    C279    1.422   1_455 S
C42    C41     1.421   1_554 S
C43    I190    2.161   .     S
C43    C52     1.403   .     S
C44    I191    2.161   .     S
C44    C53     1.403   .     A
C45    I192    2.161   .     S
C45    C322    1.403   .     S
C46    C75     1.452   .     S
C46    C82     1.403   .     A
C46    C269    1.403   1_455 S
C47    C76     1.452   .     S
C47    C361    1.403   1_455 A
C47    C49     1.403   .     S
C48    C60     1.403   .     A
C48    C73     1.452   .     S
C48    C640    1.403   1_545 S
C49    I193    2.161   .     S
C50    C74     1.452   .     S
C50    C607    1.403   1_545 A
C50    C115    1.403   .     S
C51    C126    1.404   .     A
C51    C79     1.452   .     S
C51    C571    1.403   1_545 S
C52    C538    1.404   1_545 A
C52    C80     1.452   .     S
C53    C77     1.452   .     S
C53    C281    1.403   1_455 S
C54    C78     1.452   .     S
C54    C313    1.403   1_455 S
C55    C134    1.407   .     A
C55    F137    1.355   .     S
C55    C61     1.385   .     A
C56    F148    1.355   .     S
C56    C135    1.407   .     A
C56    C59     1.385   .     A
C57    C136    1.407   .     A
C57    F159    1.355   .     S
C57    C63     1.385   .     A
C58    C62     1.385   .     A
C58    F170    1.355   .     S
C59    F180    1.355   .     S
C60    I194    2.161   .     S
C61    F181    1.355   .     S
C62    F182    1.355   .     S
C63    F183    1.355   .     S
C64    F184    1.355   .     S
C64    C69     1.385   1_556 S
C65    F138    1.355   .     S
C65    C68     1.385   1_554 S
C66    F139    1.355   .     S
C66    C72     1.385   1_556 S
C67    F140    1.355   .     S
C67    C70     1.385   1_554 S
C68    F141    1.355   .     S
C68    C65     1.385   1_556 S
C69    F142    1.355   .     S
C69    C64     1.385   1_554 S
C70    F143    1.355   .     S
C70    C67     1.385   1_556 S
C71    I195    2.161   .     S
C71    C586    1.403   .     A
C72    F144    1.355   .     S
C72    C66     1.385   1_554 S
C73    O252    1.278   .     A
C73    O781    1.278   1_545 S
C74    O738    1.278   1_545 A
C74    O249    1.278   .     S
C75    O250    1.278   .     A
C75    O471    1.278   1_455 S
C76    O519    1.278   1_455 A
C76    O204    1.278   .     S
C77    O205    1.278   .     A
C77    O209    1.278   .     A
C78    O210    1.278   .     A
C78    O206    1.278   .     A
C79    O211    1.278   .     A
C79    O207    1.278   .     A
C80    O208    1.278   .     A
C80    O213    1.278   .     A
C81    O242    1.281   .     A
C81    O214    1.281   .     A
C82    C134    1.411   .     A
C82    I196    2.161   .     S
C83    O243    1.281   .     A
C83    O215    1.281   .     A
C84    O240    1.281   .     A
C84    O216    1.281   .     A
C85    O217    1.281   .     A
C85    O241    1.281   .     A
C86    O247    1.281   .     A
C86    O218    1.281   .     A
C87    O248    1.281   .     A
C87    O219    1.281   .     A
C88    O220    1.281   .     A
C88    O244    1.281   .     A
C89    O246    1.281   .     A
C89    O221    1.281   .     A
C90    O222    1.281   .     A
C90    O233    1.281   .     A
C91    O235    1.281   .     A
C91    O224    1.281   .     A
C92    O231    1.281   .     A
C92    O225    1.281   .     A
C93    C315    1.403   .     A
C93    C135    1.411   .     A
C93    I197    2.161   .     S
C94    O232    1.281   .     A
C94    O226    1.281   .     A
C95    O238    1.281   .     A
C95    O227    1.281   .     A
C96    O228    1.281   .     A
C96    O239    1.281   .     A
C97    O229    1.281   .     A
C97    O236    1.281   .     A
C98    O237    1.281   .     A
C98    O230    1.281   .     A
C99    C116    1.387   .     A
C99    F145    1.358   .     S
C100   F146    1.358   .     S
C100   C114    1.387   .     A
C101   C113    1.387   .     A
C101   F147    1.358   .     S
C102   C112    1.387   .     A
C102   F149    1.358   .     S
C103   C111    1.387   .     A
C103   F150    1.358   .     S
C104   C136    1.411   .     A
C104   I198    2.161   .     S
C104   C584    1.403   .     S
C105   C110    1.387   .     A
C105   F151    1.358   .     S
C106   F152    1.359   .     S
C106   C109    1.387   .     A
C107   C108    1.387   .     A
C107   F153    1.359   .     S
C108   F154    1.358   .     S
C109   F155    1.359   .     S
C110   F156    1.358   .     S
C111   F157    1.358   .     S
C112   F158    1.358   .     S
C113   F160    1.358   .     S
C114   F161    1.358   .     S
C115   I199    2.161   .     S
C116   F162    1.358   .     S
C117   C133    1.387   .     A
C117   F163    1.358   .     S
C118   F164    1.358   .     S
C118   C132    1.387   .     A
C119   C131    1.387   .     A
C119   F165    1.358   .     S
C120   C130    1.387   .     A
C120   F166    1.358   .     S
C121   F167    1.358   .     S
C121   C129    1.387   .     A
C122   C128    1.387   .     A
C122   F168    1.359   .     S
C123   C127    1.387   .     A
C123   F169    1.358   .     S
C124   F171    1.359   .     S
C124   C125    1.387   .     A
C125   F172    1.359   .     S
C126   I200    2.161   .     S
C127   F173    1.358   .     S
C128   F174    1.358   .     S
C129   F175    1.358   .     S
C130   F176    1.358   .     S
C131   F177    1.358   .     S
C132   F178    1.358   .     S
C133   F179    1.358   .     S
C135   C304    1.422   .     A
C136   C573    1.422   .     S
O201   Zn264   1.949   .     S
O201   Zn256   1.949   .     S
O201   Zn253   1.949   .     S
O201   Zn796   1.949   1_545 S
O202   C610    1.278   .     A
O202   Zn255   1.948   .     S
O203   Zn258   1.948   .     S
O203   C343    1.278   .     S
O204   Zn257   1.948   .     S
O205   Zn267   1.948   .     S
O206   Zn266   1.948   .     S
O207   Zn261   1.948   .     S
O208   Zn253   1.948   .     S
O209   Zn263   1.948   .     S
O210   Zn262   1.948   .     S
O211   Zn265   1.948   .     S
O212   Zn261   1.949   .     S
O212   Zn265   1.949   .     S
O212   Zn259   1.949   .     S
O212   Zn791   1.949   1_545 S
O213   Zn264   1.948   .     S
O214   Zn256   1.937   .     S
O215   Zn255   1.937   .     S
O216   Zn258   1.939   .     S
O217   Zn257   1.939   .     S
O218   Zn260   1.937   .     S
O219   Zn259   1.937   .     S
O220   Zn254   1.939   .     S
O221   Zn268   1.939   .     S
O222   Zn255   1.939   .     S
O223   Zn266   1.949   .     S
O223   Zn254   1.949   .     S
O223   Zn262   1.949   .     S
O223   Zn526   1.949   1_455 S
O224   Zn256   1.939   .     S
O225   Zn268   1.937   .     S
O226   Zn254   1.937   .     S
O227   Zn259   1.939   .     S
O228   Zn260   1.939   .     S
O229   Zn257   1.937   .     S
O230   Zn258   1.937   .     S
O231   Zn531   1.937   .     S
O232   Zn262   1.937   .     S
O233   Zn801   1.939   .     S
O234   Zn257   1.949   .     S
O234   Zn263   1.949   .     S
O234   Zn267   1.949   .     S
O234   Zn536   1.949   1_455 S
O235   Zn264   1.939   .     S
O236   Zn267   1.937   .     S
O237   Zn534   1.937   .     S
O238   Zn261   1.939   .     S
O239   Zn789   1.939   .     S
O240   Zn530   1.939   .     S
O241   Zn263   1.939   .     S
O242   Zn253   1.937   .     S
O243   Zn797   1.937   .     S
O244   Zn266   1.939   .     S
O245   Zn260   1.948   .     S
O245   C609    1.278   .     S
O246   Zn535   1.939   .     S
O247   Zn800   1.937   .     S
O248   Zn265   1.937   .     S
O249   Zn259   1.948   .     S
O250   Zn254   1.948   .     S
O251   C344    1.278   .     A
O251   Zn268   1.948   .     S
O252   Zn256   1.948   .     S
Zn253  O775    1.939   1_545 S
Zn255  O748    1.949   .     S
Zn258  O491    1.949   .     S
Zn260  O737    1.949   .     S
Zn261  O779    1.937   1_545 S
Zn262  O508    1.939   1_455 S
Zn263  O499    1.937   1_455 S
Zn264  O783    1.937   1_545 S
Zn265  O769    1.939   1_545 S
Zn266  O505    1.937   1_455 S
Zn267  O514    1.939   1_455 S
Zn268  O502    1.949   .     S
C269   I453    2.161   .     S
C269   C272    1.411   .     A
C269   C46     1.403   1_655 S
C270   I454    2.161   .     S
C270   C856    1.404   .     A
C270   C282    1.411   .     A
C271   C383    1.411   .     A
C271   C326    1.407   .     A
C271   C306    1.422   .     S
C272   C327    1.407   .     A
C272   C34     1.421   1_655 S
C273   C317    1.411   .     A
C273   C329    1.407   .     A
C273   C304    1.422   .     S
C274   C328    1.411   .     A
C274   C305    1.422   .     A
C274   C330    1.407   .     A
C275   C339    1.411   .     A
C275   C331    1.407   .     A
C275   C842    1.422   .     A
C276   C332    1.407   .     A
C276   C303    1.411   .     A
C276   C843    1.422   .     S
C277   C311    1.411   .     A
C277   C333    1.407   .     A
C277   C308    1.422   .     S
C278   C309    1.422   .     A
C278   C334    1.407   .     A
C278   C312    1.411   .     A
C279   C335    1.407   .     A
C279   C313    1.411   .     A
C279   C42     1.422   1_655 S
C280   C336    1.407   .     A
C280   C307    1.422   .     A
C280   C394    1.411   .     A
C281   I455    2.161   .     S
C281   C283    1.411   .     A
C281   C53     1.403   1_655 S
C282   C337    1.407   .     A
C282   C844    1.422   .     A
C283   C338    1.407   .     A
C283   C41     1.422   1_655 S
C284   C340    1.407   .     A
C284   C310    1.422   .     A
C284   C292    1.411   .     A
C285   C356    1.457   .     S
C285   C386    1.404   .     A
C285   C384    1.405   .     A
C286   C382    1.405   .     A
C286   C357    1.457   .     S
C286   C385    1.405   .     A
C287   C388    1.404   .     A
C287   C381    1.404   .     A
C287   C349    1.456   .     S
C288   C380    1.404   .     A
C288   C351    1.456   .     S
C288   C387    1.404   .     A
C289   C390    1.405   .     A
C289   C379    1.404   .     A
C289   C352    1.457   .     S
C290   C353    1.457   .     S
C290   C378    1.404   .     A
C290   C389    1.404   .     A
C291   C392    1.404   .     A
C291   C354    1.456   .     S
C291   C377    1.404   .     A
C292   C322    1.403   .     A
C292   I456    2.161   .     S
C293   C391    1.404   .     A
C293   C355    1.456   .     S
C293   C376    1.404   .     A
C294   C375    1.404   .     A
C294   C395    1.404   .     A
C294   C365    1.456   .     S
C295   C366    1.456   .     S
C295   C393    1.404   .     A
C295   C374    1.404   .     A
C296   C373    1.404   .     A
C296   C397    1.404   .     A
C296   C358    1.457   .     S
C297   C371    1.405   .     A
C297   C359    1.457   .     S
C297   C396    1.404   .     A
C298   C399    1.404   .     A
C298   C360    1.456   .     S
C298   C370    1.404   .     A
C299   C369    1.404   .     A
C299   C398    1.404   .     A
C299   C362    1.456   .     S
C300   C401    1.405   .     A
C300   C363    1.457   .     S
C300   C368    1.405   .     A
C301   C367    1.404   .     A
C301   C400    1.405   .     A
C301   C364    1.457   .     S
C302   C402    1.422   .     A
C302   C304    1.421   .     S
C303   I457    2.161   .     S
C303   C855    1.403   .     S
C305   C306    1.421   .     S
C305   C940    1.422   1_545 S
C306   C811    1.422   1_545 A
C307   C812    1.422   1_545 S
C307   C308    1.421   1_556 S
C308   C818    1.422   1_545 A
C308   C307    1.421   1_554 S
C309   C310    1.421   1_556 S
C310   C309    1.421   1_554 S
C311   I458    2.161   .     S
C311   C320    1.403   .     S
C312   I459    2.161   .     S
C312   C321    1.403   .     A
C313   I460    2.161   .     S
C313   C54     1.403   1_655 S
C314   C343    1.452   .     S
C314   C350    1.403   .     A
C315   C344    1.452   .     S
C315   C317    1.403   .     S
C316   C328    1.403   .     A
C316   C341    1.452   .     S
C316   C908    1.403   1_545 S
C317   I461    2.161   .     S
C318   C342    1.452   .     S
C318   C875    1.403   1_545 A
C318   C383    1.403   .     S
C319   C394    1.404   .     A
C319   C347    1.452   .     S
C319   C839    1.403   1_545 S
C320   C806    1.404   1_545 A
C320   C348    1.452   .     S
C321   C345    1.452   .     S
C322   C346    1.452   .     S
C323   C402    1.407   .     A
C323   F405    1.355   .     S
C323   C329    1.385   .     A
C324   F416    1.355   .     S
C324   C403    1.407   .     A
C324   C327    1.385   .     A
C325   C404    1.407   .     A
C325   F427    1.355   .     S
C325   C331    1.385   .     A
C326   C330    1.385   .     A
C326   F438    1.355   .     S
C327   F448    1.355   .     S
C328   I462    2.161   .     S
C329   F449    1.355   .     S
C330   F450    1.355   .     S
C331   F451    1.355   .     S
C332   F452    1.355   .     S
C332   C337    1.385   1_556 S
C333   F406    1.355   .     S
C333   C336    1.385   1_554 S
C334   F407    1.355   .     S
C334   C340    1.385   1_556 S
C335   F408    1.355   .     S
C335   C338    1.385   1_554 S
C336   F409    1.355   .     S
C336   C333    1.385   1_556 S
C337   F410    1.355   .     S
C337   C332    1.385   1_554 S
C338   F411    1.355   .     S
C338   C335    1.385   1_556 S
C339   I463    2.161   .     S
C339   C854    1.403   .     A
C340   F412    1.355   .     S
C340   C334    1.385   1_554 S
C341   O520    1.278   .     A
C341   O1049   1.278   1_545 S
C342   O1006   1.278   1_545 A
C342   O517    1.278   .     S
C343   O518    1.278   .     A
C344   O472    1.278   .     S
C345   O473    1.278   .     A
C345   O477    1.278   .     A
C346   O478    1.278   .     A
C346   O474    1.278   .     A
C347   O479    1.278   .     A
C347   O475    1.278   .     A
C348   O476    1.278   .     A
C348   O481    1.278   .     A
C349   O510    1.281   .     A
C349   O482    1.281   .     A
C350   C402    1.411   .     A
C350   I464    2.161   .     S
C351   O511    1.281   .     A
C351   O483    1.281   .     A
C352   O508    1.281   .     A
C352   O484    1.281   .     A
C353   O485    1.281   .     A
C353   O509    1.281   .     A
C354   O515    1.281   .     A
C354   O486    1.281   .     A
C355   O516    1.281   .     A
C355   O487    1.281   .     A
C356   O488    1.281   .     A
C356   O512    1.281   .     A
C357   O514    1.281   .     A
C357   O489    1.281   .     A
C358   O490    1.281   .     A
C358   O501    1.281   .     A
C359   O503    1.281   .     A
C359   O492    1.281   .     A
C360   O499    1.281   .     A
C360   O493    1.281   .     A
C361   C47     1.403   1_655 A
C361   C403    1.411   .     A
C361   I465    2.161   .     S
C362   O500    1.281   .     A
C362   O494    1.281   .     A
C363   O506    1.281   .     A
C363   O495    1.281   .     A
C364   O496    1.281   .     A
C364   O507    1.281   .     A
C365   O497    1.281   .     A
C365   O504    1.281   .     A
C366   O505    1.281   .     A
C366   O498    1.281   .     A
C367   C384    1.387   .     A
C367   F413    1.358   .     S
C368   F414    1.358   .     S
C368   C382    1.387   .     A
C369   C381    1.387   .     A
C369   F415    1.358   .     S
C370   C380    1.387   .     A
C370   F417    1.358   .     S
C371   C379    1.387   .     A
C371   F418    1.358   .     S
C372   C404    1.411   .     A
C372   I466    2.161   .     S
C372   C852    1.403   .     S
C373   C378    1.387   .     A
C373   F419    1.358   .     S
C374   F420    1.359   .     S
C374   C377    1.387   .     A
C375   C376    1.387   .     A
C375   F421    1.359   .     S
C376   F422    1.358   .     S
C377   F423    1.359   .     S
C378   F424    1.358   .     S
C379   F425    1.358   .     S
C380   F426    1.358   .     S
C381   F428    1.358   .     S
C382   F429    1.358   .     S
C383   I467    2.161   .     S
C384   F430    1.358   .     S
C385   C401    1.387   .     A
C385   F431    1.358   .     S
C386   F432    1.358   .     S
C386   C400    1.387   .     A
C387   C399    1.387   .     A
C387   F433    1.358   .     S
C388   C398    1.387   .     A
C388   F434    1.358   .     S
C389   F435    1.358   .     S
C389   C397    1.387   .     A
C390   C396    1.387   .     A
C390   F436    1.359   .     S
C391   C395    1.387   .     A
C391   F437    1.358   .     S
C392   F439    1.359   .     S
C392   C393    1.387   .     A
C393   F440    1.359   .     S
C394   I468    2.161   .     S
C395   F441    1.358   .     S
C396   F442    1.358   .     S
C397   F443    1.358   .     S
C398   F444    1.358   .     S
C399   F445    1.358   .     S
C400   F446    1.358   .     S
C401   F447    1.358   .     S
C403   C36     1.422   1_655 A
C404   C841    1.422   .     S
O469   Zn532   1.949   .     S
O469   Zn524   1.949   .     S
O469   Zn521   1.949   .     S
O469   Zn1064  1.949   1_545 S
O470   C878    1.278   .     A
O470   Zn523   1.948   .     S
O471   Zn526   1.948   .     S
O471   C75     1.278   1_655 S
O472   Zn525   1.948   .     S
O473   Zn535   1.948   .     S
O474   Zn534   1.948   .     S
O475   Zn529   1.948   .     S
O476   Zn521   1.948   .     S
O477   Zn531   1.948   .     S
O478   Zn530   1.948   .     S
O479   Zn533   1.948   .     S
O480   Zn529   1.949   .     S
O480   Zn533   1.949   .     S
O480   Zn527   1.949   .     S
O480   Zn1059  1.949   1_545 S
O481   Zn532   1.948   .     S
O482   Zn524   1.937   .     S
O483   Zn523   1.937   .     S
O484   Zn526   1.939   .     S
O485   Zn525   1.939   .     S
O486   Zn528   1.937   .     S
O487   Zn527   1.937   .     S
O488   Zn522   1.939   .     S
O489   Zn536   1.939   .     S
O490   Zn523   1.939   .     S
O491   Zn534   1.949   .     S
O491   Zn522   1.949   .     S
O491   Zn530   1.949   .     S
O492   Zn524   1.939   .     S
O493   Zn536   1.937   .     S
O494   Zn522   1.937   .     S
O495   Zn527   1.939   .     S
O496   Zn528   1.939   .     S
O497   Zn525   1.937   .     S
O498   Zn526   1.937   .     S
O499   Zn263   1.937   1_655 S
O500   Zn530   1.937   .     S
O501   Zn1069  1.939   .     S
O502   Zn525   1.949   .     S
O502   Zn531   1.949   .     S
O502   Zn535   1.949   .     S
O503   Zn532   1.939   .     S
O504   Zn535   1.937   .     S
O505   Zn266   1.937   1_655 S
O506   Zn529   1.939   .     S
O507   Zn1057  1.939   .     S
O508   Zn262   1.939   1_655 S
O509   Zn531   1.939   .     S
O510   Zn521   1.937   .     S
O511   Zn1065  1.937   .     S
O512   Zn534   1.939   .     S
O513   Zn528   1.948   .     S
O513   C877    1.278   .     S
O514   Zn267   1.939   1_655 S
O515   Zn1068  1.937   .     S
O516   Zn533   1.937   .     S
O517   Zn527   1.948   .     S
O518   Zn522   1.948   .     S
O519   C76     1.278   1_655 A
O519   Zn536   1.948   .     S
O520   Zn524   1.948   .     S
Zn521  O1043   1.939   1_545 S
Zn523  O1016   1.949   .     S
Zn526  O223    1.949   1_655 S
Zn528  O1005   1.949   .     S
Zn529  O1047   1.937   1_545 S
Zn532  O1051   1.937   1_545 S
Zn533  O1037   1.939   1_545 S
Zn536  O234    1.949   1_655 S
C537   I721    2.161   .     S
C537   C540    1.411   .     A
C537   C850    1.403   .     S
C538   I722    2.161   .     S
C538   C52     1.404   1_565 A
C538   C550    1.411   .     A
C539   C651    1.411   .     A
C539   C594    1.407   .     A
C539   C574    1.422   .     S
C540   C595    1.407   .     A
C540   C838    1.421   .     S
C541   C585    1.411   .     A
C541   C597    1.407   .     A
C541   C572    1.422   .     S
C542   C596    1.411   .     A
C542   C573    1.422   .     A
C542   C598    1.407   .     A
C543   C607    1.411   .     A
C543   C599    1.407   .     A
C543   C38     1.422   1_565 A
C544   C600    1.407   .     A
C544   C571    1.411   .     A
C544   C39     1.422   1_565 S
C545   C579    1.411   .     A
C545   C601    1.407   .     A
C545   C576    1.422   .     S
C546   C577    1.422   .     A
C546   C602    1.407   .     A
C546   C580    1.411   .     A
C547   C603    1.407   .     A
C547   C581    1.411   .     A
C547   C846    1.422   .     S
C548   C604    1.407   .     A
C548   C575    1.422   .     A
C548   C662    1.411   .     A
C549   I723    2.161   .     S
C549   C551    1.411   .     A
C549   C857    1.403   .     S
C550   C605    1.407   .     A
C550   C40     1.422   1_565 A
C551   C606    1.407   .     A
C551   C845    1.422   .     S
C552   C608    1.407   .     A
C552   C578    1.422   .     A
C552   C560    1.411   .     A
C553   C624    1.457   .     S
C553   C654    1.404   .     A
C553   C652    1.405   .     A
C554   C650    1.405   .     A
C554   C625    1.457   .     S
C554   C653    1.405   .     A
C555   C656    1.404   .     A
C555   C649    1.404   .     A
C555   C617    1.456   .     S
C556   C648    1.404   .     A
C556   C619    1.456   .     S
C556   C655    1.404   .     A
C557   C658    1.405   .     A
C557   C647    1.404   .     A
C557   C620    1.457   .     S
C558   C621    1.457   .     S
C558   C646    1.404   .     A
C558   C657    1.404   .     A
C559   C660    1.404   .     A
C559   C622    1.456   .     S
C559   C645    1.404   .     A
C560   C590    1.403   .     A
C560   I724    2.161   .     S
C561   C659    1.404   .     A
C561   C623    1.456   .     S
C561   C644    1.404   .     A
C562   C643    1.404   .     A
C562   C663    1.404   .     A
C562   C633    1.456   .     S
C563   C634    1.456   .     S
C563   C661    1.404   .     A
C563   C642    1.404   .     A
C564   C641    1.404   .     A
C564   C665    1.404   .     A
C564   C626    1.457   .     S
C565   C639    1.405   .     A
C565   C627    1.457   .     S
C565   C664    1.404   .     A
C566   C667    1.404   .     A
C566   C628    1.456   .     S
C566   C638    1.404   .     A
C567   C637    1.404   .     A
C567   C666    1.404   .     A
C567   C630    1.456   .     S
C568   C669    1.405   .     A
C568   C631    1.457   .     S
C568   C636    1.405   .     A
C569   C635    1.404   .     A
C569   C668    1.405   .     A
C569   C632    1.457   .     S
C570   C670    1.422   .     A
C570   C808    1.421   1_455 S
C570   C572    1.421   .     S
C571   I725    2.161   .     S
C571   C51     1.403   1_565 S
C572   C939    1.422   1_455 A
C573   C574    1.421   .     S
C575   C576    1.421   1_556 S
C576   C575    1.421   1_554 S
C577   C819    1.422   1_455 S
C577   C578    1.421   1_556 S
C578   C815    1.422   1_455 S
C578   C577    1.421   1_554 S
C579   I726    2.161   .     S
C579   C588    1.403   .     S
C580   I727    2.161   .     S
C580   C589    1.403   .     A
C581   I728    2.161   .     S
C581   C858    1.403   .     S
C582   C611    1.452   .     S
C582   C618    1.403   .     A
C582   C805    1.403   1_455 S
C583   C612    1.452   .     S
C583   C897    1.403   1_455 A
C583   C585    1.403   .     S
C584   C596    1.403   .     A
C584   C609    1.452   .     S
C585   I729    2.161   .     S
C586   C610    1.452   .     S
C586   C651    1.403   .     S
C587   C662    1.404   .     A
C587   C615    1.452   .     S
C588   C616    1.452   .     S
C589   C613    1.452   .     S
C589   C817    1.403   1_455 S
C590   C614    1.452   .     S
C590   C849    1.403   1_455 S
C591   C670    1.407   .     A
C591   F673    1.355   .     S
C591   C597    1.385   .     A
C592   F684    1.355   .     S
C592   C671    1.407   .     A
C592   C595    1.385   .     A
C593   C672    1.407   .     A
C593   F695    1.355   .     S
C593   C599    1.385   .     A
C594   C598    1.385   .     A
C594   F706    1.355   .     S
C595   F716    1.355   .     S
C596   I730    2.161   .     S
C597   F717    1.355   .     S
C598   F718    1.355   .     S
C599   F719    1.355   .     S
C600   F720    1.355   .     S
C600   C605    1.385   1_556 S
C601   F674    1.355   .     S
C601   C604    1.385   1_554 S
C602   F675    1.355   .     S
C602   C608    1.385   1_556 S
C603   F676    1.355   .     S
C603   C606    1.385   1_554 S
C604   F677    1.355   .     S
C604   C601    1.385   1_556 S
C605   F678    1.355   .     S
C605   C600    1.385   1_554 S
C606   F679    1.355   .     S
C606   C603    1.385   1_556 S
C607   I731    2.161   .     S
C607   C50     1.403   1_565 A
C608   F680    1.355   .     S
C608   C602    1.385   1_554 S
C609   O788    1.278   .     A
C610   O785    1.278   .     S
C611   O786    1.278   .     A
C611   O1007   1.278   1_455 S
C612   O1055   1.278   1_455 A
C612   O740    1.278   .     S
C613   O741    1.278   .     A
C613   O745    1.278   .     A
C614   O746    1.278   .     A
C614   O742    1.278   .     A
C615   O747    1.278   .     A
C615   O743    1.278   .     A
C616   O744    1.278   .     A
C616   O749    1.278   .     A
C617   O778    1.281   .     A
C617   O750    1.281   .     A
C618   C670    1.411   .     A
C618   I732    2.161   .     S
C619   O779    1.281   .     A
C619   O751    1.281   .     A
C620   O776    1.281   .     A
C620   O752    1.281   .     A
C621   O753    1.281   .     A
C621   O777    1.281   .     A
C622   O783    1.281   .     A
C622   O754    1.281   .     A
C623   O784    1.281   .     A
C623   O755    1.281   .     A
C624   O756    1.281   .     A
C624   O780    1.281   .     A
C625   O782    1.281   .     A
C625   O757    1.281   .     A
C626   O758    1.281   .     A
C626   O769    1.281   .     A
C627   O771    1.281   .     A
C627   O760    1.281   .     A
C628   O767    1.281   .     A
C628   O761    1.281   .     A
C629   C851    1.403   .     A
C629   C671    1.411   .     A
C629   I733    2.161   .     S
C630   O768    1.281   .     A
C630   O762    1.281   .     A
C631   O774    1.281   .     A
C631   O763    1.281   .     A
C632   O764    1.281   .     A
C632   O775    1.281   .     A
C633   O765    1.281   .     A
C633   O772    1.281   .     A
C634   O773    1.281   .     A
C634   O766    1.281   .     A
C635   C652    1.387   .     A
C635   F681    1.358   .     S
C636   F682    1.358   .     S
C636   C650    1.387   .     A
C637   C649    1.387   .     A
C637   F683    1.358   .     S
C638   C648    1.387   .     A
C638   F685    1.358   .     S
C639   C647    1.387   .     A
C639   F686    1.358   .     S
C640   C672    1.411   .     A
C640   I734    2.161   .     S
C640   C48     1.403   1_565 S
C641   C646    1.387   .     A
C641   F687    1.358   .     S
C642   F688    1.359   .     S
C642   C645    1.387   .     A
C643   C644    1.387   .     A
C643   F689    1.359   .     S
C644   F690    1.358   .     S
C645   F691    1.359   .     S
C646   F692    1.358   .     S
C647   F693    1.358   .     S
C648   F694    1.358   .     S
C649   F696    1.358   .     S
C650   F697    1.358   .     S
C651   I735    2.161   .     S
C652   F698    1.358   .     S
C653   C669    1.387   .     A
C653   F699    1.358   .     S
C654   F700    1.358   .     S
C654   C668    1.387   .     A
C655   C667    1.387   .     A
C655   F701    1.358   .     S
C656   C666    1.387   .     A
C656   F702    1.358   .     S
C657   F703    1.358   .     S
C657   C665    1.387   .     A
C658   C664    1.387   .     A
C658   F704    1.359   .     S
C659   C663    1.387   .     A
C659   F705    1.358   .     S
C660   F707    1.359   .     S
C660   C661    1.387   .     A
C661   F708    1.359   .     S
C662   I736    2.161   .     S
C663   F709    1.358   .     S
C664   F710    1.358   .     S
C665   F711    1.358   .     S
C666   F712    1.358   .     S
C667   F713    1.358   .     S
C668   F714    1.358   .     S
C669   F715    1.358   .     S
C671   C840    1.422   .     A
C672   C37     1.422   1_565 S
O737   Zn800   1.949   .     S
O737   Zn792   1.949   .     S
O737   Zn789   1.949   .     S
O738   C74     1.278   1_565 A
O738   Zn791   1.948   .     S
O739   Zn794   1.948   .     S
O739   C879    1.278   .     S
O740   Zn793   1.948   .     S
O741   Zn803   1.948   .     S
O742   Zn802   1.948   .     S
O743   Zn797   1.948   .     S
O744   Zn789   1.948   .     S
O745   Zn799   1.948   .     S
O746   Zn798   1.948   .     S
O747   Zn801   1.948   .     S
O748   Zn797   1.949   .     S
O748   Zn801   1.949   .     S
O748   Zn795   1.949   .     S
O749   Zn800   1.948   .     S
O750   Zn792   1.937   .     S
O751   Zn791   1.937   .     S
O752   Zn794   1.939   .     S
O753   Zn793   1.939   .     S
O754   Zn796   1.937   .     S
O755   Zn795   1.937   .     S
O756   Zn790   1.939   .     S
O757   Zn804   1.939   .     S
O758   Zn791   1.939   .     S
O759   Zn802   1.949   .     S
O759   Zn790   1.949   .     S
O759   Zn798   1.949   .     S
O759   Zn1062  1.949   1_455 S
O760   Zn792   1.939   .     S
O761   Zn804   1.937   .     S
O762   Zn790   1.937   .     S
O763   Zn795   1.939   .     S
O764   Zn796   1.939   .     S
O765   Zn793   1.937   .     S
O766   Zn794   1.937   .     S
O767   Zn1067  1.937   .     S
O768   Zn798   1.937   .     S
O769   Zn265   1.939   1_565 S
O770   Zn793   1.949   .     S
O770   Zn799   1.949   .     S
O770   Zn803   1.949   .     S
O770   Zn1072  1.949   1_455 S
O771   Zn800   1.939   .     S
O772   Zn803   1.937   .     S
O773   Zn1070  1.937   .     S
O774   Zn797   1.939   .     S
O775   Zn253   1.939   1_565 S
O776   Zn1066  1.939   .     S
O777   Zn799   1.939   .     S
O778   Zn789   1.937   .     S
O779   Zn261   1.937   1_565 S
O780   Zn802   1.939   .     S
O781   Zn796   1.948   .     S
O781   C73     1.278   1_565 S
O782   Zn1071  1.939   .     S
O783   Zn264   1.937   1_565 S
O784   Zn801   1.937   .     S
O785   Zn795   1.948   .     S
O786   Zn790   1.948   .     S
O787   C880    1.278   .     A
O787   Zn804   1.948   .     S
O788   Zn792   1.948   .     S
Zn791  O212    1.949   1_565 S
Zn794  O1027   1.949   .     S
Zn796  O201    1.949   1_565 S
Zn798  O1044   1.939   1_455 S
Zn799  O1035   1.937   1_455 S
Zn802  O1041   1.937   1_455 S
Zn803  O1050   1.939   1_455 S
Zn804  O1038   1.949   .     S
C805   I989    2.161   .     S
C805   C808    1.411   .     A
C805   C582    1.403   1_655 S
C806   I990    2.161   .     S
C806   C320    1.404   1_565 A
C806   C818    1.411   .     A
C807   C919    1.411   .     A
C807   C862    1.407   .     A
C807   C842    1.422   .     S
C808   C863    1.407   .     A
C808   C570    1.421   1_655 S
C809   C853    1.411   .     A
C809   C865    1.407   .     A
C809   C840    1.422   .     S
C810   C864    1.411   .     A
C810   C841    1.422   .     A
C810   C866    1.407   .     A
C811   C875    1.411   .     A
C811   C867    1.407   .     A
C811   C306    1.422   1_565 A
C812   C868    1.407   .     A
C812   C839    1.411   .     A
C812   C307    1.422   1_565 S
C813   C847    1.411   .     A
C813   C869    1.407   .     A
C813   C844    1.422   .     S
C814   C845    1.422   .     A
C814   C870    1.407   .     A
C814   C848    1.411   .     A
C815   C871    1.407   .     A
C815   C849    1.411   .     A
C815   C578    1.422   1_655 S
C816   C872    1.407   .     A
C816   C843    1.422   .     A
C816   C930    1.411   .     A
C817   I991    2.161   .     S
C817   C819    1.411   .     A
C817   C589    1.403   1_655 S
C818   C873    1.407   .     A
C818   C308    1.422   1_565 A
C819   C874    1.407   .     A
C819   C577    1.422   1_655 S
C820   C876    1.407   .     A
C820   C846    1.422   .     A
C820   C828    1.411   .     A
C821   C892    1.457   .     S
C821   C922    1.404   .     A
C821   C920    1.405   .     A
C822   C918    1.405   .     A
C822   C893    1.457   .     S
C822   C921    1.405   .     A
C823   C924    1.404   .     A
C823   C917    1.404   .     A
C823   C885    1.456   .     S
C824   C916    1.404   .     A
C824   C887    1.456   .     S
C824   C923    1.404   .     A
C825   C926    1.405   .     A
C825   C915    1.404   .     A
C825   C888    1.457   .     S
C826   C889    1.457   .     S
C826   C914    1.404   .     A
C826   C925    1.404   .     A
C827   C928    1.404   .     A
C827   C890    1.456   .     S
C827   C913    1.404   .     A
C828   C858    1.403   .     A
C828   I992    2.161   .     S
C829   C927    1.404   .     A
C829   C891    1.456   .     S
C829   C912    1.404   .     A
C830   C911    1.404   .     A
C830   C931    1.404   .     A
C830   C901    1.456   .     S
C831   C902    1.456   .     S
C831   C929    1.404   .     A
C831   C910    1.404   .     A
C832   C909    1.404   .     A
C832   C933    1.404   .     A
C832   C894    1.457   .     S
C833   C907    1.405   .     A
C833   C895    1.457   .     S
C833   C932    1.404   .     A
C834   C935    1.404   .     A
C834   C896    1.456   .     S
C834   C906    1.404   .     A
C835   C905    1.404   .     A
C835   C934    1.404   .     A
C835   C898    1.456   .     S
C836   C937    1.405   .     A
C836   C899    1.457   .     S
C836   C904    1.405   .     A
C837   C903    1.404   .     A
C837   C936    1.405   .     A
C837   C900    1.457   .     S
C838   C938    1.422   .     A
C838   C840    1.421   .     S
C839   I993    2.161   .     S
C839   C319    1.403   1_565 S
C841   C842    1.421   .     S
C843   C844    1.421   1_556 S
C844   C843    1.421   1_554 S
C845   C846    1.421   1_556 S
C846   C845    1.421   1_554 S
C847   I994    2.161   .     S
C847   C856    1.403   .     S
C848   I995    2.161   .     S
C848   C857    1.403   .     A
C849   I996    2.161   .     S
C849   C590    1.403   1_655 S
C850   C879    1.452   .     S
C850   C886    1.403   .     A
C851   C880    1.452   .     S
C851   C853    1.403   .     S
C852   C864    1.403   .     A
C852   C877    1.452   .     S
C853   I997    2.161   .     S
C854   C878    1.452   .     S
C854   C919    1.403   .     S
C855   C930    1.404   .     A
C855   C883    1.452   .     S
C856   C884    1.452   .     S
C857   C881    1.452   .     S
C858   C882    1.452   .     S
C859   C938    1.407   .     A
C859   F941    1.355   .     S
C859   C865    1.385   .     A
C860   F952    1.355   .     S
C860   C939    1.407   .     A
C860   C863    1.385   .     A
C861   C940    1.407   .     A
C861   F963    1.355   .     S
C861   C867    1.385   .     A
C862   C866    1.385   .     A
C862   F974    1.355   .     S
C863   F984    1.355   .     S
C864   I998    2.161   .     S
C865   F985    1.355   .     S
C866   F986    1.355   .     S
C867   F987    1.355   .     S
C868   F988    1.355   .     S
C868   C873    1.385   1_556 S
C869   F942    1.355   .     S
C869   C872    1.385   1_554 S
C870   F943    1.355   .     S
C870   C876    1.385   1_556 S
C871   F944    1.355   .     S
C871   C874    1.385   1_554 S
C872   F945    1.355   .     S
C872   C869    1.385   1_556 S
C873   F946    1.355   .     S
C873   C868    1.385   1_554 S
C874   F947    1.355   .     S
C874   C871    1.385   1_556 S
C875   I999    2.161   .     S
C875   C318    1.403   1_565 A
C876   F948    1.355   .     S
C876   C870    1.385   1_554 S
C877   O1056   1.278   .     A
C878   O1053   1.278   .     S
C879   O1054   1.278   .     A
C880   O1008   1.278   .     S
C881   O1009   1.278   .     A
C881   O1013   1.278   .     A
C882   O1014   1.278   .     A
C882   O1010   1.278   .     A
C883   O1015   1.278   .     A
C883   O1011   1.278   .     A
C884   O1012   1.278   .     A
C884   O1017   1.278   .     A
C885   O1046   1.281   .     A
C885   O1018   1.281   .     A
C886   C938    1.411   .     A
C886   I1000   2.161   .     S
C887   O1047   1.281   .     A
C887   O1019   1.281   .     A
C888   O1044   1.281   .     A
C888   O1020   1.281   .     A
C889   O1021   1.281   .     A
C889   O1045   1.281   .     A
C890   O1051   1.281   .     A
C890   O1022   1.281   .     A
C891   O1052   1.281   .     A
C891   O1023   1.281   .     A
C892   O1024   1.281   .     A
C892   O1048   1.281   .     A
C893   O1050   1.281   .     A
C893   O1025   1.281   .     A
C894   O1026   1.281   .     A
C894   O1037   1.281   .     A
C895   O1039   1.281   .     A
C895   O1028   1.281   .     A
C896   O1035   1.281   .     A
C896   O1029   1.281   .     A
C897   C583    1.403   1_655 A
C897   C939    1.411   .     A
C897   I1001   2.161   .     S
C898   O1036   1.281   .     A
C898   O1030   1.281   .     A
C899   O1042   1.281   .     A
C899   O1031   1.281   .     A
C900   O1032   1.281   .     A
C900   O1043   1.281   .     A
C901   O1033   1.281   .     A
C901   O1040   1.281   .     A
C902   O1041   1.281   .     A
C902   O1034   1.281   .     A
C903   C920    1.387   .     A
C903   F949    1.358   .     S
C904   F950    1.358   .     S
C904   C918    1.387   .     A
C905   C917    1.387   .     A
C905   F951    1.358   .     S
C906   C916    1.387   .     A
C906   F953    1.358   .     S
C907   C915    1.387   .     A
C907   F954    1.358   .     S
C908   C940    1.411   .     A
C908   I1002   2.161   .     S
C908   C316    1.403   1_565 S
C909   C914    1.387   .     A
C909   F955    1.358   .     S
C910   F956    1.359   .     S
C910   C913    1.387   .     A
C911   C912    1.387   .     A
C911   F957    1.359   .     S
C912   F958    1.358   .     S
C913   F959    1.359   .     S
C914   F960    1.358   .     S
C915   F961    1.358   .     S
C916   F962    1.358   .     S
C917   F964    1.358   .     S
C918   F965    1.358   .     S
C919   I1003   2.161   .     S
C920   F966    1.358   .     S
C921   C937    1.387   .     A
C921   F967    1.358   .     S
C922   F968    1.358   .     S
C922   C936    1.387   .     A
C923   C935    1.387   .     A
C923   F969    1.358   .     S
C924   C934    1.387   .     A
C924   F970    1.358   .     S
C925   F971    1.358   .     S
C925   C933    1.387   .     A
C926   C932    1.387   .     A
C926   F972    1.359   .     S
C927   C931    1.387   .     A
C927   F973    1.358   .     S
C928   F975    1.359   .     S
C928   C929    1.387   .     A
C929   F976    1.359   .     S
C930   I1004   2.161   .     S
C931   F977    1.358   .     S
C932   F978    1.358   .     S
C933   F979    1.358   .     S
C934   F980    1.358   .     S
C935   F981    1.358   .     S
C936   F982    1.358   .     S
C937   F983    1.358   .     S
C939   C572    1.422   1_655 A
C940   C305    1.422   1_565 S
O1005  Zn1068  1.949   .     S
O1005  Zn1060  1.949   .     S
O1005  Zn1057  1.949   .     S
O1006  C342    1.278   1_565 A
O1006  Zn1059  1.948   .     S
O1007  Zn1062  1.948   .     S
O1007  C611    1.278   1_655 S
O1008  Zn1061  1.948   .     S
O1009  Zn1071  1.948   .     S
O1010  Zn1070  1.948   .     S
O1011  Zn1065  1.948   .     S
O1012  Zn1057  1.948   .     S
O1013  Zn1067  1.948   .     S
O1014  Zn1066  1.948   .     S
O1015  Zn1069  1.948   .     S
O1016  Zn1065  1.949   .     S
O1016  Zn1069  1.949   .     S
O1016  Zn1063  1.949   .     S
O1017  Zn1068  1.948   .     S
O1018  Zn1060  1.937   .     S
O1019  Zn1059  1.937   .     S
O1020  Zn1062  1.939   .     S
O1021  Zn1061  1.939   .     S
O1022  Zn1064  1.937   .     S
O1023  Zn1063  1.937   .     S
O1024  Zn1058  1.939   .     S
O1025  Zn1072  1.939   .     S
O1026  Zn1059  1.939   .     S
O1027  Zn1070  1.949   .     S
O1027  Zn1058  1.949   .     S
O1027  Zn1066  1.949   .     S
O1028  Zn1060  1.939   .     S
O1029  Zn1072  1.937   .     S
O1030  Zn1058  1.937   .     S
O1031  Zn1063  1.939   .     S
O1032  Zn1064  1.939   .     S
O1033  Zn1061  1.937   .     S
O1034  Zn1062  1.937   .     S
O1035  Zn799   1.937   1_655 S
O1036  Zn1066  1.937   .     S
O1037  Zn533   1.939   1_565 S
O1038  Zn1061  1.949   .     S
O1038  Zn1067  1.949   .     S
O1038  Zn1071  1.949   .     S
O1039  Zn1068  1.939   .     S
O1040  Zn1071  1.937   .     S
O1041  Zn802   1.937   1_655 S
O1042  Zn1065  1.939   .     S
O1043  Zn521   1.939   1_565 S
O1044  Zn798   1.939   1_655 S
O1045  Zn1067  1.939   .     S
O1046  Zn1057  1.937   .     S
O1047  Zn529   1.937   1_565 S
O1048  Zn1070  1.939   .     S
O1049  Zn1064  1.948   .     S
O1049  C341    1.278   1_565 S
O1050  Zn803   1.939   1_655 S
O1051  Zn532   1.937   1_565 S
O1052  Zn1069  1.937   .     S
O1053  Zn1063  1.948   .     S
O1054  Zn1058  1.948   .     S
O1055  C612    1.278   1_655 A
O1055  Zn1072  1.948   .     S
O1056  Zn1060  1.948   .     S
Zn1059 O480    1.949   1_565 S
Zn1062 O759    1.949   1_655 S
Zn1064 O469    1.949   1_565 S
Zn1072 O770    1.949   1_655 S
