data_str_m1_o10_o18_pcu_sym.61
_audit_creation_date              2020-01-03
_audit_creation_method            'Materials Studio'
_symmetry_space_group_name_H-M    'P1'
_symmetry_Int_Tables_number       1
_symmetry_cell_setting            triclinic
loop_
_symmetry_equiv_pos_as_xyz
  x,y,z
_cell_length_a                    32.6097
_cell_length_b                    32.6796
_cell_length_c                    35.5018
_cell_angle_alpha                 97.9348
_cell_angle_beta                  72.8016
_cell_angle_gamma                 98.3178
loop_
_atom_site_label
_atom_site_type_symbol
_atom_site_fract_x
_atom_site_fract_y
_atom_site_fract_z
_atom_site_U_iso_or_equiv
_atom_site_adp_type
_atom_site_occupancy
Zn1    Zn    0.19244   0.14090   0.28278   0.00000  Uiso   1.00
Zn2    Zn    0.13459   0.12378   0.22258   0.00000  Uiso   1.00
Zn3    Zn    0.21166   0.19664   0.21188   0.00000  Uiso   1.00
Zn4    Zn    0.12798   0.20535   0.28277   0.00000  Uiso   1.00
O5     O     0.16667   0.16667   0.25000   0.00000  Uiso   1.00
O6     O     0.06990   0.18960   0.27820   0.00000  Uiso   1.00
O7     O     0.25440   0.15277   0.26768   0.00000  Uiso   1.00
O8     O     0.13800   0.06903   0.23607   0.00000  Uiso   1.00
O9     O     0.20437   0.25527   0.21806   0.00000  Uiso   1.00
O10    O     0.15693   0.12393   0.16625   0.00000  Uiso   1.00
O11    O     0.12687   0.20646   0.33749   0.00000  Uiso   1.00
O12    O     0.21088   0.17493   0.15877   0.00000  Uiso   1.00
O13    O     0.17198   0.16135   0.33749   0.00000  Uiso   1.00
O14    O     0.17849   0.08101   0.27821   0.00000  Uiso   1.00
O15    O     0.14581   0.26136   0.26767   0.00000  Uiso   1.00
O16    O     0.07452   0.13251   0.23607   0.00000  Uiso   1.00
O17    O     0.26785   0.19179   0.21806   0.00000  Uiso   1.00
C18    C     0.05239   0.15941   0.25940   0.00000  Uiso   1.00
C19    C     0.28112   0.17437   0.24159   0.00000  Uiso   1.00
C20    C     0.15673   0.05629   0.25864   0.00000  Uiso   1.00
C21    C     0.17666   0.27767   0.24143   0.00000  Uiso   1.00
C22    C     0.18900   0.14484   0.14392   0.00000  Uiso   1.00
C23    C     0.14428   0.18678   0.35651   0.00000  Uiso   1.00
C24    C     0.13006   0.19075   0.40042   0.00000  Uiso   1.00
C25    C     0.19990   0.13507   0.10092   0.00000  Uiso   1.00
C26    C     0.08228   0.21360   0.46428   0.00000  Uiso   1.00
C27    C     0.09213   0.20882   0.42290   0.00000  Uiso   1.00
C28    C     0.15407   0.17402   0.42030   0.00000  Uiso   1.00
C29    C     0.14010   0.17273   0.46165   0.00000  Uiso   1.00
C30    C     0.10607   0.19599   0.48366   0.00000  Uiso   1.00
C31    C     0.15960   0.14977   0.48172   0.00000  Uiso   1.00
C32    C     0.15168   0.15812   0.02360   0.00000  Uiso   1.00
C33    C     0.11630   0.18098   0.04509   0.00000  Uiso   1.00
C34    C     0.09439   0.19954   0.02484   0.00000  Uiso   1.00
C35    C     0.18372   0.11616   0.46202   0.00000  Uiso   1.00
C36    C     0.20560   0.09719   0.48180   0.00000  Uiso   1.00
C37    C     0.20426   0.11007   0.02128   0.00000  Uiso   1.00
C38    C     0.17820   0.14162   0.04221   0.00000  Uiso   1.00
C39    C     0.22838   0.09123   0.04001   0.00000  Uiso   1.00
C40    C     0.22593   0.10327   0.08033   0.00000  Uiso   1.00
C41    C     0.18010   0.15604   0.08082   0.00000  Uiso   1.00
H42    H     0.06700   0.21594   0.04160   0.00000  Uiso   1.00
H43    H     0.16580   0.18356   0.09637   0.00000  Uiso   1.00
H44    H     0.22363   0.07182   0.46569   0.00000  Uiso   1.00
H45    H     0.05421   0.22884   0.48147   0.00000  Uiso   1.00
H46    H     0.18416   0.16254   0.40312   0.00000  Uiso   1.00
C47    C     0.32727   0.17941   0.23874   0.00000  Uiso   1.00
C48    C     0.00749   0.15743   0.26120   0.00000  Uiso   1.00
H49    H     0.31866   0.13553   0.28008   0.00000  Uiso   1.00
C50    C     0.17820   0.32156   0.23721   0.00000  Uiso   1.00
H51    H     0.20001   0.00035   0.21053   0.00000  Uiso   1.00
C52    C     0.15233   0.01315   0.26448   0.00000  Uiso   1.00
O53    O     0.24935   0.05709   0.01991   0.00000  Uiso   1.00
C54    C     0.29485   0.06645   0.00979   0.00000  Uiso   1.00
H55    H     0.30896   0.03693   0.49684   0.00000  Uiso   1.00
H56    H     0.30644   0.07670   0.03618   0.00000  Uiso   1.00
C57    C     0.31208   0.09801   0.47882   0.00000  Uiso   1.00
H58    H     0.30052   0.08680   0.45235   0.00000  Uiso   1.00
H59    H     0.30028   0.12862   0.49140   0.00000  Uiso   1.00
C60    C     0.02802   0.10385   0.46588   0.00000  Uiso   1.00
H61    H     0.04062   0.11549   0.49170   0.00000  Uiso   1.00
H62    H     0.03958   0.12677   0.44364   0.00000  Uiso   1.00
H63    H     0.04076   0.07391   0.45215   0.00000  Uiso   1.00
N64    N     0.02324   0.20787   0.21265   0.00000  Uiso   1.00
O65    O     0.01007   0.24133   0.20627   0.00000  Uiso   1.00
O66    O     0.06216   0.19940   0.19325   0.00000  Uiso   1.00
N67    N     0.12844   0.00157   0.30328   0.00000  Uiso   1.00
O68    O     0.09037   0.01377   0.31981   0.00000  Uiso   1.00
O69    O     0.14852   0.32212   0.32541   0.00000  Uiso   1.00
O70    O     0.24752   0.08155   0.09830   0.00000  Uiso   1.00
C71    C     0.27534   0.10743   0.11822   0.00000  Uiso   1.00
H72    H     0.29642   0.08692   0.12443   0.00000  Uiso   1.00
H73    H     0.25691   0.11954   0.14813   0.00000  Uiso   1.00
C74    C     0.30582   0.14192   0.09452   0.00000  Uiso   1.00
H75    H     0.00133   0.12854   0.07395   0.00000  Uiso   1.00
H76    H     0.29019   0.15623   0.07655   0.00000  Uiso   1.00
C77    C     0.32108   0.17678   0.12209   0.00000  Uiso   1.00
H78    H     0.29343   0.19273   0.14138   0.00000  Uiso   1.00
H79    H     0.01049   0.20017   0.10424   0.00000  Uiso   1.00
H80    H     0.00403   0.16432   0.14075   0.00000  Uiso   1.00
N81    N     0.06180   0.21978   0.40477   0.00000  Uiso   1.00
O82    O     0.04587   0.19191   0.38146   0.00000  Uiso   1.00
O83    O     0.04241   0.25305   0.41878   0.00000  Uiso   1.00
N84    N     0.09757   0.18062   0.08699   0.00000  Uiso   1.00
O85    O     0.08573   0.14548   0.10258   0.00000  Uiso   1.00
O86    O     0.08886   0.21523   0.10913   0.00000  Uiso   1.00
O87    O     0.18359   0.09872   0.42423   0.00000  Uiso   1.00
C88    C     0.14485   0.07211   0.42583   0.00000  Uiso   1.00
H89    H     0.13485   0.07526   0.39912   0.00000  Uiso   1.00
H90    H     0.11729   0.08026   0.45196   0.00000  Uiso   1.00
C91    C     0.15266   0.02690   0.42503   0.00000  Uiso   1.00
H92    H     0.17787   0.01812   0.39738   0.00000  Uiso   1.00
H93    H     0.16421   0.02334   0.45072   0.00000  Uiso   1.00
C94    C     0.11143   0.33089   0.42701   0.00000  Uiso   1.00
H95    H     0.08659   0.00444   0.45549   0.00000  Uiso   1.00
H96    H     0.11872   0.29841   0.42505   0.00000  Uiso   1.00
H97    H     0.09844   0.00068   0.40207   0.00000  Uiso   1.00
Zn98   Zn    0.52577   0.14090   0.28278   0.00000  Uiso   1.00
Zn99   Zn    0.46792   0.12378   0.22258   0.00000  Uiso   1.00
Zn100  Zn    0.54500   0.19664   0.21188   0.00000  Uiso   1.00
Zn101  Zn    0.46131   0.20535   0.28277   0.00000  Uiso   1.00
O102   O     0.50000   0.16667   0.25000   0.00000  Uiso   1.00
O103   O     0.40323   0.18960   0.27820   0.00000  Uiso   1.00
O104   O     0.58773   0.15277   0.26768   0.00000  Uiso   1.00
O105   O     0.47133   0.06903   0.23607   0.00000  Uiso   1.00
O106   O     0.53771   0.25527   0.21806   0.00000  Uiso   1.00
O107   O     0.49027   0.12393   0.16625   0.00000  Uiso   1.00
O108   O     0.46020   0.20646   0.33749   0.00000  Uiso   1.00
O109   O     0.54421   0.17493   0.15877   0.00000  Uiso   1.00
O110   O     0.50532   0.16135   0.33749   0.00000  Uiso   1.00
O111   O     0.51182   0.08101   0.27821   0.00000  Uiso   1.00
O112   O     0.47914   0.26136   0.26767   0.00000  Uiso   1.00
O113   O     0.40785   0.13251   0.23607   0.00000  Uiso   1.00
O114   O     0.60119   0.19179   0.21806   0.00000  Uiso   1.00
C115   C     0.38572   0.15941   0.25940   0.00000  Uiso   1.00
C116   C     0.61446   0.17437   0.24159   0.00000  Uiso   1.00
C117   C     0.49006   0.05629   0.25864   0.00000  Uiso   1.00
C118   C     0.50999   0.27767   0.24143   0.00000  Uiso   1.00
C119   C     0.52233   0.14484   0.14392   0.00000  Uiso   1.00
C120   C     0.47761   0.18678   0.35651   0.00000  Uiso   1.00
C121   C     0.46339   0.19075   0.40042   0.00000  Uiso   1.00
C122   C     0.53324   0.13507   0.10092   0.00000  Uiso   1.00
C123   C     0.41561   0.21360   0.46428   0.00000  Uiso   1.00
C124   C     0.42547   0.20882   0.42290   0.00000  Uiso   1.00
C125   C     0.48740   0.17402   0.42030   0.00000  Uiso   1.00
C126   C     0.47343   0.17273   0.46165   0.00000  Uiso   1.00
C127   C     0.43941   0.19599   0.48366   0.00000  Uiso   1.00
C128   C     0.49293   0.14977   0.48172   0.00000  Uiso   1.00
C129   C     0.48501   0.15812   0.02360   0.00000  Uiso   1.00
C130   C     0.44963   0.18098   0.04509   0.00000  Uiso   1.00
C131   C     0.42772   0.19954   0.02484   0.00000  Uiso   1.00
C132   C     0.51705   0.11616   0.46202   0.00000  Uiso   1.00
C133   C     0.53893   0.09719   0.48180   0.00000  Uiso   1.00
C134   C     0.53759   0.11007   0.02128   0.00000  Uiso   1.00
C135   C     0.51153   0.14162   0.04221   0.00000  Uiso   1.00
C136   C     0.56171   0.09123   0.04001   0.00000  Uiso   1.00
C137   C     0.55926   0.10327   0.08033   0.00000  Uiso   1.00
C138   C     0.51344   0.15604   0.08082   0.00000  Uiso   1.00
H139   H     0.40033   0.21594   0.04160   0.00000  Uiso   1.00
H140   H     0.49914   0.18356   0.09637   0.00000  Uiso   1.00
H141   H     0.55697   0.07182   0.46569   0.00000  Uiso   1.00
H142   H     0.38755   0.22884   0.48147   0.00000  Uiso   1.00
H143   H     0.51750   0.16254   0.40312   0.00000  Uiso   1.00
C144   C     0.66061   0.17941   0.23874   0.00000  Uiso   1.00
C145   C     0.34082   0.15743   0.26120   0.00000  Uiso   1.00
H146   H     0.65200   0.13553   0.28008   0.00000  Uiso   1.00
C147   C     0.51154   0.32156   0.23721   0.00000  Uiso   1.00
H148   H     0.53334   0.00035   0.21053   0.00000  Uiso   1.00
C149   C     0.48566   0.01315   0.26448   0.00000  Uiso   1.00
O150   O     0.58268   0.05709   0.01991   0.00000  Uiso   1.00
C151   C     0.62818   0.06645   0.00979   0.00000  Uiso   1.00
H152   H     0.64229   0.03693   0.49684   0.00000  Uiso   1.00
H153   H     0.63978   0.07670   0.03618   0.00000  Uiso   1.00
C154   C     0.64542   0.09801   0.47882   0.00000  Uiso   1.00
H155   H     0.63386   0.08680   0.45235   0.00000  Uiso   1.00
H156   H     0.63361   0.12862   0.49140   0.00000  Uiso   1.00
C157   C     0.36136   0.10385   0.46588   0.00000  Uiso   1.00
H158   H     0.37396   0.11549   0.49170   0.00000  Uiso   1.00
H159   H     0.37292   0.12677   0.44364   0.00000  Uiso   1.00
H160   H     0.37410   0.07391   0.45215   0.00000  Uiso   1.00
N161   N     0.35658   0.20787   0.21265   0.00000  Uiso   1.00
O162   O     0.34340   0.24133   0.20627   0.00000  Uiso   1.00
O163   O     0.39549   0.19940   0.19325   0.00000  Uiso   1.00
N164   N     0.46177   0.00157   0.30328   0.00000  Uiso   1.00
O165   O     0.42370   0.01377   0.31981   0.00000  Uiso   1.00
O166   O     0.48186   0.32212   0.32541   0.00000  Uiso   1.00
O167   O     0.58086   0.08155   0.09830   0.00000  Uiso   1.00
C168   C     0.60867   0.10743   0.11822   0.00000  Uiso   1.00
H169   H     0.62975   0.08692   0.12443   0.00000  Uiso   1.00
H170   H     0.59024   0.11954   0.14813   0.00000  Uiso   1.00
C171   C     0.63915   0.14192   0.09452   0.00000  Uiso   1.00
H172   H     0.33467   0.12854   0.07395   0.00000  Uiso   1.00
H173   H     0.62352   0.15623   0.07655   0.00000  Uiso   1.00
C174   C     0.65442   0.17678   0.12209   0.00000  Uiso   1.00
H175   H     0.62676   0.19273   0.14138   0.00000  Uiso   1.00
H176   H     0.34383   0.20017   0.10424   0.00000  Uiso   1.00
H177   H     0.33737   0.16432   0.14075   0.00000  Uiso   1.00
N178   N     0.39513   0.21978   0.40477   0.00000  Uiso   1.00
O179   O     0.37921   0.19191   0.38146   0.00000  Uiso   1.00
O180   O     0.37574   0.25305   0.41878   0.00000  Uiso   1.00
N181   N     0.43091   0.18062   0.08699   0.00000  Uiso   1.00
O182   O     0.41906   0.14548   0.10258   0.00000  Uiso   1.00
O183   O     0.42220   0.21523   0.10913   0.00000  Uiso   1.00
O184   O     0.51692   0.09872   0.42423   0.00000  Uiso   1.00
C185   C     0.47818   0.07211   0.42583   0.00000  Uiso   1.00
H186   H     0.46818   0.07526   0.39912   0.00000  Uiso   1.00
H187   H     0.45062   0.08026   0.45196   0.00000  Uiso   1.00
C188   C     0.48599   0.02690   0.42503   0.00000  Uiso   1.00
H189   H     0.51120   0.01812   0.39738   0.00000  Uiso   1.00
H190   H     0.49755   0.02334   0.45072   0.00000  Uiso   1.00
C191   C     0.44476   0.33089   0.42701   0.00000  Uiso   1.00
H192   H     0.41993   0.00444   0.45549   0.00000  Uiso   1.00
H193   H     0.45205   0.29841   0.42505   0.00000  Uiso   1.00
H194   H     0.43177   0.00068   0.40207   0.00000  Uiso   1.00
Zn195  Zn    0.85910   0.14090   0.28278   0.00000  Uiso   1.00
Zn196  Zn    0.80125   0.12378   0.22258   0.00000  Uiso   1.00
Zn197  Zn    0.87833   0.19664   0.21188   0.00000  Uiso   1.00
Zn198  Zn    0.79465   0.20535   0.28277   0.00000  Uiso   1.00
O199   O     0.83333   0.16667   0.25000   0.00000  Uiso   1.00
O200   O     0.73656   0.18960   0.27820   0.00000  Uiso   1.00
O201   O     0.92106   0.15277   0.26768   0.00000  Uiso   1.00
O202   O     0.80467   0.06903   0.23607   0.00000  Uiso   1.00
O203   O     0.87104   0.25527   0.21806   0.00000  Uiso   1.00
O204   O     0.82360   0.12393   0.16625   0.00000  Uiso   1.00
O205   O     0.79354   0.20646   0.33749   0.00000  Uiso   1.00
O206   O     0.87755   0.17493   0.15877   0.00000  Uiso   1.00
O207   O     0.83865   0.16135   0.33749   0.00000  Uiso   1.00
O208   O     0.84515   0.08101   0.27821   0.00000  Uiso   1.00
O209   O     0.81247   0.26136   0.26767   0.00000  Uiso   1.00
O210   O     0.74119   0.13251   0.23607   0.00000  Uiso   1.00
O211   O     0.93452   0.19179   0.21806   0.00000  Uiso   1.00
C212   C     0.71906   0.15941   0.25940   0.00000  Uiso   1.00
C213   C     0.94779   0.17437   0.24159   0.00000  Uiso   1.00
C214   C     0.82340   0.05629   0.25864   0.00000  Uiso   1.00
C215   C     0.84332   0.27767   0.24143   0.00000  Uiso   1.00
C216   C     0.85566   0.14484   0.14392   0.00000  Uiso   1.00
C217   C     0.81095   0.18678   0.35651   0.00000  Uiso   1.00
C218   C     0.79673   0.19075   0.40042   0.00000  Uiso   1.00
C219   C     0.86657   0.13507   0.10092   0.00000  Uiso   1.00
C220   C     0.74895   0.21360   0.46428   0.00000  Uiso   1.00
C221   C     0.75880   0.20882   0.42290   0.00000  Uiso   1.00
C222   C     0.82074   0.17402   0.42030   0.00000  Uiso   1.00
C223   C     0.80676   0.17273   0.46165   0.00000  Uiso   1.00
C224   C     0.77274   0.19599   0.48366   0.00000  Uiso   1.00
C225   C     0.82627   0.14977   0.48172   0.00000  Uiso   1.00
C226   C     0.81835   0.15812   0.02360   0.00000  Uiso   1.00
C227   C     0.78296   0.18098   0.04509   0.00000  Uiso   1.00
C228   C     0.76106   0.19954   0.02484   0.00000  Uiso   1.00
C229   C     0.85039   0.11616   0.46202   0.00000  Uiso   1.00
C230   C     0.87227   0.09719   0.48180   0.00000  Uiso   1.00
C231   C     0.87093   0.11007   0.02128   0.00000  Uiso   1.00
C232   C     0.84486   0.14162   0.04221   0.00000  Uiso   1.00
C233   C     0.89505   0.09123   0.04001   0.00000  Uiso   1.00
C234   C     0.89259   0.10327   0.08033   0.00000  Uiso   1.00
C235   C     0.84677   0.15604   0.08082   0.00000  Uiso   1.00
H236   H     0.73366   0.21594   0.04160   0.00000  Uiso   1.00
H237   H     0.83247   0.18356   0.09637   0.00000  Uiso   1.00
H238   H     0.89030   0.07182   0.46569   0.00000  Uiso   1.00
H239   H     0.72088   0.22884   0.48147   0.00000  Uiso   1.00
H240   H     0.85083   0.16254   0.40312   0.00000  Uiso   1.00
C241   C     0.99394   0.17941   0.23874   0.00000  Uiso   1.00
C242   C     0.67415   0.15743   0.26120   0.00000  Uiso   1.00
H243   H     0.98533   0.13553   0.28008   0.00000  Uiso   1.00
C244   C     0.84487   0.32156   0.23721   0.00000  Uiso   1.00
H245   H     0.86667   0.00035   0.21053   0.00000  Uiso   1.00
C246   C     0.81899   0.01315   0.26448   0.00000  Uiso   1.00
O247   O     0.91601   0.05709   0.01991   0.00000  Uiso   1.00
C248   C     0.96152   0.06645   0.00979   0.00000  Uiso   1.00
H249   H     0.97562   0.03693   0.49684   0.00000  Uiso   1.00
H250   H     0.97311   0.07670   0.03618   0.00000  Uiso   1.00
C251   C     0.97875   0.09801   0.47882   0.00000  Uiso   1.00
H252   H     0.96719   0.08680   0.45235   0.00000  Uiso   1.00
H253   H     0.96694   0.12862   0.49140   0.00000  Uiso   1.00
C254   C     0.69469   0.10385   0.46588   0.00000  Uiso   1.00
H255   H     0.70729   0.11549   0.49170   0.00000  Uiso   1.00
H256   H     0.70625   0.12677   0.44364   0.00000  Uiso   1.00
H257   H     0.70743   0.07391   0.45215   0.00000  Uiso   1.00
N258   N     0.68991   0.20787   0.21265   0.00000  Uiso   1.00
O259   O     0.67673   0.24133   0.20627   0.00000  Uiso   1.00
O260   O     0.72882   0.19940   0.19325   0.00000  Uiso   1.00
N261   N     0.79511   0.00157   0.30328   0.00000  Uiso   1.00
O262   O     0.75703   0.01377   0.31981   0.00000  Uiso   1.00
O263   O     0.81519   0.32212   0.32541   0.00000  Uiso   1.00
O264   O     0.91419   0.08155   0.09830   0.00000  Uiso   1.00
C265   C     0.94201   0.10743   0.11822   0.00000  Uiso   1.00
H266   H     0.96308   0.08692   0.12443   0.00000  Uiso   1.00
H267   H     0.92357   0.11954   0.14813   0.00000  Uiso   1.00
C268   C     0.97249   0.14192   0.09452   0.00000  Uiso   1.00
H269   H     0.66800   0.12854   0.07395   0.00000  Uiso   1.00
H270   H     0.95686   0.15623   0.07655   0.00000  Uiso   1.00
C271   C     0.98775   0.17678   0.12209   0.00000  Uiso   1.00
H272   H     0.96009   0.19273   0.14138   0.00000  Uiso   1.00
H273   H     0.67716   0.20017   0.10424   0.00000  Uiso   1.00
H274   H     0.67070   0.16432   0.14075   0.00000  Uiso   1.00
N275   N     0.72846   0.21978   0.40477   0.00000  Uiso   1.00
O276   O     0.71254   0.19191   0.38146   0.00000  Uiso   1.00
O277   O     0.70907   0.25305   0.41878   0.00000  Uiso   1.00
N278   N     0.76424   0.18062   0.08699   0.00000  Uiso   1.00
O279   O     0.75240   0.14548   0.10258   0.00000  Uiso   1.00
O280   O     0.75553   0.21523   0.10913   0.00000  Uiso   1.00
O281   O     0.85026   0.09872   0.42423   0.00000  Uiso   1.00
C282   C     0.81151   0.07211   0.42583   0.00000  Uiso   1.00
H283   H     0.80151   0.07526   0.39912   0.00000  Uiso   1.00
H284   H     0.78396   0.08026   0.45196   0.00000  Uiso   1.00
C285   C     0.81932   0.02690   0.42503   0.00000  Uiso   1.00
H286   H     0.84454   0.01812   0.39738   0.00000  Uiso   1.00
H287   H     0.83088   0.02334   0.45072   0.00000  Uiso   1.00
C288   C     0.77809   0.33089   0.42701   0.00000  Uiso   1.00
H289   H     0.75326   0.00444   0.45549   0.00000  Uiso   1.00
H290   H     0.78539   0.29841   0.42505   0.00000  Uiso   1.00
H291   H     0.76511   0.00068   0.40207   0.00000  Uiso   1.00
Zn292  Zn    0.19244   0.47423   0.28278   0.00000  Uiso   1.00
Zn293  Zn    0.13459   0.45711   0.22258   0.00000  Uiso   1.00
Zn294  Zn    0.21166   0.52997   0.21188   0.00000  Uiso   1.00
Zn295  Zn    0.12798   0.53868   0.28277   0.00000  Uiso   1.00
O296   O     0.16667   0.50000   0.25000   0.00000  Uiso   1.00
O297   O     0.06990   0.52293   0.27820   0.00000  Uiso   1.00
O298   O     0.25440   0.48610   0.26768   0.00000  Uiso   1.00
O299   O     0.13800   0.40236   0.23607   0.00000  Uiso   1.00
O300   O     0.20437   0.58860   0.21806   0.00000  Uiso   1.00
O301   O     0.15693   0.45726   0.16625   0.00000  Uiso   1.00
O302   O     0.12687   0.53979   0.33749   0.00000  Uiso   1.00
O303   O     0.21088   0.50826   0.15877   0.00000  Uiso   1.00
O304   O     0.17198   0.49468   0.33749   0.00000  Uiso   1.00
O305   O     0.17849   0.41434   0.27821   0.00000  Uiso   1.00
O306   O     0.14581   0.59469   0.26767   0.00000  Uiso   1.00
O307   O     0.07452   0.46584   0.23607   0.00000  Uiso   1.00
O308   O     0.26785   0.52512   0.21806   0.00000  Uiso   1.00
C309   C     0.05239   0.49274   0.25940   0.00000  Uiso   1.00
C310   C     0.28112   0.50771   0.24159   0.00000  Uiso   1.00
C311   C     0.15673   0.38962   0.25864   0.00000  Uiso   1.00
C312   C     0.17666   0.61100   0.24143   0.00000  Uiso   1.00
C313   C     0.18900   0.47817   0.14392   0.00000  Uiso   1.00
C314   C     0.14428   0.52011   0.35651   0.00000  Uiso   1.00
C315   C     0.13006   0.52408   0.40042   0.00000  Uiso   1.00
C316   C     0.19990   0.46841   0.10092   0.00000  Uiso   1.00
C317   C     0.08228   0.54693   0.46428   0.00000  Uiso   1.00
C318   C     0.09213   0.54216   0.42290   0.00000  Uiso   1.00
C319   C     0.15407   0.50736   0.42030   0.00000  Uiso   1.00
C320   C     0.14010   0.50606   0.46165   0.00000  Uiso   1.00
C321   C     0.10607   0.52932   0.48366   0.00000  Uiso   1.00
C322   C     0.15960   0.48310   0.48172   0.00000  Uiso   1.00
C323   C     0.15168   0.49146   0.02360   0.00000  Uiso   1.00
C324   C     0.11630   0.51431   0.04509   0.00000  Uiso   1.00
C325   C     0.09439   0.53287   0.02484   0.00000  Uiso   1.00
C326   C     0.18372   0.44950   0.46202   0.00000  Uiso   1.00
C327   C     0.20560   0.43053   0.48180   0.00000  Uiso   1.00
C328   C     0.20426   0.44341   0.02128   0.00000  Uiso   1.00
C329   C     0.17820   0.47495   0.04221   0.00000  Uiso   1.00
C330   C     0.22838   0.42456   0.04001   0.00000  Uiso   1.00
C331   C     0.22593   0.43660   0.08033   0.00000  Uiso   1.00
C332   C     0.18010   0.48938   0.08082   0.00000  Uiso   1.00
H333   H     0.06700   0.54927   0.04160   0.00000  Uiso   1.00
H334   H     0.16580   0.51690   0.09637   0.00000  Uiso   1.00
H335   H     0.22363   0.40515   0.46569   0.00000  Uiso   1.00
H336   H     0.05421   0.56217   0.48147   0.00000  Uiso   1.00
H337   H     0.18416   0.49587   0.40312   0.00000  Uiso   1.00
C338   C     0.32727   0.51274   0.23874   0.00000  Uiso   1.00
C339   C     0.00749   0.49077   0.26120   0.00000  Uiso   1.00
H340   H     0.31866   0.46886   0.28008   0.00000  Uiso   1.00
C341   C     0.17820   0.65489   0.23721   0.00000  Uiso   1.00
H342   H     0.20001   0.33369   0.21053   0.00000  Uiso   1.00
C343   C     0.15233   0.34648   0.26448   0.00000  Uiso   1.00
O344   O     0.24935   0.39042   0.01991   0.00000  Uiso   1.00
C345   C     0.29485   0.39979   0.00979   0.00000  Uiso   1.00
H346   H     0.30896   0.37027   0.49684   0.00000  Uiso   1.00
H347   H     0.30644   0.41003   0.03618   0.00000  Uiso   1.00
C348   C     0.31208   0.43134   0.47882   0.00000  Uiso   1.00
H349   H     0.30052   0.42013   0.45235   0.00000  Uiso   1.00
H350   H     0.30028   0.46196   0.49140   0.00000  Uiso   1.00
C351   C     0.02802   0.43718   0.46588   0.00000  Uiso   1.00
H352   H     0.04062   0.44882   0.49170   0.00000  Uiso   1.00
H353   H     0.03958   0.46010   0.44364   0.00000  Uiso   1.00
H354   H     0.04076   0.40724   0.45215   0.00000  Uiso   1.00
N355   N     0.02324   0.54121   0.21265   0.00000  Uiso   1.00
O356   O     0.01007   0.57466   0.20627   0.00000  Uiso   1.00
O357   O     0.06216   0.53273   0.19325   0.00000  Uiso   1.00
N358   N     0.12844   0.33491   0.30328   0.00000  Uiso   1.00
O359   O     0.09037   0.34710   0.31981   0.00000  Uiso   1.00
O360   O     0.14852   0.65545   0.32541   0.00000  Uiso   1.00
O361   O     0.24752   0.41489   0.09830   0.00000  Uiso   1.00
C362   C     0.27534   0.44076   0.11822   0.00000  Uiso   1.00
H363   H     0.29642   0.42025   0.12443   0.00000  Uiso   1.00
H364   H     0.25691   0.45288   0.14813   0.00000  Uiso   1.00
C365   C     0.30582   0.47526   0.09452   0.00000  Uiso   1.00
H366   H     0.00133   0.46188   0.07395   0.00000  Uiso   1.00
H367   H     0.29019   0.48957   0.07655   0.00000  Uiso   1.00
C368   C     0.32108   0.51012   0.12209   0.00000  Uiso   1.00
H369   H     0.29343   0.52607   0.14138   0.00000  Uiso   1.00
H370   H     0.01049   0.53350   0.10424   0.00000  Uiso   1.00
H371   H     0.00403   0.49765   0.14075   0.00000  Uiso   1.00
N372   N     0.06180   0.55311   0.40477   0.00000  Uiso   1.00
O373   O     0.04587   0.52524   0.38146   0.00000  Uiso   1.00
O374   O     0.04241   0.58638   0.41878   0.00000  Uiso   1.00
N375   N     0.09757   0.51395   0.08699   0.00000  Uiso   1.00
O376   O     0.08573   0.47882   0.10258   0.00000  Uiso   1.00
O377   O     0.08886   0.54856   0.10913   0.00000  Uiso   1.00
O378   O     0.18359   0.43205   0.42423   0.00000  Uiso   1.00
C379   C     0.14485   0.40545   0.42583   0.00000  Uiso   1.00
H380   H     0.13485   0.40859   0.39912   0.00000  Uiso   1.00
H381   H     0.11729   0.41360   0.45196   0.00000  Uiso   1.00
C382   C     0.15266   0.36023   0.42503   0.00000  Uiso   1.00
H383   H     0.17787   0.35145   0.39738   0.00000  Uiso   1.00
H384   H     0.16421   0.35667   0.45072   0.00000  Uiso   1.00
C385   C     0.11143   0.66422   0.42701   0.00000  Uiso   1.00
H386   H     0.08659   0.33777   0.45549   0.00000  Uiso   1.00
H387   H     0.11872   0.63174   0.42505   0.00000  Uiso   1.00
H388   H     0.09844   0.33402   0.40207   0.00000  Uiso   1.00
Zn389  Zn    0.52577   0.47423   0.28278   0.00000  Uiso   1.00
Zn390  Zn    0.46792   0.45711   0.22258   0.00000  Uiso   1.00
Zn391  Zn    0.54500   0.52997   0.21188   0.00000  Uiso   1.00
Zn392  Zn    0.46131   0.53868   0.28277   0.00000  Uiso   1.00
O393   O     0.50000   0.50000   0.25000   0.00000  Uiso   1.00
O394   O     0.40323   0.52293   0.27820   0.00000  Uiso   1.00
O395   O     0.58773   0.48610   0.26768   0.00000  Uiso   1.00
O396   O     0.47133   0.40236   0.23607   0.00000  Uiso   1.00
O397   O     0.53771   0.58860   0.21806   0.00000  Uiso   1.00
O398   O     0.49027   0.45726   0.16625   0.00000  Uiso   1.00
O399   O     0.46020   0.53979   0.33749   0.00000  Uiso   1.00
O400   O     0.54421   0.50826   0.15877   0.00000  Uiso   1.00
O401   O     0.50532   0.49468   0.33749   0.00000  Uiso   1.00
O402   O     0.51182   0.41434   0.27821   0.00000  Uiso   1.00
O403   O     0.47914   0.59469   0.26767   0.00000  Uiso   1.00
O404   O     0.40785   0.46584   0.23607   0.00000  Uiso   1.00
O405   O     0.60119   0.52512   0.21806   0.00000  Uiso   1.00
C406   C     0.38572   0.49274   0.25940   0.00000  Uiso   1.00
C407   C     0.61446   0.50771   0.24159   0.00000  Uiso   1.00
C408   C     0.49006   0.38962   0.25864   0.00000  Uiso   1.00
C409   C     0.50999   0.61100   0.24143   0.00000  Uiso   1.00
C410   C     0.52233   0.47817   0.14392   0.00000  Uiso   1.00
C411   C     0.47761   0.52011   0.35651   0.00000  Uiso   1.00
C412   C     0.46339   0.52408   0.40042   0.00000  Uiso   1.00
C413   C     0.53324   0.46841   0.10092   0.00000  Uiso   1.00
C414   C     0.41561   0.54693   0.46428   0.00000  Uiso   1.00
C415   C     0.42547   0.54216   0.42290   0.00000  Uiso   1.00
C416   C     0.48740   0.50736   0.42030   0.00000  Uiso   1.00
C417   C     0.47343   0.50606   0.46165   0.00000  Uiso   1.00
C418   C     0.43941   0.52932   0.48366   0.00000  Uiso   1.00
C419   C     0.49293   0.48310   0.48172   0.00000  Uiso   1.00
C420   C     0.48501   0.49146   0.02360   0.00000  Uiso   1.00
C421   C     0.44963   0.51431   0.04509   0.00000  Uiso   1.00
C422   C     0.42772   0.53287   0.02484   0.00000  Uiso   1.00
C423   C     0.51705   0.44950   0.46202   0.00000  Uiso   1.00
C424   C     0.53893   0.43053   0.48180   0.00000  Uiso   1.00
C425   C     0.53759   0.44341   0.02128   0.00000  Uiso   1.00
C426   C     0.51153   0.47495   0.04221   0.00000  Uiso   1.00
C427   C     0.56171   0.42456   0.04001   0.00000  Uiso   1.00
C428   C     0.55926   0.43660   0.08033   0.00000  Uiso   1.00
C429   C     0.51344   0.48938   0.08082   0.00000  Uiso   1.00
H430   H     0.40033   0.54927   0.04160   0.00000  Uiso   1.00
H431   H     0.49914   0.51690   0.09637   0.00000  Uiso   1.00
H432   H     0.55697   0.40515   0.46569   0.00000  Uiso   1.00
H433   H     0.38755   0.56217   0.48147   0.00000  Uiso   1.00
H434   H     0.51750   0.49587   0.40312   0.00000  Uiso   1.00
C435   C     0.66061   0.51274   0.23874   0.00000  Uiso   1.00
C436   C     0.34082   0.49077   0.26120   0.00000  Uiso   1.00
H437   H     0.65200   0.46886   0.28008   0.00000  Uiso   1.00
C438   C     0.51154   0.65489   0.23721   0.00000  Uiso   1.00
H439   H     0.53334   0.33369   0.21053   0.00000  Uiso   1.00
C440   C     0.48566   0.34648   0.26448   0.00000  Uiso   1.00
O441   O     0.58268   0.39042   0.01991   0.00000  Uiso   1.00
C442   C     0.62818   0.39979   0.00979   0.00000  Uiso   1.00
H443   H     0.64229   0.37027   0.49684   0.00000  Uiso   1.00
H444   H     0.63978   0.41003   0.03618   0.00000  Uiso   1.00
C445   C     0.64542   0.43134   0.47882   0.00000  Uiso   1.00
H446   H     0.63386   0.42013   0.45235   0.00000  Uiso   1.00
H447   H     0.63361   0.46196   0.49140   0.00000  Uiso   1.00
C448   C     0.36136   0.43718   0.46588   0.00000  Uiso   1.00
H449   H     0.37396   0.44882   0.49170   0.00000  Uiso   1.00
H450   H     0.37292   0.46010   0.44364   0.00000  Uiso   1.00
H451   H     0.37410   0.40724   0.45215   0.00000  Uiso   1.00
N452   N     0.35658   0.54121   0.21265   0.00000  Uiso   1.00
O453   O     0.34340   0.57466   0.20627   0.00000  Uiso   1.00
O454   O     0.39549   0.53273   0.19325   0.00000  Uiso   1.00
N455   N     0.46177   0.33491   0.30328   0.00000  Uiso   1.00
O456   O     0.42370   0.34710   0.31981   0.00000  Uiso   1.00
O457   O     0.48186   0.65545   0.32541   0.00000  Uiso   1.00
O458   O     0.58086   0.41489   0.09830   0.00000  Uiso   1.00
C459   C     0.60867   0.44076   0.11822   0.00000  Uiso   1.00
H460   H     0.62975   0.42025   0.12443   0.00000  Uiso   1.00
H461   H     0.59024   0.45288   0.14813   0.00000  Uiso   1.00
C462   C     0.63915   0.47526   0.09452   0.00000  Uiso   1.00
H463   H     0.33467   0.46188   0.07395   0.00000  Uiso   1.00
H464   H     0.62352   0.48957   0.07655   0.00000  Uiso   1.00
C465   C     0.65442   0.51012   0.12209   0.00000  Uiso   1.00
H466   H     0.62676   0.52607   0.14138   0.00000  Uiso   1.00
H467   H     0.34383   0.53350   0.10424   0.00000  Uiso   1.00
H468   H     0.33737   0.49765   0.14075   0.00000  Uiso   1.00
N469   N     0.39513   0.55311   0.40477   0.00000  Uiso   1.00
O470   O     0.37921   0.52524   0.38146   0.00000  Uiso   1.00
O471   O     0.37574   0.58638   0.41878   0.00000  Uiso   1.00
N472   N     0.43091   0.51395   0.08699   0.00000  Uiso   1.00
O473   O     0.41906   0.47882   0.10258   0.00000  Uiso   1.00
O474   O     0.42220   0.54856   0.10913   0.00000  Uiso   1.00
O475   O     0.51692   0.43205   0.42423   0.00000  Uiso   1.00
C476   C     0.47818   0.40545   0.42583   0.00000  Uiso   1.00
H477   H     0.46818   0.40859   0.39912   0.00000  Uiso   1.00
H478   H     0.45062   0.41360   0.45196   0.00000  Uiso   1.00
C479   C     0.48599   0.36023   0.42503   0.00000  Uiso   1.00
H480   H     0.51120   0.35145   0.39738   0.00000  Uiso   1.00
H481   H     0.49755   0.35667   0.45072   0.00000  Uiso   1.00
C482   C     0.44476   0.66422   0.42701   0.00000  Uiso   1.00
H483   H     0.41993   0.33777   0.45549   0.00000  Uiso   1.00
H484   H     0.45205   0.63174   0.42505   0.00000  Uiso   1.00
H485   H     0.43177   0.33402   0.40207   0.00000  Uiso   1.00
Zn486  Zn    0.85910   0.47423   0.28278   0.00000  Uiso   1.00
Zn487  Zn    0.80125   0.45711   0.22258   0.00000  Uiso   1.00
Zn488  Zn    0.87833   0.52997   0.21188   0.00000  Uiso   1.00
Zn489  Zn    0.79465   0.53868   0.28277   0.00000  Uiso   1.00
O490   O     0.83333   0.50000   0.25000   0.00000  Uiso   1.00
O491   O     0.73656   0.52293   0.27820   0.00000  Uiso   1.00
O492   O     0.92106   0.48610   0.26768   0.00000  Uiso   1.00
O493   O     0.80467   0.40236   0.23607   0.00000  Uiso   1.00
O494   O     0.87104   0.58860   0.21806   0.00000  Uiso   1.00
O495   O     0.82360   0.45726   0.16625   0.00000  Uiso   1.00
O496   O     0.79354   0.53979   0.33749   0.00000  Uiso   1.00
O497   O     0.87755   0.50826   0.15877   0.00000  Uiso   1.00
O498   O     0.83865   0.49468   0.33749   0.00000  Uiso   1.00
O499   O     0.84515   0.41434   0.27821   0.00000  Uiso   1.00
O500   O     0.81247   0.59469   0.26767   0.00000  Uiso   1.00
O501   O     0.74119   0.46584   0.23607   0.00000  Uiso   1.00
O502   O     0.93452   0.52512   0.21806   0.00000  Uiso   1.00
C503   C     0.71906   0.49274   0.25940   0.00000  Uiso   1.00
C504   C     0.94779   0.50771   0.24159   0.00000  Uiso   1.00
C505   C     0.82340   0.38962   0.25864   0.00000  Uiso   1.00
C506   C     0.84332   0.61100   0.24143   0.00000  Uiso   1.00
C507   C     0.85566   0.47817   0.14392   0.00000  Uiso   1.00
C508   C     0.81095   0.52011   0.35651   0.00000  Uiso   1.00
C509   C     0.79673   0.52408   0.40042   0.00000  Uiso   1.00
C510   C     0.86657   0.46841   0.10092   0.00000  Uiso   1.00
C511   C     0.74895   0.54693   0.46428   0.00000  Uiso   1.00
C512   C     0.75880   0.54216   0.42290   0.00000  Uiso   1.00
C513   C     0.82074   0.50736   0.42030   0.00000  Uiso   1.00
C514   C     0.80676   0.50606   0.46165   0.00000  Uiso   1.00
C515   C     0.77274   0.52932   0.48366   0.00000  Uiso   1.00
C516   C     0.82627   0.48310   0.48172   0.00000  Uiso   1.00
C517   C     0.81835   0.49146   0.02360   0.00000  Uiso   1.00
C518   C     0.78296   0.51431   0.04509   0.00000  Uiso   1.00
C519   C     0.76106   0.53287   0.02484   0.00000  Uiso   1.00
C520   C     0.85039   0.44950   0.46202   0.00000  Uiso   1.00
C521   C     0.87227   0.43053   0.48180   0.00000  Uiso   1.00
C522   C     0.87093   0.44341   0.02128   0.00000  Uiso   1.00
C523   C     0.84486   0.47495   0.04221   0.00000  Uiso   1.00
C524   C     0.89505   0.42456   0.04001   0.00000  Uiso   1.00
C525   C     0.89259   0.43660   0.08033   0.00000  Uiso   1.00
C526   C     0.84677   0.48938   0.08082   0.00000  Uiso   1.00
H527   H     0.73366   0.54927   0.04160   0.00000  Uiso   1.00
H528   H     0.83247   0.51690   0.09637   0.00000  Uiso   1.00
H529   H     0.89030   0.40515   0.46569   0.00000  Uiso   1.00
H530   H     0.72088   0.56217   0.48147   0.00000  Uiso   1.00
H531   H     0.85083   0.49587   0.40312   0.00000  Uiso   1.00
C532   C     0.99394   0.51274   0.23874   0.00000  Uiso   1.00
C533   C     0.67415   0.49077   0.26120   0.00000  Uiso   1.00
H534   H     0.98533   0.46886   0.28008   0.00000  Uiso   1.00
C535   C     0.84487   0.65489   0.23721   0.00000  Uiso   1.00
H536   H     0.86667   0.33369   0.21053   0.00000  Uiso   1.00
C537   C     0.81899   0.34648   0.26448   0.00000  Uiso   1.00
O538   O     0.91601   0.39042   0.01991   0.00000  Uiso   1.00
C539   C     0.96152   0.39979   0.00979   0.00000  Uiso   1.00
H540   H     0.97562   0.37027   0.49684   0.00000  Uiso   1.00
H541   H     0.97311   0.41003   0.03618   0.00000  Uiso   1.00
C542   C     0.97875   0.43134   0.47882   0.00000  Uiso   1.00
H543   H     0.96719   0.42013   0.45235   0.00000  Uiso   1.00
H544   H     0.96694   0.46196   0.49140   0.00000  Uiso   1.00
C545   C     0.69469   0.43718   0.46588   0.00000  Uiso   1.00
H546   H     0.70729   0.44882   0.49170   0.00000  Uiso   1.00
H547   H     0.70625   0.46010   0.44364   0.00000  Uiso   1.00
H548   H     0.70743   0.40724   0.45215   0.00000  Uiso   1.00
N549   N     0.68991   0.54121   0.21265   0.00000  Uiso   1.00
O550   O     0.67673   0.57466   0.20627   0.00000  Uiso   1.00
O551   O     0.72882   0.53273   0.19325   0.00000  Uiso   1.00
N552   N     0.79511   0.33491   0.30328   0.00000  Uiso   1.00
O553   O     0.75703   0.34710   0.31981   0.00000  Uiso   1.00
O554   O     0.81519   0.65545   0.32541   0.00000  Uiso   1.00
O555   O     0.91419   0.41489   0.09830   0.00000  Uiso   1.00
C556   C     0.94201   0.44076   0.11822   0.00000  Uiso   1.00
H557   H     0.96308   0.42025   0.12443   0.00000  Uiso   1.00
H558   H     0.92357   0.45288   0.14813   0.00000  Uiso   1.00
C559   C     0.97249   0.47526   0.09452   0.00000  Uiso   1.00
H560   H     0.66800   0.46188   0.07395   0.00000  Uiso   1.00
H561   H     0.95686   0.48957   0.07655   0.00000  Uiso   1.00
C562   C     0.98775   0.51012   0.12209   0.00000  Uiso   1.00
H563   H     0.96009   0.52607   0.14138   0.00000  Uiso   1.00
H564   H     0.67716   0.53350   0.10424   0.00000  Uiso   1.00
H565   H     0.67070   0.49765   0.14075   0.00000  Uiso   1.00
N566   N     0.72846   0.55311   0.40477   0.00000  Uiso   1.00
O567   O     0.71254   0.52524   0.38146   0.00000  Uiso   1.00
O568   O     0.70907   0.58638   0.41878   0.00000  Uiso   1.00
N569   N     0.76424   0.51395   0.08699   0.00000  Uiso   1.00
O570   O     0.75240   0.47882   0.10258   0.00000  Uiso   1.00
O571   O     0.75553   0.54856   0.10913   0.00000  Uiso   1.00
O572   O     0.85026   0.43205   0.42423   0.00000  Uiso   1.00
C573   C     0.81151   0.40545   0.42583   0.00000  Uiso   1.00
H574   H     0.80151   0.40859   0.39912   0.00000  Uiso   1.00
H575   H     0.78396   0.41360   0.45196   0.00000  Uiso   1.00
C576   C     0.81932   0.36023   0.42503   0.00000  Uiso   1.00
H577   H     0.84454   0.35145   0.39738   0.00000  Uiso   1.00
H578   H     0.83088   0.35667   0.45072   0.00000  Uiso   1.00
C579   C     0.77809   0.66422   0.42701   0.00000  Uiso   1.00
H580   H     0.75326   0.33777   0.45549   0.00000  Uiso   1.00
H581   H     0.78539   0.63174   0.42505   0.00000  Uiso   1.00
H582   H     0.76511   0.33402   0.40207   0.00000  Uiso   1.00
Zn583  Zn    0.19244   0.80756   0.28278   0.00000  Uiso   1.00
Zn584  Zn    0.13459   0.79044   0.22258   0.00000  Uiso   1.00
Zn585  Zn    0.21166   0.86331   0.21188   0.00000  Uiso   1.00
Zn586  Zn    0.12798   0.87202   0.28277   0.00000  Uiso   1.00
O587   O     0.16667   0.83333   0.25000   0.00000  Uiso   1.00
O588   O     0.06990   0.85627   0.27820   0.00000  Uiso   1.00
O589   O     0.25440   0.81944   0.26768   0.00000  Uiso   1.00
O590   O     0.13800   0.73570   0.23607   0.00000  Uiso   1.00
O591   O     0.20437   0.92193   0.21806   0.00000  Uiso   1.00
O592   O     0.15693   0.79060   0.16625   0.00000  Uiso   1.00
O593   O     0.12687   0.87313   0.33749   0.00000  Uiso   1.00
O594   O     0.21088   0.84159   0.15877   0.00000  Uiso   1.00
O595   O     0.17198   0.82802   0.33749   0.00000  Uiso   1.00
O596   O     0.17849   0.74768   0.27821   0.00000  Uiso   1.00
O597   O     0.14581   0.92803   0.26767   0.00000  Uiso   1.00
O598   O     0.07452   0.79917   0.23607   0.00000  Uiso   1.00
O599   O     0.26785   0.85845   0.21806   0.00000  Uiso   1.00
C600   C     0.05239   0.82608   0.25940   0.00000  Uiso   1.00
C601   C     0.28112   0.84104   0.24159   0.00000  Uiso   1.00
C602   C     0.15673   0.72296   0.25864   0.00000  Uiso   1.00
C603   C     0.17666   0.94433   0.24143   0.00000  Uiso   1.00
C604   C     0.18900   0.81151   0.14392   0.00000  Uiso   1.00
C605   C     0.14428   0.85344   0.35651   0.00000  Uiso   1.00
C606   C     0.13006   0.85742   0.40042   0.00000  Uiso   1.00
C607   C     0.19990   0.80174   0.10092   0.00000  Uiso   1.00
C608   C     0.08228   0.88026   0.46428   0.00000  Uiso   1.00
C609   C     0.09213   0.87549   0.42290   0.00000  Uiso   1.00
C610   C     0.15407   0.84069   0.42030   0.00000  Uiso   1.00
C611   C     0.14010   0.83940   0.46165   0.00000  Uiso   1.00
C612   C     0.10607   0.86265   0.48366   0.00000  Uiso   1.00
C613   C     0.15960   0.81643   0.48172   0.00000  Uiso   1.00
C614   C     0.15168   0.82479   0.02360   0.00000  Uiso   1.00
C615   C     0.11630   0.84764   0.04509   0.00000  Uiso   1.00
C616   C     0.09439   0.86620   0.02484   0.00000  Uiso   1.00
C617   C     0.18372   0.78283   0.46202   0.00000  Uiso   1.00
C618   C     0.20560   0.76386   0.48180   0.00000  Uiso   1.00
C619   C     0.20426   0.77674   0.02128   0.00000  Uiso   1.00
C620   C     0.17820   0.80828   0.04221   0.00000  Uiso   1.00
C621   C     0.22838   0.75789   0.04001   0.00000  Uiso   1.00
C622   C     0.22593   0.76994   0.08033   0.00000  Uiso   1.00
C623   C     0.18010   0.82271   0.08082   0.00000  Uiso   1.00
H624   H     0.06700   0.88260   0.04160   0.00000  Uiso   1.00
H625   H     0.16580   0.85023   0.09637   0.00000  Uiso   1.00
H626   H     0.22363   0.73849   0.46569   0.00000  Uiso   1.00
H627   H     0.05421   0.89550   0.48147   0.00000  Uiso   1.00
H628   H     0.18416   0.82921   0.40312   0.00000  Uiso   1.00
C629   C     0.32727   0.84607   0.23874   0.00000  Uiso   1.00
C630   C     0.00749   0.82410   0.26120   0.00000  Uiso   1.00
H631   H     0.31866   0.80220   0.28008   0.00000  Uiso   1.00
C632   C     0.17820   0.98822   0.23721   0.00000  Uiso   1.00
H633   H     0.20001   0.66702   0.21053   0.00000  Uiso   1.00
C634   C     0.15233   0.67982   0.26448   0.00000  Uiso   1.00
O635   O     0.24935   0.72375   0.01991   0.00000  Uiso   1.00
C636   C     0.29485   0.73312   0.00979   0.00000  Uiso   1.00
H637   H     0.30896   0.70360   0.49684   0.00000  Uiso   1.00
H638   H     0.30644   0.74337   0.03618   0.00000  Uiso   1.00
C639   C     0.31208   0.76467   0.47882   0.00000  Uiso   1.00
H640   H     0.30052   0.75346   0.45235   0.00000  Uiso   1.00
H641   H     0.30028   0.79529   0.49140   0.00000  Uiso   1.00
C642   C     0.02802   0.77051   0.46588   0.00000  Uiso   1.00
H643   H     0.04062   0.78216   0.49170   0.00000  Uiso   1.00
H644   H     0.03958   0.79344   0.44364   0.00000  Uiso   1.00
H645   H     0.04076   0.74057   0.45215   0.00000  Uiso   1.00
N646   N     0.02324   0.87454   0.21265   0.00000  Uiso   1.00
O647   O     0.01007   0.90799   0.20627   0.00000  Uiso   1.00
O648   O     0.06216   0.86607   0.19325   0.00000  Uiso   1.00
N649   N     0.12844   0.66824   0.30328   0.00000  Uiso   1.00
O650   O     0.09037   0.68043   0.31981   0.00000  Uiso   1.00
O651   O     0.14852   0.98878   0.32541   0.00000  Uiso   1.00
O652   O     0.24752   0.74822   0.09830   0.00000  Uiso   1.00
C653   C     0.27534   0.77409   0.11822   0.00000  Uiso   1.00
H654   H     0.29642   0.75358   0.12443   0.00000  Uiso   1.00
H655   H     0.25691   0.78621   0.14813   0.00000  Uiso   1.00
C656   C     0.30582   0.80859   0.09452   0.00000  Uiso   1.00
H657   H     0.00133   0.79521   0.07395   0.00000  Uiso   1.00
H658   H     0.29019   0.82290   0.07655   0.00000  Uiso   1.00
C659   C     0.32108   0.84345   0.12209   0.00000  Uiso   1.00
H660   H     0.29343   0.85940   0.14138   0.00000  Uiso   1.00
H661   H     0.01049   0.86683   0.10424   0.00000  Uiso   1.00
H662   H     0.00403   0.83098   0.14075   0.00000  Uiso   1.00
N663   N     0.06180   0.88645   0.40477   0.00000  Uiso   1.00
O664   O     0.04587   0.85857   0.38146   0.00000  Uiso   1.00
O665   O     0.04241   0.91972   0.41878   0.00000  Uiso   1.00
N666   N     0.09757   0.84728   0.08699   0.00000  Uiso   1.00
O667   O     0.08573   0.81215   0.10258   0.00000  Uiso   1.00
O668   O     0.08886   0.88189   0.10913   0.00000  Uiso   1.00
O669   O     0.18359   0.76539   0.42423   0.00000  Uiso   1.00
C670   C     0.14485   0.73878   0.42583   0.00000  Uiso   1.00
H671   H     0.13485   0.74193   0.39912   0.00000  Uiso   1.00
H672   H     0.11729   0.74693   0.45196   0.00000  Uiso   1.00
C673   C     0.15266   0.69357   0.42503   0.00000  Uiso   1.00
H674   H     0.17787   0.68479   0.39738   0.00000  Uiso   1.00
H675   H     0.16421   0.69000   0.45072   0.00000  Uiso   1.00
C676   C     0.11143   0.99755   0.42701   0.00000  Uiso   1.00
H677   H     0.08659   0.67110   0.45549   0.00000  Uiso   1.00
H678   H     0.11872   0.96508   0.42505   0.00000  Uiso   1.00
H679   H     0.09844   0.66735   0.40207   0.00000  Uiso   1.00
Zn680  Zn    0.52577   0.80756   0.28278   0.00000  Uiso   1.00
Zn681  Zn    0.46792   0.79044   0.22258   0.00000  Uiso   1.00
Zn682  Zn    0.54500   0.86331   0.21188   0.00000  Uiso   1.00
Zn683  Zn    0.46131   0.87202   0.28277   0.00000  Uiso   1.00
O684   O     0.50000   0.83333   0.25000   0.00000  Uiso   1.00
O685   O     0.40323   0.85627   0.27820   0.00000  Uiso   1.00
O686   O     0.58773   0.81944   0.26768   0.00000  Uiso   1.00
O687   O     0.47133   0.73570   0.23607   0.00000  Uiso   1.00
O688   O     0.53771   0.92193   0.21806   0.00000  Uiso   1.00
O689   O     0.49027   0.79060   0.16625   0.00000  Uiso   1.00
O690   O     0.46020   0.87313   0.33749   0.00000  Uiso   1.00
O691   O     0.54421   0.84159   0.15877   0.00000  Uiso   1.00
O692   O     0.50532   0.82802   0.33749   0.00000  Uiso   1.00
O693   O     0.51182   0.74768   0.27821   0.00000  Uiso   1.00
O694   O     0.47914   0.92803   0.26767   0.00000  Uiso   1.00
O695   O     0.40785   0.79917   0.23607   0.00000  Uiso   1.00
O696   O     0.60119   0.85845   0.21806   0.00000  Uiso   1.00
C697   C     0.38572   0.82608   0.25940   0.00000  Uiso   1.00
C698   C     0.61446   0.84104   0.24159   0.00000  Uiso   1.00
C699   C     0.49006   0.72296   0.25864   0.00000  Uiso   1.00
C700   C     0.50999   0.94433   0.24143   0.00000  Uiso   1.00
C701   C     0.52233   0.81151   0.14392   0.00000  Uiso   1.00
C702   C     0.47761   0.85344   0.35651   0.00000  Uiso   1.00
C703   C     0.46339   0.85742   0.40042   0.00000  Uiso   1.00
C704   C     0.53324   0.80174   0.10092   0.00000  Uiso   1.00
C705   C     0.41561   0.88026   0.46428   0.00000  Uiso   1.00
C706   C     0.42547   0.87549   0.42290   0.00000  Uiso   1.00
C707   C     0.48740   0.84069   0.42030   0.00000  Uiso   1.00
C708   C     0.47343   0.83940   0.46165   0.00000  Uiso   1.00
C709   C     0.43941   0.86265   0.48366   0.00000  Uiso   1.00
C710   C     0.49293   0.81643   0.48172   0.00000  Uiso   1.00
C711   C     0.48501   0.82479   0.02360   0.00000  Uiso   1.00
C712   C     0.44963   0.84764   0.04509   0.00000  Uiso   1.00
C713   C     0.42772   0.86620   0.02484   0.00000  Uiso   1.00
C714   C     0.51705   0.78283   0.46202   0.00000  Uiso   1.00
C715   C     0.53893   0.76386   0.48180   0.00000  Uiso   1.00
C716   C     0.53759   0.77674   0.02128   0.00000  Uiso   1.00
C717   C     0.51153   0.80828   0.04221   0.00000  Uiso   1.00
C718   C     0.56171   0.75789   0.04001   0.00000  Uiso   1.00
C719   C     0.55926   0.76994   0.08033   0.00000  Uiso   1.00
C720   C     0.51344   0.82271   0.08082   0.00000  Uiso   1.00
H721   H     0.40033   0.88260   0.04160   0.00000  Uiso   1.00
H722   H     0.49914   0.85023   0.09637   0.00000  Uiso   1.00
H723   H     0.55697   0.73849   0.46569   0.00000  Uiso   1.00
H724   H     0.38755   0.89550   0.48147   0.00000  Uiso   1.00
H725   H     0.51750   0.82921   0.40312   0.00000  Uiso   1.00
C726   C     0.66061   0.84607   0.23874   0.00000  Uiso   1.00
C727   C     0.34082   0.82410   0.26120   0.00000  Uiso   1.00
H728   H     0.65200   0.80220   0.28008   0.00000  Uiso   1.00
C729   C     0.51154   0.98822   0.23721   0.00000  Uiso   1.00
H730   H     0.53334   0.66702   0.21053   0.00000  Uiso   1.00
C731   C     0.48566   0.67982   0.26448   0.00000  Uiso   1.00
O732   O     0.58268   0.72375   0.01991   0.00000  Uiso   1.00
C733   C     0.62818   0.73312   0.00979   0.00000  Uiso   1.00
H734   H     0.64229   0.70360   0.49684   0.00000  Uiso   1.00
H735   H     0.63978   0.74337   0.03618   0.00000  Uiso   1.00
C736   C     0.64542   0.76467   0.47882   0.00000  Uiso   1.00
H737   H     0.63386   0.75346   0.45235   0.00000  Uiso   1.00
H738   H     0.63361   0.79529   0.49140   0.00000  Uiso   1.00
C739   C     0.36136   0.77051   0.46588   0.00000  Uiso   1.00
H740   H     0.37396   0.78216   0.49170   0.00000  Uiso   1.00
H741   H     0.37292   0.79344   0.44364   0.00000  Uiso   1.00
H742   H     0.37410   0.74057   0.45215   0.00000  Uiso   1.00
N743   N     0.35658   0.87454   0.21265   0.00000  Uiso   1.00
O744   O     0.34340   0.90799   0.20627   0.00000  Uiso   1.00
O745   O     0.39549   0.86607   0.19325   0.00000  Uiso   1.00
N746   N     0.46177   0.66824   0.30328   0.00000  Uiso   1.00
O747   O     0.42370   0.68043   0.31981   0.00000  Uiso   1.00
O748   O     0.48186   0.98878   0.32541   0.00000  Uiso   1.00
O749   O     0.58086   0.74822   0.09830   0.00000  Uiso   1.00
C750   C     0.60867   0.77409   0.11822   0.00000  Uiso   1.00
H751   H     0.62975   0.75358   0.12443   0.00000  Uiso   1.00
H752   H     0.59024   0.78621   0.14813   0.00000  Uiso   1.00
C753   C     0.63915   0.80859   0.09452   0.00000  Uiso   1.00
H754   H     0.33467   0.79521   0.07395   0.00000  Uiso   1.00
H755   H     0.62352   0.82290   0.07655   0.00000  Uiso   1.00
C756   C     0.65442   0.84345   0.12209   0.00000  Uiso   1.00
H757   H     0.62676   0.85940   0.14138   0.00000  Uiso   1.00
H758   H     0.34383   0.86683   0.10424   0.00000  Uiso   1.00
H759   H     0.33737   0.83098   0.14075   0.00000  Uiso   1.00
N760   N     0.39513   0.88645   0.40477   0.00000  Uiso   1.00
O761   O     0.37921   0.85857   0.38146   0.00000  Uiso   1.00
O762   O     0.37574   0.91972   0.41878   0.00000  Uiso   1.00
N763   N     0.43091   0.84728   0.08699   0.00000  Uiso   1.00
O764   O     0.41906   0.81215   0.10258   0.00000  Uiso   1.00
O765   O     0.42220   0.88189   0.10913   0.00000  Uiso   1.00
O766   O     0.51692   0.76539   0.42423   0.00000  Uiso   1.00
C767   C     0.47818   0.73878   0.42583   0.00000  Uiso   1.00
H768   H     0.46818   0.74193   0.39912   0.00000  Uiso   1.00
H769   H     0.45062   0.74693   0.45196   0.00000  Uiso   1.00
C770   C     0.48599   0.69357   0.42503   0.00000  Uiso   1.00
H771   H     0.51120   0.68479   0.39738   0.00000  Uiso   1.00
H772   H     0.49755   0.69000   0.45072   0.00000  Uiso   1.00
C773   C     0.44476   0.99755   0.42701   0.00000  Uiso   1.00
H774   H     0.41993   0.67110   0.45549   0.00000  Uiso   1.00
H775   H     0.45205   0.96508   0.42505   0.00000  Uiso   1.00
H776   H     0.43177   0.66735   0.40207   0.00000  Uiso   1.00
Zn777  Zn    0.85910   0.80756   0.28278   0.00000  Uiso   1.00
Zn778  Zn    0.80125   0.79044   0.22258   0.00000  Uiso   1.00
Zn779  Zn    0.87833   0.86331   0.21188   0.00000  Uiso   1.00
Zn780  Zn    0.79465   0.87202   0.28277   0.00000  Uiso   1.00
O781   O     0.83333   0.83333   0.25000   0.00000  Uiso   1.00
O782   O     0.73656   0.85627   0.27820   0.00000  Uiso   1.00
O783   O     0.92106   0.81944   0.26768   0.00000  Uiso   1.00
O784   O     0.80467   0.73570   0.23607   0.00000  Uiso   1.00
O785   O     0.87104   0.92193   0.21806   0.00000  Uiso   1.00
O786   O     0.82360   0.79060   0.16625   0.00000  Uiso   1.00
O787   O     0.79354   0.87313   0.33749   0.00000  Uiso   1.00
O788   O     0.87755   0.84159   0.15877   0.00000  Uiso   1.00
O789   O     0.83865   0.82802   0.33749   0.00000  Uiso   1.00
O790   O     0.84515   0.74768   0.27821   0.00000  Uiso   1.00
O791   O     0.81247   0.92803   0.26767   0.00000  Uiso   1.00
O792   O     0.74119   0.79917   0.23607   0.00000  Uiso   1.00
O793   O     0.93452   0.85845   0.21806   0.00000  Uiso   1.00
C794   C     0.71906   0.82608   0.25940   0.00000  Uiso   1.00
C795   C     0.94779   0.84104   0.24159   0.00000  Uiso   1.00
C796   C     0.82340   0.72296   0.25864   0.00000  Uiso   1.00
C797   C     0.84332   0.94433   0.24143   0.00000  Uiso   1.00
C798   C     0.85566   0.81151   0.14392   0.00000  Uiso   1.00
C799   C     0.81095   0.85344   0.35651   0.00000  Uiso   1.00
C800   C     0.79673   0.85742   0.40042   0.00000  Uiso   1.00
C801   C     0.86657   0.80174   0.10092   0.00000  Uiso   1.00
C802   C     0.74895   0.88026   0.46428   0.00000  Uiso   1.00
C803   C     0.75880   0.87549   0.42290   0.00000  Uiso   1.00
C804   C     0.82074   0.84069   0.42030   0.00000  Uiso   1.00
C805   C     0.80676   0.83940   0.46165   0.00000  Uiso   1.00
C806   C     0.77274   0.86265   0.48366   0.00000  Uiso   1.00
C807   C     0.82627   0.81643   0.48172   0.00000  Uiso   1.00
C808   C     0.81835   0.82479   0.02360   0.00000  Uiso   1.00
C809   C     0.78296   0.84764   0.04509   0.00000  Uiso   1.00
C810   C     0.76106   0.86620   0.02484   0.00000  Uiso   1.00
C811   C     0.85039   0.78283   0.46202   0.00000  Uiso   1.00
C812   C     0.87227   0.76386   0.48180   0.00000  Uiso   1.00
C813   C     0.87093   0.77674   0.02128   0.00000  Uiso   1.00
C814   C     0.84486   0.80828   0.04221   0.00000  Uiso   1.00
C815   C     0.89505   0.75789   0.04001   0.00000  Uiso   1.00
C816   C     0.89259   0.76994   0.08033   0.00000  Uiso   1.00
C817   C     0.84677   0.82271   0.08082   0.00000  Uiso   1.00
H818   H     0.73366   0.88260   0.04160   0.00000  Uiso   1.00
H819   H     0.83247   0.85023   0.09637   0.00000  Uiso   1.00
H820   H     0.89030   0.73849   0.46569   0.00000  Uiso   1.00
H821   H     0.72088   0.89550   0.48147   0.00000  Uiso   1.00
H822   H     0.85083   0.82921   0.40312   0.00000  Uiso   1.00
C823   C     0.99394   0.84607   0.23874   0.00000  Uiso   1.00
C824   C     0.67415   0.82410   0.26120   0.00000  Uiso   1.00
H825   H     0.98533   0.80220   0.28008   0.00000  Uiso   1.00
C826   C     0.84487   0.98822   0.23721   0.00000  Uiso   1.00
H827   H     0.86667   0.66702   0.21053   0.00000  Uiso   1.00
C828   C     0.81899   0.67982   0.26448   0.00000  Uiso   1.00
O829   O     0.91601   0.72375   0.01991   0.00000  Uiso   1.00
C830   C     0.96152   0.73312   0.00979   0.00000  Uiso   1.00
H831   H     0.97562   0.70360   0.49684   0.00000  Uiso   1.00
H832   H     0.97311   0.74337   0.03618   0.00000  Uiso   1.00
C833   C     0.97875   0.76467   0.47882   0.00000  Uiso   1.00
H834   H     0.96719   0.75346   0.45235   0.00000  Uiso   1.00
H835   H     0.96694   0.79529   0.49140   0.00000  Uiso   1.00
C836   C     0.69469   0.77051   0.46588   0.00000  Uiso   1.00
H837   H     0.70729   0.78216   0.49170   0.00000  Uiso   1.00
H838   H     0.70625   0.79344   0.44364   0.00000  Uiso   1.00
H839   H     0.70743   0.74057   0.45215   0.00000  Uiso   1.00
N840   N     0.68991   0.87454   0.21265   0.00000  Uiso   1.00
O841   O     0.67673   0.90799   0.20627   0.00000  Uiso   1.00
O842   O     0.72882   0.86607   0.19325   0.00000  Uiso   1.00
N843   N     0.79511   0.66824   0.30328   0.00000  Uiso   1.00
O844   O     0.75703   0.68043   0.31981   0.00000  Uiso   1.00
O845   O     0.81519   0.98878   0.32541   0.00000  Uiso   1.00
O846   O     0.91419   0.74822   0.09830   0.00000  Uiso   1.00
C847   C     0.94201   0.77409   0.11822   0.00000  Uiso   1.00
H848   H     0.96308   0.75358   0.12443   0.00000  Uiso   1.00
H849   H     0.92357   0.78621   0.14813   0.00000  Uiso   1.00
C850   C     0.97249   0.80859   0.09452   0.00000  Uiso   1.00
H851   H     0.66800   0.79521   0.07395   0.00000  Uiso   1.00
H852   H     0.95686   0.82290   0.07655   0.00000  Uiso   1.00
C853   C     0.98775   0.84345   0.12209   0.00000  Uiso   1.00
H854   H     0.96009   0.85940   0.14138   0.00000  Uiso   1.00
H855   H     0.67716   0.86683   0.10424   0.00000  Uiso   1.00
H856   H     0.67070   0.83098   0.14075   0.00000  Uiso   1.00
N857   N     0.72846   0.88645   0.40477   0.00000  Uiso   1.00
O858   O     0.71254   0.85857   0.38146   0.00000  Uiso   1.00
O859   O     0.70907   0.91972   0.41878   0.00000  Uiso   1.00
N860   N     0.76424   0.84728   0.08699   0.00000  Uiso   1.00
O861   O     0.75240   0.81215   0.10258   0.00000  Uiso   1.00
O862   O     0.75553   0.88189   0.10913   0.00000  Uiso   1.00
O863   O     0.85026   0.76539   0.42423   0.00000  Uiso   1.00
C864   C     0.81151   0.73878   0.42583   0.00000  Uiso   1.00
H865   H     0.80151   0.74193   0.39912   0.00000  Uiso   1.00
H866   H     0.78396   0.74693   0.45196   0.00000  Uiso   1.00
C867   C     0.81932   0.69357   0.42503   0.00000  Uiso   1.00
H868   H     0.84454   0.68479   0.39738   0.00000  Uiso   1.00
H869   H     0.83088   0.69000   0.45072   0.00000  Uiso   1.00
C870   C     0.77809   0.99755   0.42701   0.00000  Uiso   1.00
H871   H     0.75326   0.67110   0.45549   0.00000  Uiso   1.00
H872   H     0.78539   0.96508   0.42505   0.00000  Uiso   1.00
H873   H     0.76511   0.66735   0.40207   0.00000  Uiso   1.00
Zn874  Zn    0.19244   0.14090   0.78278   0.00000  Uiso   1.00
Zn875  Zn    0.13459   0.12378   0.72258   0.00000  Uiso   1.00
Zn876  Zn    0.21166   0.19664   0.71188   0.00000  Uiso   1.00
Zn877  Zn    0.12798   0.20535   0.78277   0.00000  Uiso   1.00
O878   O     0.16667   0.16667   0.75000   0.00000  Uiso   1.00
O879   O     0.06990   0.18960   0.77820   0.00000  Uiso   1.00
O880   O     0.25440   0.15277   0.76768   0.00000  Uiso   1.00
O881   O     0.13800   0.06903   0.73607   0.00000  Uiso   1.00
O882   O     0.20437   0.25527   0.71806   0.00000  Uiso   1.00
O883   O     0.15693   0.12393   0.66625   0.00000  Uiso   1.00
O884   O     0.12687   0.20646   0.83749   0.00000  Uiso   1.00
O885   O     0.21088   0.17493   0.65877   0.00000  Uiso   1.00
O886   O     0.17198   0.16135   0.83749   0.00000  Uiso   1.00
O887   O     0.17849   0.08101   0.77821   0.00000  Uiso   1.00
O888   O     0.14581   0.26136   0.76767   0.00000  Uiso   1.00
O889   O     0.07452   0.13251   0.73607   0.00000  Uiso   1.00
O890   O     0.26785   0.19179   0.71806   0.00000  Uiso   1.00
C891   C     0.05239   0.15941   0.75940   0.00000  Uiso   1.00
C892   C     0.28112   0.17437   0.74159   0.00000  Uiso   1.00
C893   C     0.15673   0.05629   0.75864   0.00000  Uiso   1.00
C894   C     0.17666   0.27767   0.74143   0.00000  Uiso   1.00
C895   C     0.18900   0.14484   0.64392   0.00000  Uiso   1.00
C896   C     0.14428   0.18678   0.85651   0.00000  Uiso   1.00
C897   C     0.13006   0.19075   0.90042   0.00000  Uiso   1.00
C898   C     0.19990   0.13507   0.60092   0.00000  Uiso   1.00
C899   C     0.08228   0.21360   0.96428   0.00000  Uiso   1.00
C900   C     0.09213   0.20882   0.92290   0.00000  Uiso   1.00
C901   C     0.15407   0.17402   0.92030   0.00000  Uiso   1.00
C902   C     0.14010   0.17273   0.96165   0.00000  Uiso   1.00
C903   C     0.10607   0.19599   0.98366   0.00000  Uiso   1.00
C904   C     0.15960   0.14977   0.98172   0.00000  Uiso   1.00
C905   C     0.15168   0.15812   0.52360   0.00000  Uiso   1.00
C906   C     0.11630   0.18098   0.54509   0.00000  Uiso   1.00
C907   C     0.09439   0.19954   0.52484   0.00000  Uiso   1.00
C908   C     0.18372   0.11616   0.96202   0.00000  Uiso   1.00
C909   C     0.20560   0.09719   0.98180   0.00000  Uiso   1.00
C910   C     0.20426   0.11007   0.52128   0.00000  Uiso   1.00
C911   C     0.17820   0.14162   0.54221   0.00000  Uiso   1.00
C912   C     0.22838   0.09123   0.54001   0.00000  Uiso   1.00
C913   C     0.22593   0.10327   0.58033   0.00000  Uiso   1.00
C914   C     0.18010   0.15604   0.58082   0.00000  Uiso   1.00
H915   H     0.06700   0.21594   0.54160   0.00000  Uiso   1.00
H916   H     0.16580   0.18356   0.59637   0.00000  Uiso   1.00
H917   H     0.22363   0.07182   0.96569   0.00000  Uiso   1.00
H918   H     0.05421   0.22884   0.98147   0.00000  Uiso   1.00
H919   H     0.18416   0.16254   0.90312   0.00000  Uiso   1.00
C920   C     0.32727   0.17941   0.73874   0.00000  Uiso   1.00
C921   C     0.00749   0.15743   0.76120   0.00000  Uiso   1.00
H922   H     0.31866   0.13553   0.78008   0.00000  Uiso   1.00
C923   C     0.17820   0.32156   0.73721   0.00000  Uiso   1.00
H924   H     0.20001   0.00035   0.71053   0.00000  Uiso   1.00
C925   C     0.15233   0.01315   0.76448   0.00000  Uiso   1.00
O926   O     0.24935   0.05709   0.51991   0.00000  Uiso   1.00
C927   C     0.29485   0.06645   0.50979   0.00000  Uiso   1.00
H928   H     0.30896   0.03693   0.99684   0.00000  Uiso   1.00
H929   H     0.30644   0.07670   0.53618   0.00000  Uiso   1.00
C930   C     0.31208   0.09801   0.97882   0.00000  Uiso   1.00
H931   H     0.30052   0.08680   0.95235   0.00000  Uiso   1.00
H932   H     0.30028   0.12862   0.99140   0.00000  Uiso   1.00
C933   C     0.02802   0.10385   0.96588   0.00000  Uiso   1.00
H934   H     0.04062   0.11549   0.99170   0.00000  Uiso   1.00
H935   H     0.03958   0.12677   0.94364   0.00000  Uiso   1.00
H936   H     0.04076   0.07391   0.95215   0.00000  Uiso   1.00
N937   N     0.02324   0.20787   0.71265   0.00000  Uiso   1.00
O938   O     0.01007   0.24133   0.70627   0.00000  Uiso   1.00
O939   O     0.06216   0.19940   0.69325   0.00000  Uiso   1.00
N940   N     0.12844   0.00157   0.80328   0.00000  Uiso   1.00
O941   O     0.09037   0.01377   0.81981   0.00000  Uiso   1.00
O942   O     0.14852   0.32212   0.82541   0.00000  Uiso   1.00
O943   O     0.24752   0.08155   0.59830   0.00000  Uiso   1.00
C944   C     0.27534   0.10743   0.61822   0.00000  Uiso   1.00
H945   H     0.29642   0.08692   0.62443   0.00000  Uiso   1.00
H946   H     0.25691   0.11954   0.64813   0.00000  Uiso   1.00
C947   C     0.30582   0.14192   0.59452   0.00000  Uiso   1.00
H948   H     0.00133   0.12854   0.57395   0.00000  Uiso   1.00
H949   H     0.29019   0.15623   0.57655   0.00000  Uiso   1.00
C950   C     0.32108   0.17678   0.62209   0.00000  Uiso   1.00
H951   H     0.29343   0.19273   0.64138   0.00000  Uiso   1.00
H952   H     0.01049   0.20017   0.60424   0.00000  Uiso   1.00
H953   H     0.00403   0.16432   0.64075   0.00000  Uiso   1.00
N954   N     0.06180   0.21978   0.90477   0.00000  Uiso   1.00
O955   O     0.04587   0.19191   0.88146   0.00000  Uiso   1.00
O956   O     0.04241   0.25305   0.91878   0.00000  Uiso   1.00
N957   N     0.09757   0.18062   0.58699   0.00000  Uiso   1.00
O958   O     0.08573   0.14548   0.60258   0.00000  Uiso   1.00
O959   O     0.08886   0.21523   0.60913   0.00000  Uiso   1.00
O960   O     0.18359   0.09872   0.92423   0.00000  Uiso   1.00
C961   C     0.14485   0.07211   0.92583   0.00000  Uiso   1.00
H962   H     0.13485   0.07526   0.89912   0.00000  Uiso   1.00
H963   H     0.11729   0.08026   0.95196   0.00000  Uiso   1.00
C964   C     0.15266   0.02690   0.92503   0.00000  Uiso   1.00
H965   H     0.17787   0.01812   0.89738   0.00000  Uiso   1.00
H966   H     0.16421   0.02334   0.95072   0.00000  Uiso   1.00
C967   C     0.11143   0.33089   0.92701   0.00000  Uiso   1.00
H968   H     0.08659   0.00444   0.95549   0.00000  Uiso   1.00
H969   H     0.11872   0.29841   0.92505   0.00000  Uiso   1.00
H970   H     0.09844   0.00068   0.90207   0.00000  Uiso   1.00
Zn971  Zn    0.52577   0.14090   0.78278   0.00000  Uiso   1.00
Zn972  Zn    0.46792   0.12378   0.72258   0.00000  Uiso   1.00
Zn973  Zn    0.54500   0.19664   0.71188   0.00000  Uiso   1.00
Zn974  Zn    0.46131   0.20535   0.78277   0.00000  Uiso   1.00
O975   O     0.50000   0.16667   0.75000   0.00000  Uiso   1.00
O976   O     0.40323   0.18960   0.77820   0.00000  Uiso   1.00
O977   O     0.58773   0.15277   0.76768   0.00000  Uiso   1.00
O978   O     0.47133   0.06903   0.73607   0.00000  Uiso   1.00
O979   O     0.53771   0.25527   0.71806   0.00000  Uiso   1.00
O980   O     0.49027   0.12393   0.66625   0.00000  Uiso   1.00
O981   O     0.46020   0.20646   0.83749   0.00000  Uiso   1.00
O982   O     0.54421   0.17493   0.65877   0.00000  Uiso   1.00
O983   O     0.50532   0.16135   0.83749   0.00000  Uiso   1.00
O984   O     0.51182   0.08101   0.77821   0.00000  Uiso   1.00
O985   O     0.47914   0.26136   0.76767   0.00000  Uiso   1.00
O986   O     0.40785   0.13251   0.73607   0.00000  Uiso   1.00
O987   O     0.60119   0.19179   0.71806   0.00000  Uiso   1.00
C988   C     0.38572   0.15941   0.75940   0.00000  Uiso   1.00
C989   C     0.61446   0.17437   0.74159   0.00000  Uiso   1.00
C990   C     0.49006   0.05629   0.75864   0.00000  Uiso   1.00
C991   C     0.50999   0.27767   0.74143   0.00000  Uiso   1.00
C992   C     0.52233   0.14484   0.64392   0.00000  Uiso   1.00
C993   C     0.47761   0.18678   0.85651   0.00000  Uiso   1.00
C994   C     0.46339   0.19075   0.90042   0.00000  Uiso   1.00
C995   C     0.53324   0.13507   0.60092   0.00000  Uiso   1.00
C996   C     0.41561   0.21360   0.96428   0.00000  Uiso   1.00
C997   C     0.42547   0.20882   0.92290   0.00000  Uiso   1.00
C998   C     0.48740   0.17402   0.92030   0.00000  Uiso   1.00
C999   C     0.47343   0.17273   0.96165   0.00000  Uiso   1.00
C1000  C     0.43941   0.19599   0.98366   0.00000  Uiso   1.00
C1001  C     0.49293   0.14977   0.98172   0.00000  Uiso   1.00
C1002  C     0.48501   0.15812   0.52360   0.00000  Uiso   1.00
C1003  C     0.44963   0.18098   0.54509   0.00000  Uiso   1.00
C1004  C     0.42772   0.19954   0.52484   0.00000  Uiso   1.00
C1005  C     0.51705   0.11616   0.96202   0.00000  Uiso   1.00
C1006  C     0.53893   0.09719   0.98180   0.00000  Uiso   1.00
C1007  C     0.53759   0.11007   0.52128   0.00000  Uiso   1.00
C1008  C     0.51153   0.14162   0.54221   0.00000  Uiso   1.00
C1009  C     0.56171   0.09123   0.54001   0.00000  Uiso   1.00
C1010  C     0.55926   0.10327   0.58033   0.00000  Uiso   1.00
C1011  C     0.51344   0.15604   0.58082   0.00000  Uiso   1.00
H1012  H     0.40033   0.21594   0.54160   0.00000  Uiso   1.00
H1013  H     0.49914   0.18356   0.59637   0.00000  Uiso   1.00
H1014  H     0.55697   0.07182   0.96569   0.00000  Uiso   1.00
H1015  H     0.38755   0.22884   0.98147   0.00000  Uiso   1.00
H1016  H     0.51750   0.16254   0.90312   0.00000  Uiso   1.00
C1017  C     0.66061   0.17941   0.73874   0.00000  Uiso   1.00
C1018  C     0.34082   0.15743   0.76120   0.00000  Uiso   1.00
H1019  H     0.65200   0.13553   0.78008   0.00000  Uiso   1.00
C1020  C     0.51154   0.32156   0.73721   0.00000  Uiso   1.00
H1021  H     0.53334   0.00035   0.71053   0.00000  Uiso   1.00
C1022  C     0.48566   0.01315   0.76448   0.00000  Uiso   1.00
O1023  O     0.58268   0.05709   0.51991   0.00000  Uiso   1.00
C1024  C     0.62818   0.06645   0.50979   0.00000  Uiso   1.00
H1025  H     0.64229   0.03693   0.99684   0.00000  Uiso   1.00
H1026  H     0.63978   0.07670   0.53618   0.00000  Uiso   1.00
C1027  C     0.64542   0.09801   0.97882   0.00000  Uiso   1.00
H1028  H     0.63386   0.08680   0.95235   0.00000  Uiso   1.00
H1029  H     0.63361   0.12862   0.99140   0.00000  Uiso   1.00
C1030  C     0.36136   0.10385   0.96588   0.00000  Uiso   1.00
H1031  H     0.37396   0.11549   0.99170   0.00000  Uiso   1.00
H1032  H     0.37292   0.12677   0.94364   0.00000  Uiso   1.00
H1033  H     0.37410   0.07391   0.95215   0.00000  Uiso   1.00
N1034  N     0.35658   0.20787   0.71265   0.00000  Uiso   1.00
O1035  O     0.34340   0.24133   0.70627   0.00000  Uiso   1.00
O1036  O     0.39549   0.19940   0.69325   0.00000  Uiso   1.00
N1037  N     0.46177   0.00157   0.80328   0.00000  Uiso   1.00
O1038  O     0.42370   0.01377   0.81981   0.00000  Uiso   1.00
O1039  O     0.48186   0.32212   0.82541   0.00000  Uiso   1.00
O1040  O     0.58086   0.08155   0.59830   0.00000  Uiso   1.00
C1041  C     0.60867   0.10743   0.61822   0.00000  Uiso   1.00
H1042  H     0.62975   0.08692   0.62443   0.00000  Uiso   1.00
H1043  H     0.59024   0.11954   0.64813   0.00000  Uiso   1.00
C1044  C     0.63915   0.14192   0.59452   0.00000  Uiso   1.00
H1045  H     0.33467   0.12854   0.57395   0.00000  Uiso   1.00
H1046  H     0.62352   0.15623   0.57655   0.00000  Uiso   1.00
C1047  C     0.65442   0.17678   0.62209   0.00000  Uiso   1.00
H1048  H     0.62676   0.19273   0.64138   0.00000  Uiso   1.00
H1049  H     0.34383   0.20017   0.60424   0.00000  Uiso   1.00
H1050  H     0.33737   0.16432   0.64075   0.00000  Uiso   1.00
N1051  N     0.39513   0.21978   0.90477   0.00000  Uiso   1.00
O1052  O     0.37921   0.19191   0.88146   0.00000  Uiso   1.00
O1053  O     0.37574   0.25305   0.91878   0.00000  Uiso   1.00
N1054  N     0.43091   0.18062   0.58699   0.00000  Uiso   1.00
O1055  O     0.41906   0.14548   0.60258   0.00000  Uiso   1.00
O1056  O     0.42220   0.21523   0.60913   0.00000  Uiso   1.00
O1057  O     0.51692   0.09872   0.92423   0.00000  Uiso   1.00
C1058  C     0.47818   0.07211   0.92583   0.00000  Uiso   1.00
H1059  H     0.46818   0.07526   0.89912   0.00000  Uiso   1.00
H1060  H     0.45062   0.08026   0.95196   0.00000  Uiso   1.00
C1061  C     0.48599   0.02690   0.92503   0.00000  Uiso   1.00
H1062  H     0.51120   0.01812   0.89738   0.00000  Uiso   1.00
H1063  H     0.49755   0.02334   0.95072   0.00000  Uiso   1.00
C1064  C     0.44476   0.33089   0.92701   0.00000  Uiso   1.00
H1065  H     0.41993   0.00444   0.95549   0.00000  Uiso   1.00
H1066  H     0.45205   0.29841   0.92505   0.00000  Uiso   1.00
H1067  H     0.43177   0.00068   0.90207   0.00000  Uiso   1.00
Zn1068 Zn    0.85910   0.14090   0.78278   0.00000  Uiso   1.00
Zn1069 Zn    0.80125   0.12378   0.72258   0.00000  Uiso   1.00
Zn1070 Zn    0.87833   0.19664   0.71188   0.00000  Uiso   1.00
Zn1071 Zn    0.79465   0.20535   0.78277   0.00000  Uiso   1.00
O1072  O     0.83333   0.16667   0.75000   0.00000  Uiso   1.00
O1073  O     0.73656   0.18960   0.77820   0.00000  Uiso   1.00
O1074  O     0.92106   0.15277   0.76768   0.00000  Uiso   1.00
O1075  O     0.80467   0.06903   0.73607   0.00000  Uiso   1.00
O1076  O     0.87104   0.25527   0.71806   0.00000  Uiso   1.00
O1077  O     0.82360   0.12393   0.66625   0.00000  Uiso   1.00
O1078  O     0.79354   0.20646   0.83749   0.00000  Uiso   1.00
O1079  O     0.87755   0.17493   0.65877   0.00000  Uiso   1.00
O1080  O     0.83865   0.16135   0.83749   0.00000  Uiso   1.00
O1081  O     0.84515   0.08101   0.77821   0.00000  Uiso   1.00
O1082  O     0.81247   0.26136   0.76767   0.00000  Uiso   1.00
O1083  O     0.74119   0.13251   0.73607   0.00000  Uiso   1.00
O1084  O     0.93452   0.19179   0.71806   0.00000  Uiso   1.00
C1085  C     0.71906   0.15941   0.75940   0.00000  Uiso   1.00
C1086  C     0.94779   0.17437   0.74159   0.00000  Uiso   1.00
C1087  C     0.82340   0.05629   0.75864   0.00000  Uiso   1.00
C1088  C     0.84332   0.27767   0.74143   0.00000  Uiso   1.00
C1089  C     0.85566   0.14484   0.64392   0.00000  Uiso   1.00
C1090  C     0.81095   0.18678   0.85651   0.00000  Uiso   1.00
C1091  C     0.79673   0.19075   0.90042   0.00000  Uiso   1.00
C1092  C     0.86657   0.13507   0.60092   0.00000  Uiso   1.00
C1093  C     0.74895   0.21360   0.96428   0.00000  Uiso   1.00
C1094  C     0.75880   0.20882   0.92290   0.00000  Uiso   1.00
C1095  C     0.82074   0.17402   0.92030   0.00000  Uiso   1.00
C1096  C     0.80676   0.17273   0.96165   0.00000  Uiso   1.00
C1097  C     0.77274   0.19599   0.98366   0.00000  Uiso   1.00
C1098  C     0.82627   0.14977   0.98172   0.00000  Uiso   1.00
C1099  C     0.81835   0.15812   0.52360   0.00000  Uiso   1.00
C1100  C     0.78296   0.18098   0.54509   0.00000  Uiso   1.00
C1101  C     0.76106   0.19954   0.52484   0.00000  Uiso   1.00
C1102  C     0.85039   0.11616   0.96202   0.00000  Uiso   1.00
C1103  C     0.87227   0.09719   0.98180   0.00000  Uiso   1.00
C1104  C     0.87093   0.11007   0.52128   0.00000  Uiso   1.00
C1105  C     0.84486   0.14162   0.54221   0.00000  Uiso   1.00
C1106  C     0.89505   0.09123   0.54001   0.00000  Uiso   1.00
C1107  C     0.89259   0.10327   0.58033   0.00000  Uiso   1.00
C1108  C     0.84677   0.15604   0.58082   0.00000  Uiso   1.00
H1109  H     0.73366   0.21594   0.54160   0.00000  Uiso   1.00
H1110  H     0.83247   0.18356   0.59637   0.00000  Uiso   1.00
H1111  H     0.89030   0.07182   0.96569   0.00000  Uiso   1.00
H1112  H     0.72088   0.22884   0.98147   0.00000  Uiso   1.00
H1113  H     0.85083   0.16254   0.90312   0.00000  Uiso   1.00
C1114  C     0.99394   0.17941   0.73874   0.00000  Uiso   1.00
C1115  C     0.67415   0.15743   0.76120   0.00000  Uiso   1.00
H1116  H     0.98533   0.13553   0.78008   0.00000  Uiso   1.00
C1117  C     0.84487   0.32156   0.73721   0.00000  Uiso   1.00
H1118  H     0.86667   0.00035   0.71053   0.00000  Uiso   1.00
C1119  C     0.81899   0.01315   0.76448   0.00000  Uiso   1.00
O1120  O     0.91601   0.05709   0.51991   0.00000  Uiso   1.00
C1121  C     0.96152   0.06645   0.50979   0.00000  Uiso   1.00
H1122  H     0.97562   0.03693   0.99684   0.00000  Uiso   1.00
H1123  H     0.97311   0.07670   0.53618   0.00000  Uiso   1.00
C1124  C     0.97875   0.09801   0.97882   0.00000  Uiso   1.00
H1125  H     0.96719   0.08680   0.95235   0.00000  Uiso   1.00
H1126  H     0.96694   0.12862   0.99140   0.00000  Uiso   1.00
C1127  C     0.69469   0.10385   0.96588   0.00000  Uiso   1.00
H1128  H     0.70729   0.11549   0.99170   0.00000  Uiso   1.00
H1129  H     0.70625   0.12677   0.94364   0.00000  Uiso   1.00
H1130  H     0.70743   0.07391   0.95215   0.00000  Uiso   1.00
N1131  N     0.68991   0.20787   0.71265   0.00000  Uiso   1.00
O1132  O     0.67673   0.24133   0.70627   0.00000  Uiso   1.00
O1133  O     0.72882   0.19940   0.69325   0.00000  Uiso   1.00
N1134  N     0.79511   0.00157   0.80328   0.00000  Uiso   1.00
O1135  O     0.75703   0.01377   0.81981   0.00000  Uiso   1.00
O1136  O     0.81519   0.32212   0.82541   0.00000  Uiso   1.00
O1137  O     0.91419   0.08155   0.59830   0.00000  Uiso   1.00
C1138  C     0.94201   0.10743   0.61822   0.00000  Uiso   1.00
H1139  H     0.96308   0.08692   0.62443   0.00000  Uiso   1.00
H1140  H     0.92357   0.11954   0.64813   0.00000  Uiso   1.00
C1141  C     0.97249   0.14192   0.59452   0.00000  Uiso   1.00
H1142  H     0.66800   0.12854   0.57395   0.00000  Uiso   1.00
H1143  H     0.95686   0.15623   0.57655   0.00000  Uiso   1.00
C1144  C     0.98775   0.17678   0.62209   0.00000  Uiso   1.00
H1145  H     0.96009   0.19273   0.64138   0.00000  Uiso   1.00
H1146  H     0.67716   0.20017   0.60424   0.00000  Uiso   1.00
H1147  H     0.67070   0.16432   0.64075   0.00000  Uiso   1.00
N1148  N     0.72846   0.21978   0.90477   0.00000  Uiso   1.00
O1149  O     0.71254   0.19191   0.88146   0.00000  Uiso   1.00
O1150  O     0.70907   0.25305   0.91878   0.00000  Uiso   1.00
N1151  N     0.76424   0.18062   0.58699   0.00000  Uiso   1.00
O1152  O     0.75240   0.14548   0.60258   0.00000  Uiso   1.00
O1153  O     0.75553   0.21523   0.60913   0.00000  Uiso   1.00
O1154  O     0.85026   0.09872   0.92423   0.00000  Uiso   1.00
C1155  C     0.81151   0.07211   0.92583   0.00000  Uiso   1.00
H1156  H     0.80151   0.07526   0.89912   0.00000  Uiso   1.00
H1157  H     0.78396   0.08026   0.95196   0.00000  Uiso   1.00
C1158  C     0.81932   0.02690   0.92503   0.00000  Uiso   1.00
H1159  H     0.84454   0.01812   0.89738   0.00000  Uiso   1.00
H1160  H     0.83088   0.02334   0.95072   0.00000  Uiso   1.00
C1161  C     0.77809   0.33089   0.92701   0.00000  Uiso   1.00
H1162  H     0.75326   0.00444   0.95549   0.00000  Uiso   1.00
H1163  H     0.78539   0.29841   0.92505   0.00000  Uiso   1.00
H1164  H     0.76511   0.00068   0.90207   0.00000  Uiso   1.00
Zn1165 Zn    0.19244   0.47423   0.78278   0.00000  Uiso   1.00
Zn1166 Zn    0.13459   0.45711   0.72258   0.00000  Uiso   1.00
Zn1167 Zn    0.21166   0.52997   0.71188   0.00000  Uiso   1.00
Zn1168 Zn    0.12798   0.53868   0.78277   0.00000  Uiso   1.00
O1169  O     0.16667   0.50000   0.75000   0.00000  Uiso   1.00
O1170  O     0.06990   0.52293   0.77820   0.00000  Uiso   1.00
O1171  O     0.25440   0.48610   0.76768   0.00000  Uiso   1.00
O1172  O     0.13800   0.40236   0.73607   0.00000  Uiso   1.00
O1173  O     0.20437   0.58860   0.71806   0.00000  Uiso   1.00
O1174  O     0.15693   0.45726   0.66625   0.00000  Uiso   1.00
O1175  O     0.12687   0.53979   0.83749   0.00000  Uiso   1.00
O1176  O     0.21088   0.50826   0.65877   0.00000  Uiso   1.00
O1177  O     0.17198   0.49468   0.83749   0.00000  Uiso   1.00
O1178  O     0.17849   0.41434   0.77821   0.00000  Uiso   1.00
O1179  O     0.14581   0.59469   0.76767   0.00000  Uiso   1.00
O1180  O     0.07452   0.46584   0.73607   0.00000  Uiso   1.00
O1181  O     0.26785   0.52512   0.71806   0.00000  Uiso   1.00
C1182  C     0.05239   0.49274   0.75940   0.00000  Uiso   1.00
C1183  C     0.28112   0.50771   0.74159   0.00000  Uiso   1.00
C1184  C     0.15673   0.38962   0.75864   0.00000  Uiso   1.00
C1185  C     0.17666   0.61100   0.74143   0.00000  Uiso   1.00
C1186  C     0.18900   0.47817   0.64392   0.00000  Uiso   1.00
C1187  C     0.14428   0.52011   0.85651   0.00000  Uiso   1.00
C1188  C     0.13006   0.52408   0.90042   0.00000  Uiso   1.00
C1189  C     0.19990   0.46841   0.60092   0.00000  Uiso   1.00
C1190  C     0.08228   0.54693   0.96428   0.00000  Uiso   1.00
C1191  C     0.09213   0.54216   0.92290   0.00000  Uiso   1.00
C1192  C     0.15407   0.50736   0.92030   0.00000  Uiso   1.00
C1193  C     0.14010   0.50606   0.96165   0.00000  Uiso   1.00
C1194  C     0.10607   0.52932   0.98366   0.00000  Uiso   1.00
C1195  C     0.15960   0.48310   0.98172   0.00000  Uiso   1.00
C1196  C     0.15168   0.49146   0.52360   0.00000  Uiso   1.00
C1197  C     0.11630   0.51431   0.54509   0.00000  Uiso   1.00
C1198  C     0.09439   0.53287   0.52484   0.00000  Uiso   1.00
C1199  C     0.18372   0.44950   0.96202   0.00000  Uiso   1.00
C1200  C     0.20560   0.43053   0.98180   0.00000  Uiso   1.00
C1201  C     0.20426   0.44341   0.52128   0.00000  Uiso   1.00
C1202  C     0.17820   0.47495   0.54221   0.00000  Uiso   1.00
C1203  C     0.22838   0.42456   0.54001   0.00000  Uiso   1.00
C1204  C     0.22593   0.43660   0.58033   0.00000  Uiso   1.00
C1205  C     0.18010   0.48938   0.58082   0.00000  Uiso   1.00
H1206  H     0.06700   0.54927   0.54160   0.00000  Uiso   1.00
H1207  H     0.16580   0.51690   0.59637   0.00000  Uiso   1.00
H1208  H     0.22363   0.40515   0.96569   0.00000  Uiso   1.00
H1209  H     0.05421   0.56217   0.98147   0.00000  Uiso   1.00
H1210  H     0.18416   0.49587   0.90312   0.00000  Uiso   1.00
C1211  C     0.32727   0.51274   0.73874   0.00000  Uiso   1.00
C1212  C     0.00749   0.49077   0.76120   0.00000  Uiso   1.00
H1213  H     0.31866   0.46886   0.78008   0.00000  Uiso   1.00
C1214  C     0.17820   0.65489   0.73721   0.00000  Uiso   1.00
H1215  H     0.20001   0.33369   0.71053   0.00000  Uiso   1.00
C1216  C     0.15233   0.34648   0.76448   0.00000  Uiso   1.00
O1217  O     0.24935   0.39042   0.51991   0.00000  Uiso   1.00
C1218  C     0.29485   0.39979   0.50979   0.00000  Uiso   1.00
H1219  H     0.30896   0.37027   0.99684   0.00000  Uiso   1.00
H1220  H     0.30644   0.41003   0.53618   0.00000  Uiso   1.00
C1221  C     0.31208   0.43134   0.97882   0.00000  Uiso   1.00
H1222  H     0.30052   0.42013   0.95235   0.00000  Uiso   1.00
H1223  H     0.30028   0.46196   0.99140   0.00000  Uiso   1.00
C1224  C     0.02802   0.43718   0.96588   0.00000  Uiso   1.00
H1225  H     0.04062   0.44882   0.99170   0.00000  Uiso   1.00
H1226  H     0.03958   0.46010   0.94364   0.00000  Uiso   1.00
H1227  H     0.04076   0.40724   0.95215   0.00000  Uiso   1.00
N1228  N     0.02324   0.54121   0.71265   0.00000  Uiso   1.00
O1229  O     0.01007   0.57466   0.70627   0.00000  Uiso   1.00
O1230  O     0.06216   0.53273   0.69325   0.00000  Uiso   1.00
N1231  N     0.12844   0.33491   0.80328   0.00000  Uiso   1.00
O1232  O     0.09037   0.34710   0.81981   0.00000  Uiso   1.00
O1233  O     0.14852   0.65545   0.82541   0.00000  Uiso   1.00
O1234  O     0.24752   0.41489   0.59830   0.00000  Uiso   1.00
C1235  C     0.27534   0.44076   0.61822   0.00000  Uiso   1.00
H1236  H     0.29642   0.42025   0.62443   0.00000  Uiso   1.00
H1237  H     0.25691   0.45288   0.64813   0.00000  Uiso   1.00
C1238  C     0.30582   0.47526   0.59452   0.00000  Uiso   1.00
H1239  H     0.00133   0.46188   0.57395   0.00000  Uiso   1.00
H1240  H     0.29019   0.48957   0.57655   0.00000  Uiso   1.00
C1241  C     0.32108   0.51012   0.62209   0.00000  Uiso   1.00
H1242  H     0.29343   0.52607   0.64138   0.00000  Uiso   1.00
H1243  H     0.01049   0.53350   0.60424   0.00000  Uiso   1.00
H1244  H     0.00403   0.49765   0.64075   0.00000  Uiso   1.00
N1245  N     0.06180   0.55311   0.90477   0.00000  Uiso   1.00
O1246  O     0.04587   0.52524   0.88146   0.00000  Uiso   1.00
O1247  O     0.04241   0.58638   0.91878   0.00000  Uiso   1.00
N1248  N     0.09757   0.51395   0.58699   0.00000  Uiso   1.00
O1249  O     0.08573   0.47882   0.60258   0.00000  Uiso   1.00
O1250  O     0.08886   0.54856   0.60913   0.00000  Uiso   1.00
O1251  O     0.18359   0.43205   0.92423   0.00000  Uiso   1.00
C1252  C     0.14485   0.40545   0.92583   0.00000  Uiso   1.00
H1253  H     0.13485   0.40859   0.89912   0.00000  Uiso   1.00
H1254  H     0.11729   0.41360   0.95196   0.00000  Uiso   1.00
C1255  C     0.15266   0.36023   0.92503   0.00000  Uiso   1.00
H1256  H     0.17787   0.35145   0.89738   0.00000  Uiso   1.00
H1257  H     0.16421   0.35667   0.95072   0.00000  Uiso   1.00
C1258  C     0.11143   0.66422   0.92701   0.00000  Uiso   1.00
H1259  H     0.08659   0.33777   0.95549   0.00000  Uiso   1.00
H1260  H     0.11872   0.63174   0.92505   0.00000  Uiso   1.00
H1261  H     0.09844   0.33402   0.90207   0.00000  Uiso   1.00
Zn1262 Zn    0.52577   0.47423   0.78278   0.00000  Uiso   1.00
Zn1263 Zn    0.46792   0.45711   0.72258   0.00000  Uiso   1.00
Zn1264 Zn    0.54500   0.52997   0.71188   0.00000  Uiso   1.00
Zn1265 Zn    0.46131   0.53868   0.78277   0.00000  Uiso   1.00
O1266  O     0.50000   0.50000   0.75000   0.00000  Uiso   1.00
O1267  O     0.40323   0.52293   0.77820   0.00000  Uiso   1.00
O1268  O     0.58773   0.48610   0.76768   0.00000  Uiso   1.00
O1269  O     0.47133   0.40236   0.73607   0.00000  Uiso   1.00
O1270  O     0.53771   0.58860   0.71806   0.00000  Uiso   1.00
O1271  O     0.49027   0.45726   0.66625   0.00000  Uiso   1.00
O1272  O     0.46020   0.53979   0.83749   0.00000  Uiso   1.00
O1273  O     0.54421   0.50826   0.65877   0.00000  Uiso   1.00
O1274  O     0.50532   0.49468   0.83749   0.00000  Uiso   1.00
O1275  O     0.51182   0.41434   0.77821   0.00000  Uiso   1.00
O1276  O     0.47914   0.59469   0.76767   0.00000  Uiso   1.00
O1277  O     0.40785   0.46584   0.73607   0.00000  Uiso   1.00
O1278  O     0.60119   0.52512   0.71806   0.00000  Uiso   1.00
C1279  C     0.38572   0.49274   0.75940   0.00000  Uiso   1.00
C1280  C     0.61446   0.50771   0.74159   0.00000  Uiso   1.00
C1281  C     0.49006   0.38962   0.75864   0.00000  Uiso   1.00
C1282  C     0.50999   0.61100   0.74143   0.00000  Uiso   1.00
C1283  C     0.52233   0.47817   0.64392   0.00000  Uiso   1.00
C1284  C     0.47761   0.52011   0.85651   0.00000  Uiso   1.00
C1285  C     0.46339   0.52408   0.90042   0.00000  Uiso   1.00
C1286  C     0.53324   0.46841   0.60092   0.00000  Uiso   1.00
C1287  C     0.41561   0.54693   0.96428   0.00000  Uiso   1.00
C1288  C     0.42547   0.54216   0.92290   0.00000  Uiso   1.00
C1289  C     0.48740   0.50736   0.92030   0.00000  Uiso   1.00
C1290  C     0.47343   0.50606   0.96165   0.00000  Uiso   1.00
C1291  C     0.43941   0.52932   0.98366   0.00000  Uiso   1.00
C1292  C     0.49293   0.48310   0.98172   0.00000  Uiso   1.00
C1293  C     0.48501   0.49146   0.52360   0.00000  Uiso   1.00
C1294  C     0.44963   0.51431   0.54509   0.00000  Uiso   1.00
C1295  C     0.42772   0.53287   0.52484   0.00000  Uiso   1.00
C1296  C     0.51705   0.44950   0.96202   0.00000  Uiso   1.00
C1297  C     0.53893   0.43053   0.98180   0.00000  Uiso   1.00
C1298  C     0.53759   0.44341   0.52128   0.00000  Uiso   1.00
C1299  C     0.51153   0.47495   0.54221   0.00000  Uiso   1.00
C1300  C     0.56171   0.42456   0.54001   0.00000  Uiso   1.00
C1301  C     0.55926   0.43660   0.58033   0.00000  Uiso   1.00
C1302  C     0.51344   0.48938   0.58082   0.00000  Uiso   1.00
H1303  H     0.40033   0.54927   0.54160   0.00000  Uiso   1.00
H1304  H     0.49914   0.51690   0.59637   0.00000  Uiso   1.00
H1305  H     0.55697   0.40515   0.96569   0.00000  Uiso   1.00
H1306  H     0.38755   0.56217   0.98147   0.00000  Uiso   1.00
H1307  H     0.51750   0.49587   0.90312   0.00000  Uiso   1.00
C1308  C     0.66061   0.51274   0.73874   0.00000  Uiso   1.00
C1309  C     0.34082   0.49077   0.76120   0.00000  Uiso   1.00
H1310  H     0.65200   0.46886   0.78008   0.00000  Uiso   1.00
C1311  C     0.51154   0.65489   0.73721   0.00000  Uiso   1.00
H1312  H     0.53334   0.33369   0.71053   0.00000  Uiso   1.00
C1313  C     0.48566   0.34648   0.76448   0.00000  Uiso   1.00
O1314  O     0.58268   0.39042   0.51991   0.00000  Uiso   1.00
C1315  C     0.62818   0.39979   0.50979   0.00000  Uiso   1.00
H1316  H     0.64229   0.37027   0.99684   0.00000  Uiso   1.00
H1317  H     0.63978   0.41003   0.53618   0.00000  Uiso   1.00
C1318  C     0.64542   0.43134   0.97882   0.00000  Uiso   1.00
H1319  H     0.63386   0.42013   0.95235   0.00000  Uiso   1.00
H1320  H     0.63361   0.46196   0.99140   0.00000  Uiso   1.00
C1321  C     0.36136   0.43718   0.96588   0.00000  Uiso   1.00
H1322  H     0.37396   0.44882   0.99170   0.00000  Uiso   1.00
H1323  H     0.37292   0.46010   0.94364   0.00000  Uiso   1.00
H1324  H     0.37410   0.40724   0.95215   0.00000  Uiso   1.00
N1325  N     0.35658   0.54121   0.71265   0.00000  Uiso   1.00
O1326  O     0.34340   0.57466   0.70627   0.00000  Uiso   1.00
O1327  O     0.39549   0.53273   0.69325   0.00000  Uiso   1.00
N1328  N     0.46177   0.33491   0.80328   0.00000  Uiso   1.00
O1329  O     0.42370   0.34710   0.81981   0.00000  Uiso   1.00
O1330  O     0.48186   0.65545   0.82541   0.00000  Uiso   1.00
O1331  O     0.58086   0.41489   0.59830   0.00000  Uiso   1.00
C1332  C     0.60867   0.44076   0.61822   0.00000  Uiso   1.00
H1333  H     0.62975   0.42025   0.62443   0.00000  Uiso   1.00
H1334  H     0.59024   0.45288   0.64813   0.00000  Uiso   1.00
C1335  C     0.63915   0.47526   0.59452   0.00000  Uiso   1.00
H1336  H     0.33467   0.46188   0.57395   0.00000  Uiso   1.00
H1337  H     0.62352   0.48957   0.57655   0.00000  Uiso   1.00
C1338  C     0.65442   0.51012   0.62209   0.00000  Uiso   1.00
H1339  H     0.62676   0.52607   0.64138   0.00000  Uiso   1.00
H1340  H     0.34383   0.53350   0.60424   0.00000  Uiso   1.00
H1341  H     0.33737   0.49765   0.64075   0.00000  Uiso   1.00
N1342  N     0.39513   0.55311   0.90477   0.00000  Uiso   1.00
O1343  O     0.37921   0.52524   0.88146   0.00000  Uiso   1.00
O1344  O     0.37574   0.58638   0.91878   0.00000  Uiso   1.00
N1345  N     0.43091   0.51395   0.58699   0.00000  Uiso   1.00
O1346  O     0.41906   0.47882   0.60258   0.00000  Uiso   1.00
O1347  O     0.42220   0.54856   0.60913   0.00000  Uiso   1.00
O1348  O     0.51692   0.43205   0.92423   0.00000  Uiso   1.00
C1349  C     0.47818   0.40545   0.92583   0.00000  Uiso   1.00
H1350  H     0.46818   0.40859   0.89912   0.00000  Uiso   1.00
H1351  H     0.45062   0.41360   0.95196   0.00000  Uiso   1.00
C1352  C     0.48599   0.36023   0.92503   0.00000  Uiso   1.00
H1353  H     0.51120   0.35145   0.89738   0.00000  Uiso   1.00
H1354  H     0.49755   0.35667   0.95072   0.00000  Uiso   1.00
C1355  C     0.44476   0.66422   0.92701   0.00000  Uiso   1.00
H1356  H     0.41993   0.33777   0.95549   0.00000  Uiso   1.00
H1357  H     0.45205   0.63174   0.92505   0.00000  Uiso   1.00
H1358  H     0.43177   0.33402   0.90207   0.00000  Uiso   1.00
Zn1359 Zn    0.85910   0.47423   0.78278   0.00000  Uiso   1.00
Zn1360 Zn    0.80125   0.45711   0.72258   0.00000  Uiso   1.00
Zn1361 Zn    0.87833   0.52997   0.71188   0.00000  Uiso   1.00
Zn1362 Zn    0.79465   0.53868   0.78277   0.00000  Uiso   1.00
O1363  O     0.83333   0.50000   0.75000   0.00000  Uiso   1.00
O1364  O     0.73656   0.52293   0.77820   0.00000  Uiso   1.00
O1365  O     0.92106   0.48610   0.76768   0.00000  Uiso   1.00
O1366  O     0.80467   0.40236   0.73607   0.00000  Uiso   1.00
O1367  O     0.87104   0.58860   0.71806   0.00000  Uiso   1.00
O1368  O     0.82360   0.45726   0.66625   0.00000  Uiso   1.00
O1369  O     0.79354   0.53979   0.83749   0.00000  Uiso   1.00
O1370  O     0.87755   0.50826   0.65877   0.00000  Uiso   1.00
O1371  O     0.83865   0.49468   0.83749   0.00000  Uiso   1.00
O1372  O     0.84515   0.41434   0.77821   0.00000  Uiso   1.00
O1373  O     0.81247   0.59469   0.76767   0.00000  Uiso   1.00
O1374  O     0.74119   0.46584   0.73607   0.00000  Uiso   1.00
O1375  O     0.93452   0.52512   0.71806   0.00000  Uiso   1.00
C1376  C     0.71906   0.49274   0.75940   0.00000  Uiso   1.00
C1377  C     0.94779   0.50771   0.74159   0.00000  Uiso   1.00
C1378  C     0.82340   0.38962   0.75864   0.00000  Uiso   1.00
C1379  C     0.84332   0.61100   0.74143   0.00000  Uiso   1.00
C1380  C     0.85566   0.47817   0.64392   0.00000  Uiso   1.00
C1381  C     0.81095   0.52011   0.85651   0.00000  Uiso   1.00
C1382  C     0.79673   0.52408   0.90042   0.00000  Uiso   1.00
C1383  C     0.86657   0.46841   0.60092   0.00000  Uiso   1.00
C1384  C     0.74895   0.54693   0.96428   0.00000  Uiso   1.00
C1385  C     0.75880   0.54216   0.92290   0.00000  Uiso   1.00
C1386  C     0.82074   0.50736   0.92030   0.00000  Uiso   1.00
C1387  C     0.80676   0.50606   0.96165   0.00000  Uiso   1.00
C1388  C     0.77274   0.52932   0.98366   0.00000  Uiso   1.00
C1389  C     0.82627   0.48310   0.98172   0.00000  Uiso   1.00
C1390  C     0.81835   0.49146   0.52360   0.00000  Uiso   1.00
C1391  C     0.78296   0.51431   0.54509   0.00000  Uiso   1.00
C1392  C     0.76106   0.53287   0.52484   0.00000  Uiso   1.00
C1393  C     0.85039   0.44950   0.96202   0.00000  Uiso   1.00
C1394  C     0.87227   0.43053   0.98180   0.00000  Uiso   1.00
C1395  C     0.87093   0.44341   0.52128   0.00000  Uiso   1.00
C1396  C     0.84486   0.47495   0.54221   0.00000  Uiso   1.00
C1397  C     0.89505   0.42456   0.54001   0.00000  Uiso   1.00
C1398  C     0.89259   0.43660   0.58033   0.00000  Uiso   1.00
C1399  C     0.84677   0.48938   0.58082   0.00000  Uiso   1.00
H1400  H     0.73366   0.54927   0.54160   0.00000  Uiso   1.00
H1401  H     0.83247   0.51690   0.59637   0.00000  Uiso   1.00
H1402  H     0.89030   0.40515   0.96569   0.00000  Uiso   1.00
H1403  H     0.72088   0.56217   0.98147   0.00000  Uiso   1.00
H1404  H     0.85083   0.49587   0.90312   0.00000  Uiso   1.00
C1405  C     0.99394   0.51274   0.73874   0.00000  Uiso   1.00
C1406  C     0.67415   0.49077   0.76120   0.00000  Uiso   1.00
H1407  H     0.98533   0.46886   0.78008   0.00000  Uiso   1.00
C1408  C     0.84487   0.65489   0.73721   0.00000  Uiso   1.00
H1409  H     0.86667   0.33369   0.71053   0.00000  Uiso   1.00
C1410  C     0.81899   0.34648   0.76448   0.00000  Uiso   1.00
O1411  O     0.91601   0.39042   0.51991   0.00000  Uiso   1.00
C1412  C     0.96152   0.39979   0.50979   0.00000  Uiso   1.00
H1413  H     0.97562   0.37027   0.99684   0.00000  Uiso   1.00
H1414  H     0.97311   0.41003   0.53618   0.00000  Uiso   1.00
C1415  C     0.97875   0.43134   0.97882   0.00000  Uiso   1.00
H1416  H     0.96719   0.42013   0.95235   0.00000  Uiso   1.00
H1417  H     0.96694   0.46196   0.99140   0.00000  Uiso   1.00
C1418  C     0.69469   0.43718   0.96588   0.00000  Uiso   1.00
H1419  H     0.70729   0.44882   0.99170   0.00000  Uiso   1.00
H1420  H     0.70625   0.46010   0.94364   0.00000  Uiso   1.00
H1421  H     0.70743   0.40724   0.95215   0.00000  Uiso   1.00
N1422  N     0.68991   0.54121   0.71265   0.00000  Uiso   1.00
O1423  O     0.67673   0.57466   0.70627   0.00000  Uiso   1.00
O1424  O     0.72882   0.53273   0.69325   0.00000  Uiso   1.00
N1425  N     0.79511   0.33491   0.80328   0.00000  Uiso   1.00
O1426  O     0.75703   0.34710   0.81981   0.00000  Uiso   1.00
O1427  O     0.81519   0.65545   0.82541   0.00000  Uiso   1.00
O1428  O     0.91419   0.41489   0.59830   0.00000  Uiso   1.00
C1429  C     0.94201   0.44076   0.61822   0.00000  Uiso   1.00
H1430  H     0.96308   0.42025   0.62443   0.00000  Uiso   1.00
H1431  H     0.92357   0.45288   0.64813   0.00000  Uiso   1.00
C1432  C     0.97249   0.47526   0.59452   0.00000  Uiso   1.00
H1433  H     0.66800   0.46188   0.57395   0.00000  Uiso   1.00
H1434  H     0.95686   0.48957   0.57655   0.00000  Uiso   1.00
C1435  C     0.98775   0.51012   0.62209   0.00000  Uiso   1.00
H1436  H     0.96009   0.52607   0.64138   0.00000  Uiso   1.00
H1437  H     0.67716   0.53350   0.60424   0.00000  Uiso   1.00
H1438  H     0.67070   0.49765   0.64075   0.00000  Uiso   1.00
N1439  N     0.72846   0.55311   0.90477   0.00000  Uiso   1.00
O1440  O     0.71254   0.52524   0.88146   0.00000  Uiso   1.00
O1441  O     0.70907   0.58638   0.91878   0.00000  Uiso   1.00
N1442  N     0.76424   0.51395   0.58699   0.00000  Uiso   1.00
O1443  O     0.75240   0.47882   0.60258   0.00000  Uiso   1.00
O1444  O     0.75553   0.54856   0.60913   0.00000  Uiso   1.00
O1445  O     0.85026   0.43205   0.92423   0.00000  Uiso   1.00
C1446  C     0.81151   0.40545   0.92583   0.00000  Uiso   1.00
H1447  H     0.80151   0.40859   0.89912   0.00000  Uiso   1.00
H1448  H     0.78396   0.41360   0.95196   0.00000  Uiso   1.00
C1449  C     0.81932   0.36023   0.92503   0.00000  Uiso   1.00
H1450  H     0.84454   0.35145   0.89738   0.00000  Uiso   1.00
H1451  H     0.83088   0.35667   0.95072   0.00000  Uiso   1.00
C1452  C     0.77809   0.66422   0.92701   0.00000  Uiso   1.00
H1453  H     0.75326   0.33777   0.95549   0.00000  Uiso   1.00
H1454  H     0.78539   0.63174   0.92505   0.00000  Uiso   1.00
H1455  H     0.76511   0.33402   0.90207   0.00000  Uiso   1.00
Zn1456 Zn    0.19244   0.80756   0.78278   0.00000  Uiso   1.00
Zn1457 Zn    0.13459   0.79044   0.72258   0.00000  Uiso   1.00
Zn1458 Zn    0.21166   0.86331   0.71188   0.00000  Uiso   1.00
Zn1459 Zn    0.12798   0.87202   0.78277   0.00000  Uiso   1.00
O1460  O     0.16667   0.83333   0.75000   0.00000  Uiso   1.00
O1461  O     0.06990   0.85627   0.77820   0.00000  Uiso   1.00
O1462  O     0.25440   0.81944   0.76768   0.00000  Uiso   1.00
O1463  O     0.13800   0.73570   0.73607   0.00000  Uiso   1.00
O1464  O     0.20437   0.92193   0.71806   0.00000  Uiso   1.00
O1465  O     0.15693   0.79060   0.66625   0.00000  Uiso   1.00
O1466  O     0.12687   0.87313   0.83749   0.00000  Uiso   1.00
O1467  O     0.21088   0.84159   0.65877   0.00000  Uiso   1.00
O1468  O     0.17198   0.82802   0.83749   0.00000  Uiso   1.00
O1469  O     0.17849   0.74768   0.77821   0.00000  Uiso   1.00
O1470  O     0.14581   0.92803   0.76767   0.00000  Uiso   1.00
O1471  O     0.07452   0.79917   0.73607   0.00000  Uiso   1.00
O1472  O     0.26785   0.85845   0.71806   0.00000  Uiso   1.00
C1473  C     0.05239   0.82608   0.75940   0.00000  Uiso   1.00
C1474  C     0.28112   0.84104   0.74159   0.00000  Uiso   1.00
C1475  C     0.15673   0.72296   0.75864   0.00000  Uiso   1.00
C1476  C     0.17666   0.94433   0.74143   0.00000  Uiso   1.00
C1477  C     0.18900   0.81151   0.64392   0.00000  Uiso   1.00
C1478  C     0.14428   0.85344   0.85651   0.00000  Uiso   1.00
C1479  C     0.13006   0.85742   0.90042   0.00000  Uiso   1.00
C1480  C     0.19990   0.80174   0.60092   0.00000  Uiso   1.00
C1481  C     0.08228   0.88026   0.96428   0.00000  Uiso   1.00
C1482  C     0.09213   0.87549   0.92290   0.00000  Uiso   1.00
C1483  C     0.15407   0.84069   0.92030   0.00000  Uiso   1.00
C1484  C     0.14010   0.83940   0.96165   0.00000  Uiso   1.00
C1485  C     0.10607   0.86265   0.98366   0.00000  Uiso   1.00
C1486  C     0.15960   0.81643   0.98172   0.00000  Uiso   1.00
C1487  C     0.15168   0.82479   0.52360   0.00000  Uiso   1.00
C1488  C     0.11630   0.84764   0.54509   0.00000  Uiso   1.00
C1489  C     0.09439   0.86620   0.52484   0.00000  Uiso   1.00
C1490  C     0.18372   0.78283   0.96202   0.00000  Uiso   1.00
C1491  C     0.20560   0.76386   0.98180   0.00000  Uiso   1.00
C1492  C     0.20426   0.77674   0.52128   0.00000  Uiso   1.00
C1493  C     0.17820   0.80828   0.54221   0.00000  Uiso   1.00
C1494  C     0.22838   0.75789   0.54001   0.00000  Uiso   1.00
C1495  C     0.22593   0.76994   0.58033   0.00000  Uiso   1.00
C1496  C     0.18010   0.82271   0.58082   0.00000  Uiso   1.00
H1497  H     0.06700   0.88260   0.54160   0.00000  Uiso   1.00
H1498  H     0.16580   0.85023   0.59637   0.00000  Uiso   1.00
H1499  H     0.22363   0.73849   0.96569   0.00000  Uiso   1.00
H1500  H     0.05421   0.89550   0.98147   0.00000  Uiso   1.00
H1501  H     0.18416   0.82921   0.90312   0.00000  Uiso   1.00
C1502  C     0.32727   0.84607   0.73874   0.00000  Uiso   1.00
C1503  C     0.00749   0.82410   0.76120   0.00000  Uiso   1.00
H1504  H     0.31866   0.80220   0.78008   0.00000  Uiso   1.00
C1505  C     0.17820   0.98822   0.73721   0.00000  Uiso   1.00
H1506  H     0.20001   0.66702   0.71053   0.00000  Uiso   1.00
C1507  C     0.15233   0.67982   0.76448   0.00000  Uiso   1.00
O1508  O     0.24935   0.72375   0.51991   0.00000  Uiso   1.00
C1509  C     0.29485   0.73312   0.50979   0.00000  Uiso   1.00
H1510  H     0.30896   0.70360   0.99684   0.00000  Uiso   1.00
H1511  H     0.30644   0.74337   0.53618   0.00000  Uiso   1.00
C1512  C     0.31208   0.76467   0.97882   0.00000  Uiso   1.00
H1513  H     0.30052   0.75346   0.95235   0.00000  Uiso   1.00
H1514  H     0.30028   0.79529   0.99140   0.00000  Uiso   1.00
C1515  C     0.02802   0.77051   0.96588   0.00000  Uiso   1.00
H1516  H     0.04062   0.78216   0.99170   0.00000  Uiso   1.00
H1517  H     0.03958   0.79344   0.94364   0.00000  Uiso   1.00
H1518  H     0.04076   0.74057   0.95215   0.00000  Uiso   1.00
N1519  N     0.02324   0.87454   0.71265   0.00000  Uiso   1.00
O1520  O     0.01007   0.90799   0.70627   0.00000  Uiso   1.00
O1521  O     0.06216   0.86607   0.69325   0.00000  Uiso   1.00
N1522  N     0.12844   0.66824   0.80328   0.00000  Uiso   1.00
O1523  O     0.09037   0.68043   0.81981   0.00000  Uiso   1.00
O1524  O     0.14852   0.98878   0.82541   0.00000  Uiso   1.00
O1525  O     0.24752   0.74822   0.59830   0.00000  Uiso   1.00
C1526  C     0.27534   0.77409   0.61822   0.00000  Uiso   1.00
H1527  H     0.29642   0.75358   0.62443   0.00000  Uiso   1.00
H1528  H     0.25691   0.78621   0.64813   0.00000  Uiso   1.00
C1529  C     0.30582   0.80859   0.59452   0.00000  Uiso   1.00
H1530  H     0.00133   0.79521   0.57395   0.00000  Uiso   1.00
H1531  H     0.29019   0.82290   0.57655   0.00000  Uiso   1.00
C1532  C     0.32108   0.84345   0.62209   0.00000  Uiso   1.00
H1533  H     0.29343   0.85940   0.64138   0.00000  Uiso   1.00
H1534  H     0.01049   0.86683   0.60424   0.00000  Uiso   1.00
H1535  H     0.00403   0.83098   0.64075   0.00000  Uiso   1.00
N1536  N     0.06180   0.88645   0.90477   0.00000  Uiso   1.00
O1537  O     0.04587   0.85857   0.88146   0.00000  Uiso   1.00
O1538  O     0.04241   0.91972   0.91878   0.00000  Uiso   1.00
N1539  N     0.09757   0.84728   0.58699   0.00000  Uiso   1.00
O1540  O     0.08573   0.81215   0.60258   0.00000  Uiso   1.00
O1541  O     0.08886   0.88189   0.60913   0.00000  Uiso   1.00
O1542  O     0.18359   0.76539   0.92423   0.00000  Uiso   1.00
C1543  C     0.14485   0.73878   0.92583   0.00000  Uiso   1.00
H1544  H     0.13485   0.74193   0.89912   0.00000  Uiso   1.00
H1545  H     0.11729   0.74693   0.95196   0.00000  Uiso   1.00
C1546  C     0.15266   0.69357   0.92503   0.00000  Uiso   1.00
H1547  H     0.17787   0.68479   0.89738   0.00000  Uiso   1.00
H1548  H     0.16421   0.69000   0.95072   0.00000  Uiso   1.00
C1549  C     0.11143   0.99755   0.92701   0.00000  Uiso   1.00
H1550  H     0.08659   0.67110   0.95549   0.00000  Uiso   1.00
H1551  H     0.11872   0.96508   0.92505   0.00000  Uiso   1.00
H1552  H     0.09844   0.66735   0.90207   0.00000  Uiso   1.00
Zn1553 Zn    0.52577   0.80756   0.78278   0.00000  Uiso   1.00
Zn1554 Zn    0.46792   0.79044   0.72258   0.00000  Uiso   1.00
Zn1555 Zn    0.54500   0.86331   0.71188   0.00000  Uiso   1.00
Zn1556 Zn    0.46131   0.87202   0.78277   0.00000  Uiso   1.00
O1557  O     0.50000   0.83333   0.75000   0.00000  Uiso   1.00
O1558  O     0.40323   0.85627   0.77820   0.00000  Uiso   1.00
O1559  O     0.58773   0.81944   0.76768   0.00000  Uiso   1.00
O1560  O     0.47133   0.73570   0.73607   0.00000  Uiso   1.00
O1561  O     0.53771   0.92193   0.71806   0.00000  Uiso   1.00
O1562  O     0.49027   0.79060   0.66625   0.00000  Uiso   1.00
O1563  O     0.46020   0.87313   0.83749   0.00000  Uiso   1.00
O1564  O     0.54421   0.84159   0.65877   0.00000  Uiso   1.00
O1565  O     0.50532   0.82802   0.83749   0.00000  Uiso   1.00
O1566  O     0.51182   0.74768   0.77821   0.00000  Uiso   1.00
O1567  O     0.47914   0.92803   0.76767   0.00000  Uiso   1.00
O1568  O     0.40785   0.79917   0.73607   0.00000  Uiso   1.00
O1569  O     0.60119   0.85845   0.71806   0.00000  Uiso   1.00
C1570  C     0.38572   0.82608   0.75940   0.00000  Uiso   1.00
C1571  C     0.61446   0.84104   0.74159   0.00000  Uiso   1.00
C1572  C     0.49006   0.72296   0.75864   0.00000  Uiso   1.00
C1573  C     0.50999   0.94433   0.74143   0.00000  Uiso   1.00
C1574  C     0.52233   0.81151   0.64392   0.00000  Uiso   1.00
C1575  C     0.47761   0.85344   0.85651   0.00000  Uiso   1.00
C1576  C     0.46339   0.85742   0.90042   0.00000  Uiso   1.00
C1577  C     0.53324   0.80174   0.60092   0.00000  Uiso   1.00
C1578  C     0.41561   0.88026   0.96428   0.00000  Uiso   1.00
C1579  C     0.42547   0.87549   0.92290   0.00000  Uiso   1.00
C1580  C     0.48740   0.84069   0.92030   0.00000  Uiso   1.00
C1581  C     0.47343   0.83940   0.96165   0.00000  Uiso   1.00
C1582  C     0.43941   0.86265   0.98366   0.00000  Uiso   1.00
C1583  C     0.49293   0.81643   0.98172   0.00000  Uiso   1.00
C1584  C     0.48501   0.82479   0.52360   0.00000  Uiso   1.00
C1585  C     0.44963   0.84764   0.54509   0.00000  Uiso   1.00
C1586  C     0.42772   0.86620   0.52484   0.00000  Uiso   1.00
C1587  C     0.51705   0.78283   0.96202   0.00000  Uiso   1.00
C1588  C     0.53893   0.76386   0.98180   0.00000  Uiso   1.00
C1589  C     0.53759   0.77674   0.52128   0.00000  Uiso   1.00
C1590  C     0.51153   0.80828   0.54221   0.00000  Uiso   1.00
C1591  C     0.56171   0.75789   0.54001   0.00000  Uiso   1.00
C1592  C     0.55926   0.76994   0.58033   0.00000  Uiso   1.00
C1593  C     0.51344   0.82271   0.58082   0.00000  Uiso   1.00
H1594  H     0.40033   0.88260   0.54160   0.00000  Uiso   1.00
H1595  H     0.49914   0.85023   0.59637   0.00000  Uiso   1.00
H1596  H     0.55697   0.73849   0.96569   0.00000  Uiso   1.00
H1597  H     0.38755   0.89550   0.98147   0.00000  Uiso   1.00
H1598  H     0.51750   0.82921   0.90312   0.00000  Uiso   1.00
C1599  C     0.66061   0.84607   0.73874   0.00000  Uiso   1.00
C1600  C     0.34082   0.82410   0.76120   0.00000  Uiso   1.00
H1601  H     0.65200   0.80220   0.78008   0.00000  Uiso   1.00
C1602  C     0.51154   0.98822   0.73721   0.00000  Uiso   1.00
H1603  H     0.53334   0.66702   0.71053   0.00000  Uiso   1.00
C1604  C     0.48566   0.67982   0.76448   0.00000  Uiso   1.00
O1605  O     0.58268   0.72375   0.51991   0.00000  Uiso   1.00
C1606  C     0.62818   0.73312   0.50979   0.00000  Uiso   1.00
H1607  H     0.64229   0.70360   0.99684   0.00000  Uiso   1.00
H1608  H     0.63978   0.74337   0.53618   0.00000  Uiso   1.00
C1609  C     0.64542   0.76467   0.97882   0.00000  Uiso   1.00
H1610  H     0.63386   0.75346   0.95235   0.00000  Uiso   1.00
H1611  H     0.63361   0.79529   0.99140   0.00000  Uiso   1.00
C1612  C     0.36136   0.77051   0.96588   0.00000  Uiso   1.00
H1613  H     0.37396   0.78216   0.99170   0.00000  Uiso   1.00
H1614  H     0.37292   0.79344   0.94364   0.00000  Uiso   1.00
H1615  H     0.37410   0.74057   0.95215   0.00000  Uiso   1.00
N1616  N     0.35658   0.87454   0.71265   0.00000  Uiso   1.00
O1617  O     0.34340   0.90799   0.70627   0.00000  Uiso   1.00
O1618  O     0.39549   0.86607   0.69325   0.00000  Uiso   1.00
N1619  N     0.46177   0.66824   0.80328   0.00000  Uiso   1.00
O1620  O     0.42370   0.68043   0.81981   0.00000  Uiso   1.00
O1621  O     0.48186   0.98878   0.82541   0.00000  Uiso   1.00
O1622  O     0.58086   0.74822   0.59830   0.00000  Uiso   1.00
C1623  C     0.60867   0.77409   0.61822   0.00000  Uiso   1.00
H1624  H     0.62975   0.75358   0.62443   0.00000  Uiso   1.00
H1625  H     0.59024   0.78621   0.64813   0.00000  Uiso   1.00
C1626  C     0.63915   0.80859   0.59452   0.00000  Uiso   1.00
H1627  H     0.33467   0.79521   0.57395   0.00000  Uiso   1.00
H1628  H     0.62352   0.82290   0.57655   0.00000  Uiso   1.00
C1629  C     0.65442   0.84345   0.62209   0.00000  Uiso   1.00
H1630  H     0.62676   0.85940   0.64138   0.00000  Uiso   1.00
H1631  H     0.34383   0.86683   0.60424   0.00000  Uiso   1.00
H1632  H     0.33737   0.83098   0.64075   0.00000  Uiso   1.00
N1633  N     0.39513   0.88645   0.90477   0.00000  Uiso   1.00
O1634  O     0.37921   0.85857   0.88146   0.00000  Uiso   1.00
O1635  O     0.37574   0.91972   0.91878   0.00000  Uiso   1.00
N1636  N     0.43091   0.84728   0.58699   0.00000  Uiso   1.00
O1637  O     0.41906   0.81215   0.60258   0.00000  Uiso   1.00
O1638  O     0.42220   0.88189   0.60913   0.00000  Uiso   1.00
O1639  O     0.51692   0.76539   0.92423   0.00000  Uiso   1.00
C1640  C     0.47818   0.73878   0.92583   0.00000  Uiso   1.00
H1641  H     0.46818   0.74193   0.89912   0.00000  Uiso   1.00
H1642  H     0.45062   0.74693   0.95196   0.00000  Uiso   1.00
C1643  C     0.48599   0.69357   0.92503   0.00000  Uiso   1.00
H1644  H     0.51120   0.68479   0.89738   0.00000  Uiso   1.00
H1645  H     0.49755   0.69000   0.95072   0.00000  Uiso   1.00
C1646  C     0.44476   0.99755   0.92701   0.00000  Uiso   1.00
H1647  H     0.41993   0.67110   0.95549   0.00000  Uiso   1.00
H1648  H     0.45205   0.96508   0.92505   0.00000  Uiso   1.00
H1649  H     0.43177   0.66735   0.90207   0.00000  Uiso   1.00
Zn1650 Zn    0.85910   0.80756   0.78278   0.00000  Uiso   1.00
Zn1651 Zn    0.80125   0.79044   0.72258   0.00000  Uiso   1.00
Zn1652 Zn    0.87833   0.86331   0.71188   0.00000  Uiso   1.00
Zn1653 Zn    0.79465   0.87202   0.78277   0.00000  Uiso   1.00
O1654  O     0.83333   0.83333   0.75000   0.00000  Uiso   1.00
O1655  O     0.73656   0.85627   0.77820   0.00000  Uiso   1.00
O1656  O     0.92106   0.81944   0.76768   0.00000  Uiso   1.00
O1657  O     0.80467   0.73570   0.73607   0.00000  Uiso   1.00
O1658  O     0.87104   0.92193   0.71806   0.00000  Uiso   1.00
O1659  O     0.82360   0.79060   0.66625   0.00000  Uiso   1.00
O1660  O     0.79354   0.87313   0.83749   0.00000  Uiso   1.00
O1661  O     0.87755   0.84159   0.65877   0.00000  Uiso   1.00
O1662  O     0.83865   0.82802   0.83749   0.00000  Uiso   1.00
O1663  O     0.84515   0.74768   0.77821   0.00000  Uiso   1.00
O1664  O     0.81247   0.92803   0.76767   0.00000  Uiso   1.00
O1665  O     0.74119   0.79917   0.73607   0.00000  Uiso   1.00
O1666  O     0.93452   0.85845   0.71806   0.00000  Uiso   1.00
C1667  C     0.71906   0.82608   0.75940   0.00000  Uiso   1.00
C1668  C     0.94779   0.84104   0.74159   0.00000  Uiso   1.00
C1669  C     0.82340   0.72296   0.75864   0.00000  Uiso   1.00
C1670  C     0.84332   0.94433   0.74143   0.00000  Uiso   1.00
C1671  C     0.85566   0.81151   0.64392   0.00000  Uiso   1.00
C1672  C     0.81095   0.85344   0.85651   0.00000  Uiso   1.00
C1673  C     0.79673   0.85742   0.90042   0.00000  Uiso   1.00
C1674  C     0.86657   0.80174   0.60092   0.00000  Uiso   1.00
C1675  C     0.74895   0.88026   0.96428   0.00000  Uiso   1.00
C1676  C     0.75880   0.87549   0.92290   0.00000  Uiso   1.00
C1677  C     0.82074   0.84069   0.92030   0.00000  Uiso   1.00
C1678  C     0.80676   0.83940   0.96165   0.00000  Uiso   1.00
C1679  C     0.77274   0.86265   0.98366   0.00000  Uiso   1.00
C1680  C     0.82627   0.81643   0.98172   0.00000  Uiso   1.00
C1681  C     0.81835   0.82479   0.52360   0.00000  Uiso   1.00
C1682  C     0.78296   0.84764   0.54509   0.00000  Uiso   1.00
C1683  C     0.76106   0.86620   0.52484   0.00000  Uiso   1.00
C1684  C     0.85039   0.78283   0.96202   0.00000  Uiso   1.00
C1685  C     0.87227   0.76386   0.98180   0.00000  Uiso   1.00
C1686  C     0.87093   0.77674   0.52128   0.00000  Uiso   1.00
C1687  C     0.84486   0.80828   0.54221   0.00000  Uiso   1.00
C1688  C     0.89505   0.75789   0.54001   0.00000  Uiso   1.00
C1689  C     0.89259   0.76994   0.58033   0.00000  Uiso   1.00
C1690  C     0.84677   0.82271   0.58082   0.00000  Uiso   1.00
H1691  H     0.73366   0.88260   0.54160   0.00000  Uiso   1.00
H1692  H     0.83247   0.85023   0.59637   0.00000  Uiso   1.00
H1693  H     0.89030   0.73849   0.96569   0.00000  Uiso   1.00
H1694  H     0.72088   0.89550   0.98147   0.00000  Uiso   1.00
H1695  H     0.85083   0.82921   0.90312   0.00000  Uiso   1.00
C1696  C     0.99394   0.84607   0.73874   0.00000  Uiso   1.00
C1697  C     0.67415   0.82410   0.76120   0.00000  Uiso   1.00
H1698  H     0.98533   0.80220   0.78008   0.00000  Uiso   1.00
C1699  C     0.84487   0.98822   0.73721   0.00000  Uiso   1.00
H1700  H     0.86667   0.66702   0.71053   0.00000  Uiso   1.00
C1701  C     0.81899   0.67982   0.76448   0.00000  Uiso   1.00
O1702  O     0.91601   0.72375   0.51991   0.00000  Uiso   1.00
C1703  C     0.96152   0.73312   0.50979   0.00000  Uiso   1.00
H1704  H     0.97562   0.70360   0.99684   0.00000  Uiso   1.00
H1705  H     0.97311   0.74337   0.53618   0.00000  Uiso   1.00
C1706  C     0.97875   0.76467   0.97882   0.00000  Uiso   1.00
H1707  H     0.96719   0.75346   0.95235   0.00000  Uiso   1.00
H1708  H     0.96694   0.79529   0.99140   0.00000  Uiso   1.00
C1709  C     0.69469   0.77051   0.96588   0.00000  Uiso   1.00
H1710  H     0.70729   0.78216   0.99170   0.00000  Uiso   1.00
H1711  H     0.70625   0.79344   0.94364   0.00000  Uiso   1.00
H1712  H     0.70743   0.74057   0.95215   0.00000  Uiso   1.00
N1713  N     0.68991   0.87454   0.71265   0.00000  Uiso   1.00
O1714  O     0.67673   0.90799   0.70627   0.00000  Uiso   1.00
O1715  O     0.72882   0.86607   0.69325   0.00000  Uiso   1.00
N1716  N     0.79511   0.66824   0.80328   0.00000  Uiso   1.00
O1717  O     0.75703   0.68043   0.81981   0.00000  Uiso   1.00
O1718  O     0.81519   0.98878   0.82541   0.00000  Uiso   1.00
O1719  O     0.91419   0.74822   0.59830   0.00000  Uiso   1.00
C1720  C     0.94201   0.77409   0.61822   0.00000  Uiso   1.00
H1721  H     0.96308   0.75358   0.62443   0.00000  Uiso   1.00
H1722  H     0.92357   0.78621   0.64813   0.00000  Uiso   1.00
C1723  C     0.97249   0.80859   0.59452   0.00000  Uiso   1.00
H1724  H     0.66800   0.79521   0.57395   0.00000  Uiso   1.00
H1725  H     0.95686   0.82290   0.57655   0.00000  Uiso   1.00
C1726  C     0.98775   0.84345   0.62209   0.00000  Uiso   1.00
H1727  H     0.96009   0.85940   0.64138   0.00000  Uiso   1.00
H1728  H     0.67716   0.86683   0.60424   0.00000  Uiso   1.00
H1729  H     0.67070   0.83098   0.64075   0.00000  Uiso   1.00
N1730  N     0.72846   0.88645   0.90477   0.00000  Uiso   1.00
O1731  O     0.71254   0.85857   0.88146   0.00000  Uiso   1.00
O1732  O     0.70907   0.91972   0.91878   0.00000  Uiso   1.00
N1733  N     0.76424   0.84728   0.58699   0.00000  Uiso   1.00
O1734  O     0.75240   0.81215   0.60258   0.00000  Uiso   1.00
O1735  O     0.75553   0.88189   0.60913   0.00000  Uiso   1.00
O1736  O     0.85026   0.76539   0.92423   0.00000  Uiso   1.00
C1737  C     0.81151   0.73878   0.92583   0.00000  Uiso   1.00
H1738  H     0.80151   0.74193   0.89912   0.00000  Uiso   1.00
H1739  H     0.78396   0.74693   0.95196   0.00000  Uiso   1.00
C1740  C     0.81932   0.69357   0.92503   0.00000  Uiso   1.00
H1741  H     0.84454   0.68479   0.89738   0.00000  Uiso   1.00
H1742  H     0.83088   0.69000   0.95072   0.00000  Uiso   1.00
C1743  C     0.77809   0.99755   0.92701   0.00000  Uiso   1.00
H1744  H     0.75326   0.67110   0.95549   0.00000  Uiso   1.00
H1745  H     0.78539   0.96508   0.92505   0.00000  Uiso   1.00
H1746  H     0.76511   0.66735   0.90207   0.00000  Uiso   1.00
loop_
_geom_bond_atom_site_label_1
_geom_bond_atom_site_label_2
_geom_bond_distance
_geom_bond_site_symmetry_2
_ccdc_geom_bond_type
Zn1    O5      1.955   .     S
Zn1    O13     1.916   .     S
Zn1    O7      1.926   .     S
Zn1    O14     1.940   .     S
Zn2    O16     1.928   .     S
Zn2    O5      1.951   .     S
Zn2    O10     1.916   .     S
Zn2    O8      1.941   .     S
Zn3    O12     1.927   .     S
Zn3    O9      1.939   .     S
Zn3    O5      1.929   .     S
Zn3    O17     1.940   .     S
Zn4    O6      1.938   .     S
Zn4    O11     1.928   .     S
Zn4    O5      1.931   .     S
Zn4    O15     1.938   .     S
O6     C18     1.275   .     A
O7     C19     1.281   .     A
O8     C20     1.282   .     A
O9     C21     1.273   .     A
O10    C22     1.281   .     A
O11    C23     1.282   .     A
O12    C22     1.277   .     A
O13    C23     1.290   .     A
O14    C20     1.269   .     A
O15    C21     1.262   .     A
O16    C18     1.268   .     A
O17    C19     1.275   .     A
C18    C48     1.439   .     S
C19    C47     1.465   .     S
C20    C52     1.434   .     S
C21    C50     1.455   .     S
C22    C25     1.462   .     S
C23    C24     1.482   .     S
C24    C27     1.419   .     A
C24    C28     1.402   .     A
C25    C40     1.419   .     A
C25    C41     1.390   .     A
C26    C27     1.399   .     A
C26    H45     1.084   .     S
C26    C30     1.400   .     A
C27    N81     1.437   .     S
C28    H46     1.080   .     S
C28    C29     1.407   .     A
C29    C30     1.409   .     A
C29    C31     1.425   .     A
C30    C907    1.390   .     S
C31    C35     1.423   .     A
C31    C905    1.426   .     S
C32    C38     1.430   .     A
C32    C33     1.429   .     A
C32    C904    1.426   1_554 S
C33    C34     1.395   .     A
C33    N84     1.432   .     S
C34    H42     1.084   .     S
C34    C903    1.390   1_554 S
C35    C36     1.390   .     A
C35    O87     1.384   .     S
C36    H44     1.082   .     S
C36    C910    1.396   .     S
C37    C38     1.416   .     A
C37    C39     1.415   .     A
C37    C909    1.396   1_554 S
C38    C41     1.403   .     A
C39    O53     1.391   .     S
C39    C40     1.413   .     A
C40    O70     1.394   .     S
C41    H43     1.078   .     S
C47    C145    1.343   .     S
C47    N161    1.447   .     S
C48    C241    1.343   1_455 S
C48    H243    1.086   1_455 S
H49    C145    1.086   .     S
C50    H342    1.088   .     S
C50    C343    1.346   .     S
H51    C632    1.088   1_545 S
C52    N67     1.439   .     S
C52    C632    1.346   1_545 S
O53    C54     1.417   .     S
C54    H56     1.104   .     S
C54    H928    1.111   1_554 S
C54    C930    1.539   1_554 S
H55    C927    1.111   .     S
C57    H59     1.111   .     S
C57    H58     1.111   .     S
C57    C927    1.539   .     S
C57    C157    1.526   .     S
C60    H63     1.111   .     S
C60    H62     1.110   .     S
C60    H61     1.111   .     S
C60    C251    1.526   1_455 S
N64    O66     1.301   .     A
N64    O65     1.301   .     A
N64    C241    1.447   1_455 S
N67    O68     1.301   .     A
N67    O651    1.302   1_545 S
O69    N358    1.302   .     S
O70    C71     1.425   .     S
C71    H73     1.105   .     S
C71    C74     1.553   .     S
C71    H72     1.111   .     S
C74    H76     1.109   .     S
C74    C77     1.523   .     S
C74    H172    1.111   .     S
H75    C268    1.111   1_455 S
C77    H78     1.107   .     S
C77    H176    1.108   .     S
C77    H177    1.110   .     S
H79    C271    1.108   1_455 S
H80    C271    1.110   1_455 S
N81    O82     1.301   .     A
N81    O83     1.301   .     A
N84    O86     1.301   .     A
N84    O85     1.302   .     A
O87    C88     1.417   .     S
C88    C91     1.530   .     S
C88    H90     1.117   .     S
C88    H89     1.111   .     S
C91    H93     1.110   .     S
C91    H92     1.112   .     S
C91    C676    1.524   1_545 S
C94    H96     1.109   .     S
C94    C382    1.524   .     S
C94    H386    1.111   .     S
C94    H388    1.110   .     S
H95    C676    1.111   1_545 S
H97    C676    1.110   1_545 S
Zn98   O102    1.955   .     S
Zn98   O110    1.916   .     S
Zn98   O104    1.926   .     S
Zn98   O111    1.940   .     S
Zn99   O113    1.928   .     S
Zn99   O102    1.951   .     S
Zn99   O107    1.916   .     S
Zn99   O105    1.941   .     S
Zn100  O109    1.927   .     S
Zn100  O106    1.939   .     S
Zn100  O102    1.929   .     S
Zn100  O114    1.940   .     S
Zn101  O103    1.938   .     S
Zn101  O108    1.928   .     S
Zn101  O102    1.931   .     S
Zn101  O112    1.938   .     S
O103   C115    1.275   .     A
O104   C116    1.281   .     A
O105   C117    1.282   .     A
O106   C118    1.273   .     A
O107   C119    1.281   .     A
O108   C120    1.282   .     A
O109   C119    1.277   .     A
O110   C120    1.290   .     A
O111   C117    1.269   .     A
O112   C118    1.262   .     A
O113   C115    1.268   .     A
O114   C116    1.275   .     A
C115   C145    1.439   .     S
C116   C144    1.465   .     S
C117   C149    1.434   .     S
C118   C147    1.455   .     S
C119   C122    1.462   .     S
C120   C121    1.482   .     S
C121   C124    1.419   .     A
C121   C125    1.402   .     A
C122   C137    1.419   .     A
C122   C138    1.390   .     A
C123   C124    1.399   .     A
C123   H142    1.084   .     S
C123   C127    1.400   .     A
C124   N178    1.437   .     S
C125   H143    1.080   .     S
C125   C126    1.407   .     A
C126   C127    1.409   .     A
C126   C128    1.425   .     A
C127   C1004   1.390   .     S
C128   C132    1.423   .     A
C128   C1002   1.426   .     S
C129   C135    1.430   .     A
C129   C130    1.429   .     A
C129   C1001   1.426   1_554 S
C130   C131    1.395   .     A
C130   N181    1.432   .     S
C131   H139    1.084   .     S
C131   C1000   1.390   1_554 S
C132   C133    1.390   .     A
C132   O184    1.384   .     S
C133   H141    1.082   .     S
C133   C1007   1.396   .     S
C134   C135    1.416   .     A
C134   C136    1.415   .     A
C134   C1006   1.396   1_554 S
C135   C138    1.403   .     A
C136   O150    1.391   .     S
C136   C137    1.413   .     A
C137   O167    1.394   .     S
C138   H140    1.078   .     S
C144   C242    1.343   .     S
C144   N258    1.447   .     S
H146   C242    1.086   .     S
C147   H439    1.088   .     S
C147   C440    1.346   .     S
H148   C729    1.088   1_545 S
C149   N164    1.439   .     S
C149   C729    1.346   1_545 S
O150   C151    1.417   .     S
C151   H153    1.104   .     S
C151   H1025   1.111   1_554 S
C151   C1027   1.539   1_554 S
H152   C1024   1.111   .     S
C154   H156    1.111   .     S
C154   H155    1.111   .     S
C154   C1024   1.539   .     S
C154   C254    1.526   .     S
C157   H160    1.111   .     S
C157   H159    1.110   .     S
C157   H158    1.111   .     S
N161   O163    1.301   .     A
N161   O162    1.301   .     A
N164   O165    1.301   .     A
N164   O748    1.302   1_545 S
O166   N455    1.302   .     S
O167   C168    1.425   .     S
C168   H170    1.105   .     S
C168   C171    1.553   .     S
C168   H169    1.111   .     S
C171   H173    1.109   .     S
C171   C174    1.523   .     S
C171   H269    1.111   .     S
C174   H175    1.107   .     S
C174   H273    1.108   .     S
C174   H274    1.110   .     S
N178   O179    1.301   .     A
N178   O180    1.301   .     A
N181   O183    1.301   .     A
N181   O182    1.302   .     A
O184   C185    1.417   .     S
C185   C188    1.530   .     S
C185   H187    1.117   .     S
C185   H186    1.111   .     S
C188   H190    1.110   .     S
C188   H189    1.112   .     S
C188   C773    1.524   1_545 S
C191   H193    1.109   .     S
C191   C479    1.524   .     S
C191   H483    1.111   .     S
C191   H485    1.110   .     S
H192   C773    1.111   1_545 S
H194   C773    1.110   1_545 S
Zn195  O199    1.955   .     S
Zn195  O207    1.916   .     S
Zn195  O201    1.926   .     S
Zn195  O208    1.940   .     S
Zn196  O210    1.928   .     S
Zn196  O199    1.951   .     S
Zn196  O204    1.916   .     S
Zn196  O202    1.941   .     S
Zn197  O206    1.927   .     S
Zn197  O203    1.939   .     S
Zn197  O199    1.929   .     S
Zn197  O211    1.940   .     S
Zn198  O200    1.938   .     S
Zn198  O205    1.928   .     S
Zn198  O199    1.931   .     S
Zn198  O209    1.938   .     S
O200   C212    1.275   .     A
O201   C213    1.281   .     A
O202   C214    1.282   .     A
O203   C215    1.273   .     A
O204   C216    1.281   .     A
O205   C217    1.282   .     A
O206   C216    1.277   .     A
O207   C217    1.290   .     A
O208   C214    1.269   .     A
O209   C215    1.262   .     A
O210   C212    1.268   .     A
O211   C213    1.275   .     A
C212   C242    1.439   .     S
C213   C241    1.465   .     S
C214   C246    1.434   .     S
C215   C244    1.455   .     S
C216   C219    1.462   .     S
C217   C218    1.482   .     S
C218   C221    1.419   .     A
C218   C222    1.402   .     A
C219   C234    1.419   .     A
C219   C235    1.390   .     A
C220   C221    1.399   .     A
C220   H239    1.084   .     S
C220   C224    1.400   .     A
C221   N275    1.437   .     S
C222   H240    1.080   .     S
C222   C223    1.407   .     A
C223   C224    1.409   .     A
C223   C225    1.425   .     A
C224   C1101   1.390   .     S
C225   C229    1.423   .     A
C225   C1099   1.426   .     S
C226   C232    1.430   .     A
C226   C227    1.429   .     A
C226   C1098   1.426   1_554 S
C227   C228    1.395   .     A
C227   N278    1.432   .     S
C228   H236    1.084   .     S
C228   C1097   1.390   1_554 S
C229   C230    1.390   .     A
C229   O281    1.384   .     S
C230   H238    1.082   .     S
C230   C1104   1.396   .     S
C231   C232    1.416   .     A
C231   C233    1.415   .     A
C231   C1103   1.396   1_554 S
C232   C235    1.403   .     A
C233   O247    1.391   .     S
C233   C234    1.413   .     A
C234   O264    1.394   .     S
C235   H237    1.078   .     S
C241   C48     1.343   1_655 S
C241   N64     1.447   1_655 S
H243   C48     1.086   1_655 S
C244   H536    1.088   .     S
C244   C537    1.346   .     S
H245   C826    1.088   1_545 S
C246   N261    1.439   .     S
C246   C826    1.346   1_545 S
O247   C248    1.417   .     S
C248   H250    1.104   .     S
C248   H1122   1.111   1_554 S
C248   C1124   1.539   1_554 S
H249   C1121   1.111   .     S
C251   H253    1.111   .     S
C251   H252    1.111   .     S
C251   C1121   1.539   .     S
C251   C60     1.526   1_655 S
C254   H257    1.111   .     S
C254   H256    1.110   .     S
C254   H255    1.111   .     S
N258   O260    1.301   .     A
N258   O259    1.301   .     A
N261   O262    1.301   .     A
N261   O845    1.302   1_545 S
O263   N552    1.302   .     S
O264   C265    1.425   .     S
C265   H267    1.105   .     S
C265   C268    1.553   .     S
C265   H266    1.111   .     S
C268   H270    1.109   .     S
C268   C271    1.523   .     S
C268   H75     1.111   1_655 S
C271   H272    1.107   .     S
C271   H79     1.108   1_655 S
C271   H80     1.110   1_655 S
N275   O276    1.301   .     A
N275   O277    1.301   .     A
N278   O280    1.301   .     A
N278   O279    1.302   .     A
O281   C282    1.417   .     S
C282   C285    1.530   .     S
C282   H284    1.117   .     S
C282   H283    1.111   .     S
C285   H287    1.110   .     S
C285   H286    1.112   .     S
C285   C870    1.524   1_545 S
C288   H290    1.109   .     S
C288   C576    1.524   .     S
C288   H580    1.111   .     S
C288   H582    1.110   .     S
H289   C870    1.111   1_545 S
H291   C870    1.110   1_545 S
Zn292  O296    1.955   .     S
Zn292  O304    1.916   .     S
Zn292  O298    1.926   .     S
Zn292  O305    1.940   .     S
Zn293  O307    1.928   .     S
Zn293  O296    1.951   .     S
Zn293  O301    1.916   .     S
Zn293  O299    1.941   .     S
Zn294  O303    1.927   .     S
Zn294  O300    1.939   .     S
Zn294  O296    1.929   .     S
Zn294  O308    1.940   .     S
Zn295  O297    1.938   .     S
Zn295  O302    1.928   .     S
Zn295  O296    1.931   .     S
Zn295  O306    1.938   .     S
O297   C309    1.275   .     A
O298   C310    1.281   .     A
O299   C311    1.282   .     A
O300   C312    1.273   .     A
O301   C313    1.281   .     A
O302   C314    1.282   .     A
O303   C313    1.277   .     A
O304   C314    1.290   .     A
O305   C311    1.269   .     A
O306   C312    1.262   .     A
O307   C309    1.268   .     A
O308   C310    1.275   .     A
C309   C339    1.439   .     S
C310   C338    1.465   .     S
C311   C343    1.434   .     S
C312   C341    1.455   .     S
C313   C316    1.462   .     S
C314   C315    1.482   .     S
C315   C318    1.419   .     A
C315   C319    1.402   .     A
C316   C331    1.419   .     A
C316   C332    1.390   .     A
C317   C318    1.399   .     A
C317   H336    1.084   .     S
C317   C321    1.400   .     A
C318   N372    1.437   .     S
C319   H337    1.080   .     S
C319   C320    1.407   .     A
C320   C321    1.409   .     A
C320   C322    1.425   .     A
C321   C1198   1.390   .     S
C322   C326    1.423   .     A
C322   C1196   1.426   .     S
C323   C329    1.430   .     A
C323   C324    1.429   .     A
C323   C1195   1.426   1_554 S
C324   C325    1.395   .     A
C324   N375    1.432   .     S
C325   H333    1.084   .     S
C325   C1194   1.390   1_554 S
C326   C327    1.390   .     A
C326   O378    1.384   .     S
C327   H335    1.082   .     S
C327   C1201   1.396   .     S
C328   C329    1.416   .     A
C328   C330    1.415   .     A
C328   C1200   1.396   1_554 S
C329   C332    1.403   .     A
C330   O344    1.391   .     S
C330   C331    1.413   .     A
C331   O361    1.394   .     S
C332   H334    1.078   .     S
C338   C436    1.343   .     S
C338   N452    1.447   .     S
C339   C532    1.343   1_455 S
C339   H534    1.086   1_455 S
H340   C436    1.086   .     S
C341   H633    1.088   .     S
C341   C634    1.346   .     S
C343   N358    1.439   .     S
O344   C345    1.417   .     S
C345   H347    1.104   .     S
C345   H1219   1.111   1_554 S
C345   C1221   1.539   1_554 S
H346   C1218   1.111   .     S
C348   H350    1.111   .     S
C348   H349    1.111   .     S
C348   C1218   1.539   .     S
C348   C448    1.526   .     S
C351   H354    1.111   .     S
C351   H353    1.110   .     S
C351   H352    1.111   .     S
C351   C542    1.526   1_455 S
N355   O357    1.301   .     A
N355   O356    1.301   .     A
N355   C532    1.447   1_455 S
N358   O359    1.301   .     A
O360   N649    1.302   .     S
O361   C362    1.425   .     S
C362   H364    1.105   .     S
C362   C365    1.553   .     S
C362   H363    1.111   .     S
C365   H367    1.109   .     S
C365   C368    1.523   .     S
C365   H463    1.111   .     S
H366   C559    1.111   1_455 S
C368   H369    1.107   .     S
C368   H467    1.108   .     S
C368   H468    1.110   .     S
H370   C562    1.108   1_455 S
H371   C562    1.110   1_455 S
N372   O373    1.301   .     A
N372   O374    1.301   .     A
N375   O377    1.301   .     A
N375   O376    1.302   .     A
O378   C379    1.417   .     S
C379   C382    1.530   .     S
C379   H381    1.117   .     S
C379   H380    1.111   .     S
C382   H384    1.110   .     S
C382   H383    1.112   .     S
C385   H387    1.109   .     S
C385   C673    1.524   .     S
C385   H677    1.111   .     S
C385   H679    1.110   .     S
Zn389  O393    1.955   .     S
Zn389  O401    1.916   .     S
Zn389  O395    1.926   .     S
Zn389  O402    1.940   .     S
Zn390  O404    1.928   .     S
Zn390  O393    1.951   .     S
Zn390  O398    1.916   .     S
Zn390  O396    1.941   .     S
Zn391  O400    1.927   .     S
Zn391  O397    1.939   .     S
Zn391  O393    1.929   .     S
Zn391  O405    1.940   .     S
Zn392  O394    1.938   .     S
Zn392  O399    1.928   .     S
Zn392  O393    1.931   .     S
Zn392  O403    1.938   .     S
O394   C406    1.275   .     A
O395   C407    1.281   .     A
O396   C408    1.282   .     A
O397   C409    1.273   .     A
O398   C410    1.281   .     A
O399   C411    1.282   .     A
O400   C410    1.277   .     A
O401   C411    1.290   .     A
O402   C408    1.269   .     A
O403   C409    1.262   .     A
O404   C406    1.268   .     A
O405   C407    1.275   .     A
C406   C436    1.439   .     S
C407   C435    1.465   .     S
C408   C440    1.434   .     S
C409   C438    1.455   .     S
C410   C413    1.462   .     S
C411   C412    1.482   .     S
C412   C415    1.419   .     A
C412   C416    1.402   .     A
C413   C428    1.419   .     A
C413   C429    1.390   .     A
C414   C415    1.399   .     A
C414   H433    1.084   .     S
C414   C418    1.400   .     A
C415   N469    1.437   .     S
C416   H434    1.080   .     S
C416   C417    1.407   .     A
C417   C418    1.409   .     A
C417   C419    1.425   .     A
C418   C1295   1.390   .     S
C419   C423    1.423   .     A
C419   C1293   1.426   .     S
C420   C426    1.430   .     A
C420   C421    1.429   .     A
C420   C1292   1.426   1_554 S
C421   C422    1.395   .     A
C421   N472    1.432   .     S
C422   H430    1.084   .     S
C422   C1291   1.390   1_554 S
C423   C424    1.390   .     A
C423   O475    1.384   .     S
C424   H432    1.082   .     S
C424   C1298   1.396   .     S
C425   C426    1.416   .     A
C425   C427    1.415   .     A
C425   C1297   1.396   1_554 S
C426   C429    1.403   .     A
C427   O441    1.391   .     S
C427   C428    1.413   .     A
C428   O458    1.394   .     S
C429   H431    1.078   .     S
C435   C533    1.343   .     S
C435   N549    1.447   .     S
H437   C533    1.086   .     S
C438   H730    1.088   .     S
C438   C731    1.346   .     S
C440   N455    1.439   .     S
O441   C442    1.417   .     S
C442   H444    1.104   .     S
C442   H1316   1.111   1_554 S
C442   C1318   1.539   1_554 S
H443   C1315   1.111   .     S
C445   H447    1.111   .     S
C445   H446    1.111   .     S
C445   C1315   1.539   .     S
C445   C545    1.526   .     S
C448   H451    1.111   .     S
C448   H450    1.110   .     S
C448   H449    1.111   .     S
N452   O454    1.301   .     A
N452   O453    1.301   .     A
N455   O456    1.301   .     A
O457   N746    1.302   .     S
O458   C459    1.425   .     S
C459   H461    1.105   .     S
C459   C462    1.553   .     S
C459   H460    1.111   .     S
C462   H464    1.109   .     S
C462   C465    1.523   .     S
C462   H560    1.111   .     S
C465   H466    1.107   .     S
C465   H564    1.108   .     S
C465   H565    1.110   .     S
N469   O470    1.301   .     A
N469   O471    1.301   .     A
N472   O474    1.301   .     A
N472   O473    1.302   .     A
O475   C476    1.417   .     S
C476   C479    1.530   .     S
C476   H478    1.117   .     S
C476   H477    1.111   .     S
C479   H481    1.110   .     S
C479   H480    1.112   .     S
C482   H484    1.109   .     S
C482   C770    1.524   .     S
C482   H774    1.111   .     S
C482   H776    1.110   .     S
Zn486  O490    1.955   .     S
Zn486  O498    1.916   .     S
Zn486  O492    1.926   .     S
Zn486  O499    1.940   .     S
Zn487  O501    1.928   .     S
Zn487  O490    1.951   .     S
Zn487  O495    1.916   .     S
Zn487  O493    1.941   .     S
Zn488  O497    1.927   .     S
Zn488  O494    1.939   .     S
Zn488  O490    1.929   .     S
Zn488  O502    1.940   .     S
Zn489  O491    1.938   .     S
Zn489  O496    1.928   .     S
Zn489  O490    1.931   .     S
Zn489  O500    1.938   .     S
O491   C503    1.275   .     A
O492   C504    1.281   .     A
O493   C505    1.282   .     A
O494   C506    1.273   .     A
O495   C507    1.281   .     A
O496   C508    1.282   .     A
O497   C507    1.277   .     A
O498   C508    1.290   .     A
O499   C505    1.269   .     A
O500   C506    1.262   .     A
O501   C503    1.268   .     A
O502   C504    1.275   .     A
C503   C533    1.439   .     S
C504   C532    1.465   .     S
C505   C537    1.434   .     S
C506   C535    1.455   .     S
C507   C510    1.462   .     S
C508   C509    1.482   .     S
C509   C512    1.419   .     A
C509   C513    1.402   .     A
C510   C525    1.419   .     A
C510   C526    1.390   .     A
C511   C512    1.399   .     A
C511   H530    1.084   .     S
C511   C515    1.400   .     A
C512   N566    1.437   .     S
C513   H531    1.080   .     S
C513   C514    1.407   .     A
C514   C515    1.409   .     A
C514   C516    1.425   .     A
C515   C1392   1.390   .     S
C516   C520    1.423   .     A
C516   C1390   1.426   .     S
C517   C523    1.430   .     A
C517   C518    1.429   .     A
C517   C1389   1.426   1_554 S
C518   C519    1.395   .     A
C518   N569    1.432   .     S
C519   H527    1.084   .     S
C519   C1388   1.390   1_554 S
C520   C521    1.390   .     A
C520   O572    1.384   .     S
C521   H529    1.082   .     S
C521   C1395   1.396   .     S
C522   C523    1.416   .     A
C522   C524    1.415   .     A
C522   C1394   1.396   1_554 S
C523   C526    1.403   .     A
C524   O538    1.391   .     S
C524   C525    1.413   .     A
C525   O555    1.394   .     S
C526   H528    1.078   .     S
C532   C339    1.343   1_655 S
C532   N355    1.447   1_655 S
H534   C339    1.086   1_655 S
C535   H827    1.088   .     S
C535   C828    1.346   .     S
C537   N552    1.439   .     S
O538   C539    1.417   .     S
C539   H541    1.104   .     S
C539   H1413   1.111   1_554 S
C539   C1415   1.539   1_554 S
H540   C1412   1.111   .     S
C542   H544    1.111   .     S
C542   H543    1.111   .     S
C542   C1412   1.539   .     S
C542   C351    1.526   1_655 S
C545   H548    1.111   .     S
C545   H547    1.110   .     S
C545   H546    1.111   .     S
N549   O551    1.301   .     A
N549   O550    1.301   .     A
N552   O553    1.301   .     A
O554   N843    1.302   .     S
O555   C556    1.425   .     S
C556   H558    1.105   .     S
C556   C559    1.553   .     S
C556   H557    1.111   .     S
C559   H561    1.109   .     S
C559   C562    1.523   .     S
C559   H366    1.111   1_655 S
C562   H563    1.107   .     S
C562   H370    1.108   1_655 S
C562   H371    1.110   1_655 S
N566   O567    1.301   .     A
N566   O568    1.301   .     A
N569   O571    1.301   .     A
N569   O570    1.302   .     A
O572   C573    1.417   .     S
C573   C576    1.530   .     S
C573   H575    1.117   .     S
C573   H574    1.111   .     S
C576   H578    1.110   .     S
C576   H577    1.112   .     S
C579   H581    1.109   .     S
C579   C867    1.524   .     S
C579   H871    1.111   .     S
C579   H873    1.110   .     S
Zn583  O587    1.955   .     S
Zn583  O595    1.916   .     S
Zn583  O589    1.926   .     S
Zn583  O596    1.940   .     S
Zn584  O598    1.928   .     S
Zn584  O587    1.951   .     S
Zn584  O592    1.916   .     S
Zn584  O590    1.941   .     S
Zn585  O594    1.927   .     S
Zn585  O591    1.939   .     S
Zn585  O587    1.929   .     S
Zn585  O599    1.940   .     S
Zn586  O588    1.938   .     S
Zn586  O593    1.928   .     S
Zn586  O587    1.931   .     S
Zn586  O597    1.938   .     S
O588   C600    1.275   .     A
O589   C601    1.281   .     A
O590   C602    1.282   .     A
O591   C603    1.273   .     A
O592   C604    1.281   .     A
O593   C605    1.282   .     A
O594   C604    1.277   .     A
O595   C605    1.290   .     A
O596   C602    1.269   .     A
O597   C603    1.262   .     A
O598   C600    1.268   .     A
O599   C601    1.275   .     A
C600   C630    1.439   .     S
C601   C629    1.465   .     S
C602   C634    1.434   .     S
C603   C632    1.455   .     S
C604   C607    1.462   .     S
C605   C606    1.482   .     S
C606   C609    1.419   .     A
C606   C610    1.402   .     A
C607   C622    1.419   .     A
C607   C623    1.390   .     A
C608   C609    1.399   .     A
C608   H627    1.084   .     S
C608   C612    1.400   .     A
C609   N663    1.437   .     S
C610   H628    1.080   .     S
C610   C611    1.407   .     A
C611   C612    1.409   .     A
C611   C613    1.425   .     A
C612   C1489   1.390   .     S
C613   C617    1.423   .     A
C613   C1487   1.426   .     S
C614   C620    1.430   .     A
C614   C615    1.429   .     A
C614   C1486   1.426   1_554 S
C615   C616    1.395   .     A
C615   N666    1.432   .     S
C616   H624    1.084   .     S
C616   C1485   1.390   1_554 S
C617   C618    1.390   .     A
C617   O669    1.384   .     S
C618   H626    1.082   .     S
C618   C1492   1.396   .     S
C619   C620    1.416   .     A
C619   C621    1.415   .     A
C619   C1491   1.396   1_554 S
C620   C623    1.403   .     A
C621   O635    1.391   .     S
C621   C622    1.413   .     A
C622   O652    1.394   .     S
C623   H625    1.078   .     S
C629   C727    1.343   .     S
C629   N743    1.447   .     S
C630   C823    1.343   1_455 S
C630   H825    1.086   1_455 S
H631   C727    1.086   .     S
C632   H51     1.088   1_565 S
C632   C52     1.346   1_565 S
C634   N649    1.439   .     S
O635   C636    1.417   .     S
C636   H638    1.104   .     S
C636   H1510   1.111   1_554 S
C636   C1512   1.539   1_554 S
H637   C1509   1.111   .     S
C639   H641    1.111   .     S
C639   H640    1.111   .     S
C639   C1509   1.539   .     S
C639   C739    1.526   .     S
C642   H645    1.111   .     S
C642   H644    1.110   .     S
C642   H643    1.111   .     S
C642   C833    1.526   1_455 S
N646   O648    1.301   .     A
N646   O647    1.301   .     A
N646   C823    1.447   1_455 S
N649   O650    1.301   .     A
O651   N67     1.302   1_565 S
O652   C653    1.425   .     S
C653   H655    1.105   .     S
C653   C656    1.553   .     S
C653   H654    1.111   .     S
C656   H658    1.109   .     S
C656   C659    1.523   .     S
C656   H754    1.111   .     S
H657   C850    1.111   1_455 S
C659   H660    1.107   .     S
C659   H758    1.108   .     S
C659   H759    1.110   .     S
H661   C853    1.108   1_455 S
H662   C853    1.110   1_455 S
N663   O664    1.301   .     A
N663   O665    1.301   .     A
N666   O668    1.301   .     A
N666   O667    1.302   .     A
O669   C670    1.417   .     S
C670   C673    1.530   .     S
C670   H672    1.117   .     S
C670   H671    1.111   .     S
C673   H675    1.110   .     S
C673   H674    1.112   .     S
C676   H678    1.109   .     S
C676   C91     1.524   1_565 S
C676   H95     1.111   1_565 S
C676   H97     1.110   1_565 S
Zn680  O684    1.955   .     S
Zn680  O692    1.916   .     S
Zn680  O686    1.926   .     S
Zn680  O693    1.940   .     S
Zn681  O695    1.928   .     S
Zn681  O684    1.951   .     S
Zn681  O689    1.916   .     S
Zn681  O687    1.941   .     S
Zn682  O691    1.927   .     S
Zn682  O688    1.939   .     S
Zn682  O684    1.929   .     S
Zn682  O696    1.940   .     S
Zn683  O685    1.938   .     S
Zn683  O690    1.928   .     S
Zn683  O684    1.931   .     S
Zn683  O694    1.938   .     S
O685   C697    1.275   .     A
O686   C698    1.281   .     A
O687   C699    1.282   .     A
O688   C700    1.273   .     A
O689   C701    1.281   .     A
O690   C702    1.282   .     A
O691   C701    1.277   .     A
O692   C702    1.290   .     A
O693   C699    1.269   .     A
O694   C700    1.262   .     A
O695   C697    1.268   .     A
O696   C698    1.275   .     A
C697   C727    1.439   .     S
C698   C726    1.465   .     S
C699   C731    1.434   .     S
C700   C729    1.455   .     S
C701   C704    1.462   .     S
C702   C703    1.482   .     S
C703   C706    1.419   .     A
C703   C707    1.402   .     A
C704   C719    1.419   .     A
C704   C720    1.390   .     A
C705   C706    1.399   .     A
C705   H724    1.084   .     S
C705   C709    1.400   .     A
C706   N760    1.437   .     S
C707   H725    1.080   .     S
C707   C708    1.407   .     A
C708   C709    1.409   .     A
C708   C710    1.425   .     A
C709   C1586   1.390   .     S
C710   C714    1.423   .     A
C710   C1584   1.426   .     S
C711   C717    1.430   .     A
C711   C712    1.429   .     A
C711   C1583   1.426   1_554 S
C712   C713    1.395   .     A
C712   N763    1.432   .     S
C713   H721    1.084   .     S
C713   C1582   1.390   1_554 S
C714   C715    1.390   .     A
C714   O766    1.384   .     S
C715   H723    1.082   .     S
C715   C1589   1.396   .     S
C716   C717    1.416   .     A
C716   C718    1.415   .     A
C716   C1588   1.396   1_554 S
C717   C720    1.403   .     A
C718   O732    1.391   .     S
C718   C719    1.413   .     A
C719   O749    1.394   .     S
C720   H722    1.078   .     S
C726   C824    1.343   .     S
C726   N840    1.447   .     S
H728   C824    1.086   .     S
C729   H148    1.088   1_565 S
C729   C149    1.346   1_565 S
C731   N746    1.439   .     S
O732   C733    1.417   .     S
C733   H735    1.104   .     S
C733   H1607   1.111   1_554 S
C733   C1609   1.539   1_554 S
H734   C1606   1.111   .     S
C736   H738    1.111   .     S
C736   H737    1.111   .     S
C736   C1606   1.539   .     S
C736   C836    1.526   .     S
C739   H742    1.111   .     S
C739   H741    1.110   .     S
C739   H740    1.111   .     S
N743   O745    1.301   .     A
N743   O744    1.301   .     A
N746   O747    1.301   .     A
O748   N164    1.302   1_565 S
O749   C750    1.425   .     S
C750   H752    1.105   .     S
C750   C753    1.553   .     S
C750   H751    1.111   .     S
C753   H755    1.109   .     S
C753   C756    1.523   .     S
C753   H851    1.111   .     S
C756   H757    1.107   .     S
C756   H855    1.108   .     S
C756   H856    1.110   .     S
N760   O761    1.301   .     A
N760   O762    1.301   .     A
N763   O765    1.301   .     A
N763   O764    1.302   .     A
O766   C767    1.417   .     S
C767   C770    1.530   .     S
C767   H769    1.117   .     S
C767   H768    1.111   .     S
C770   H772    1.110   .     S
C770   H771    1.112   .     S
C773   H775    1.109   .     S
C773   C188    1.524   1_565 S
C773   H192    1.111   1_565 S
C773   H194    1.110   1_565 S
Zn777  O781    1.955   .     S
Zn777  O789    1.916   .     S
Zn777  O783    1.926   .     S
Zn777  O790    1.940   .     S
Zn778  O792    1.928   .     S
Zn778  O781    1.951   .     S
Zn778  O786    1.916   .     S
Zn778  O784    1.941   .     S
Zn779  O788    1.927   .     S
Zn779  O785    1.939   .     S
Zn779  O781    1.929   .     S
Zn779  O793    1.940   .     S
Zn780  O782    1.938   .     S
Zn780  O787    1.928   .     S
Zn780  O781    1.931   .     S
Zn780  O791    1.938   .     S
O782   C794    1.275   .     A
O783   C795    1.281   .     A
O784   C796    1.282   .     A
O785   C797    1.273   .     A
O786   C798    1.281   .     A
O787   C799    1.282   .     A
O788   C798    1.277   .     A
O789   C799    1.290   .     A
O790   C796    1.269   .     A
O791   C797    1.262   .     A
O792   C794    1.268   .     A
O793   C795    1.275   .     A
C794   C824    1.439   .     S
C795   C823    1.465   .     S
C796   C828    1.434   .     S
C797   C826    1.455   .     S
C798   C801    1.462   .     S
C799   C800    1.482   .     S
C800   C803    1.419   .     A
C800   C804    1.402   .     A
C801   C816    1.419   .     A
C801   C817    1.390   .     A
C802   C803    1.399   .     A
C802   H821    1.084   .     S
C802   C806    1.400   .     A
C803   N857    1.437   .     S
C804   H822    1.080   .     S
C804   C805    1.407   .     A
C805   C806    1.409   .     A
C805   C807    1.425   .     A
C806   C1683   1.390   .     S
C807   C811    1.423   .     A
C807   C1681   1.426   .     S
C808   C814    1.430   .     A
C808   C809    1.429   .     A
C808   C1680   1.426   1_554 S
C809   C810    1.395   .     A
C809   N860    1.432   .     S
C810   H818    1.084   .     S
C810   C1679   1.390   1_554 S
C811   C812    1.390   .     A
C811   O863    1.384   .     S
C812   H820    1.082   .     S
C812   C1686   1.396   .     S
C813   C814    1.416   .     A
C813   C815    1.415   .     A
C813   C1685   1.396   1_554 S
C814   C817    1.403   .     A
C815   O829    1.391   .     S
C815   C816    1.413   .     A
C816   O846    1.394   .     S
C817   H819    1.078   .     S
C823   C630    1.343   1_655 S
C823   N646    1.447   1_655 S
H825   C630    1.086   1_655 S
C826   H245    1.088   1_565 S
C826   C246    1.346   1_565 S
C828   N843    1.439   .     S
O829   C830    1.417   .     S
C830   H832    1.104   .     S
C830   H1704   1.111   1_554 S
C830   C1706   1.539   1_554 S
H831   C1703   1.111   .     S
C833   H835    1.111   .     S
C833   H834    1.111   .     S
C833   C1703   1.539   .     S
C833   C642    1.526   1_655 S
C836   H839    1.111   .     S
C836   H838    1.110   .     S
C836   H837    1.111   .     S
N840   O842    1.301   .     A
N840   O841    1.301   .     A
N843   O844    1.301   .     A
O845   N261    1.302   1_565 S
O846   C847    1.425   .     S
C847   H849    1.105   .     S
C847   C850    1.553   .     S
C847   H848    1.111   .     S
C850   H852    1.109   .     S
C850   C853    1.523   .     S
C850   H657    1.111   1_655 S
C853   H854    1.107   .     S
C853   H661    1.108   1_655 S
C853   H662    1.110   1_655 S
N857   O858    1.301   .     A
N857   O859    1.301   .     A
N860   O862    1.301   .     A
N860   O861    1.302   .     A
O863   C864    1.417   .     S
C864   C867    1.530   .     S
C864   H866    1.117   .     S
C864   H865    1.111   .     S
C867   H869    1.110   .     S
C867   H868    1.112   .     S
C870   H872    1.109   .     S
C870   C285    1.524   1_565 S
C870   H289    1.111   1_565 S
C870   H291    1.110   1_565 S
Zn874  O878    1.955   .     S
Zn874  O886    1.916   .     S
Zn874  O880    1.926   .     S
Zn874  O887    1.940   .     S
Zn875  O889    1.928   .     S
Zn875  O878    1.951   .     S
Zn875  O883    1.916   .     S
Zn875  O881    1.941   .     S
Zn876  O885    1.927   .     S
Zn876  O882    1.939   .     S
Zn876  O878    1.929   .     S
Zn876  O890    1.940   .     S
Zn877  O879    1.938   .     S
Zn877  O884    1.928   .     S
Zn877  O878    1.931   .     S
Zn877  O888    1.938   .     S
O879   C891    1.275   .     A
O880   C892    1.281   .     A
O881   C893    1.282   .     A
O882   C894    1.273   .     A
O883   C895    1.281   .     A
O884   C896    1.282   .     A
O885   C895    1.277   .     A
O886   C896    1.290   .     A
O887   C893    1.269   .     A
O888   C894    1.262   .     A
O889   C891    1.268   .     A
O890   C892    1.275   .     A
C891   C921    1.439   .     S
C892   C920    1.465   .     S
C893   C925    1.434   .     S
C894   C923    1.455   .     S
C895   C898    1.462   .     S
C896   C897    1.482   .     S
C897   C900    1.419   .     A
C897   C901    1.402   .     A
C898   C913    1.419   .     A
C898   C914    1.390   .     A
C899   C900    1.399   .     A
C899   H918    1.084   .     S
C899   C903    1.400   .     A
C900   N954    1.437   .     S
C901   H919    1.080   .     S
C901   C902    1.407   .     A
C902   C903    1.409   .     A
C902   C904    1.425   .     A
C903   C34     1.390   1_556 S
C904   C908    1.423   .     A
C904   C32     1.426   1_556 S
C905   C911    1.430   .     A
C905   C906    1.429   .     A
C906   C907    1.395   .     A
C906   N957    1.432   .     S
C907   H915    1.084   .     S
C908   C909    1.390   .     A
C908   O960    1.384   .     S
C909   H917    1.082   .     S
C909   C37     1.396   1_556 S
C910   C911    1.416   .     A
C910   C912    1.415   .     A
C911   C914    1.403   .     A
C912   O926    1.391   .     S
C912   C913    1.413   .     A
C913   O943    1.394   .     S
C914   H916    1.078   .     S
C920   C1018   1.343   .     S
C920   N1034   1.447   .     S
C921   C1114   1.343   1_455 S
C921   H1116   1.086   1_455 S
H922   C1018   1.086   .     S
C923   H1215   1.088   .     S
C923   C1216   1.346   .     S
H924   C1505   1.088   1_545 S
C925   N940    1.439   .     S
C925   C1505   1.346   1_545 S
O926   C927    1.417   .     S
C927   H929    1.104   .     S
H928   C54     1.111   1_556 S
C930   H932    1.111   .     S
C930   H931    1.111   .     S
C930   C54     1.539   1_556 S
C930   C1030   1.526   .     S
C933   H936    1.111   .     S
C933   H935    1.110   .     S
C933   H934    1.111   .     S
C933   C1124   1.526   1_455 S
N937   O939    1.301   .     A
N937   O938    1.301   .     A
N937   C1114   1.447   1_455 S
N940   O941    1.301   .     A
N940   O1524   1.302   1_545 S
O942   N1231   1.302   .     S
O943   C944    1.425   .     S
C944   H946    1.105   .     S
C944   C947    1.553   .     S
C944   H945    1.111   .     S
C947   H949    1.109   .     S
C947   C950    1.523   .     S
C947   H1045   1.111   .     S
H948   C1141   1.111   1_455 S
C950   H951    1.107   .     S
C950   H1049   1.108   .     S
C950   H1050   1.110   .     S
H952   C1144   1.108   1_455 S
H953   C1144   1.110   1_455 S
N954   O955    1.301   .     A
N954   O956    1.301   .     A
N957   O959    1.301   .     A
N957   O958    1.302   .     A
O960   C961    1.417   .     S
C961   C964    1.530   .     S
C961   H963    1.117   .     S
C961   H962    1.111   .     S
C964   H966    1.110   .     S
C964   H965    1.112   .     S
C964   C1549   1.524   1_545 S
C967   H969    1.109   .     S
C967   C1255   1.524   .     S
C967   H1259   1.111   .     S
C967   H1261   1.110   .     S
H968   C1549   1.111   1_545 S
H970   C1549   1.110   1_545 S
Zn971  O975    1.955   .     S
Zn971  O983    1.916   .     S
Zn971  O977    1.926   .     S
Zn971  O984    1.940   .     S
Zn972  O986    1.928   .     S
Zn972  O975    1.951   .     S
Zn972  O980    1.916   .     S
Zn972  O978    1.941   .     S
Zn973  O982    1.927   .     S
Zn973  O979    1.939   .     S
Zn973  O975    1.929   .     S
Zn973  O987    1.940   .     S
Zn974  O976    1.938   .     S
Zn974  O981    1.928   .     S
Zn974  O975    1.931   .     S
Zn974  O985    1.938   .     S
O976   C988    1.275   .     A
O977   C989    1.281   .     A
O978   C990    1.282   .     A
O979   C991    1.273   .     A
O980   C992    1.281   .     A
O981   C993    1.282   .     A
O982   C992    1.277   .     A
O983   C993    1.290   .     A
O984   C990    1.269   .     A
O985   C991    1.262   .     A
O986   C988    1.268   .     A
O987   C989    1.275   .     A
C988   C1018   1.439   .     S
C989   C1017   1.465   .     S
C990   C1022   1.434   .     S
C991   C1020   1.455   .     S
C992   C995    1.462   .     S
C993   C994    1.482   .     S
C994   C997    1.419   .     A
C994   C998    1.402   .     A
C995   C1010   1.419   .     A
C995   C1011   1.390   .     A
C996   C997    1.399   .     A
C996   H1015   1.084   .     S
C996   C1000   1.400   .     A
C997   N1051   1.437   .     S
C998   H1016   1.080   .     S
C998   C999    1.407   .     A
C999   C1000   1.409   .     A
C999   C1001   1.425   .     A
C1000  C131    1.390   1_556 S
C1001  C1005   1.423   .     A
C1001  C129    1.426   1_556 S
C1002  C1008   1.430   .     A
C1002  C1003   1.429   .     A
C1003  C1004   1.395   .     A
C1003  N1054   1.432   .     S
C1004  H1012   1.084   .     S
C1005  C1006   1.390   .     A
C1005  O1057   1.384   .     S
C1006  H1014   1.082   .     S
C1006  C134    1.396   1_556 S
C1007  C1008   1.416   .     A
C1007  C1009   1.415   .     A
C1008  C1011   1.403   .     A
C1009  O1023   1.391   .     S
C1009  C1010   1.413   .     A
C1010  O1040   1.394   .     S
C1011  H1013   1.078   .     S
C1017  C1115   1.343   .     S
C1017  N1131   1.447   .     S
H1019  C1115   1.086   .     S
C1020  H1312   1.088   .     S
C1020  C1313   1.346   .     S
H1021  C1602   1.088   1_545 S
C1022  N1037   1.439   .     S
C1022  C1602   1.346   1_545 S
O1023  C1024   1.417   .     S
C1024  H1026   1.104   .     S
H1025  C151    1.111   1_556 S
C1027  H1029   1.111   .     S
C1027  H1028   1.111   .     S
C1027  C151    1.539   1_556 S
C1027  C1127   1.526   .     S
C1030  H1033   1.111   .     S
C1030  H1032   1.110   .     S
C1030  H1031   1.111   .     S
N1034  O1036   1.301   .     A
N1034  O1035   1.301   .     A
N1037  O1038   1.301   .     A
N1037  O1621   1.302   1_545 S
O1039  N1328   1.302   .     S
O1040  C1041   1.425   .     S
C1041  H1043   1.105   .     S
C1041  C1044   1.553   .     S
C1041  H1042   1.111   .     S
C1044  H1046   1.109   .     S
C1044  C1047   1.523   .     S
C1044  H1142   1.111   .     S
C1047  H1048   1.107   .     S
C1047  H1146   1.108   .     S
C1047  H1147   1.110   .     S
N1051  O1052   1.301   .     A
N1051  O1053   1.301   .     A
N1054  O1056   1.301   .     A
N1054  O1055   1.302   .     A
O1057  C1058   1.417   .     S
C1058  C1061   1.530   .     S
C1058  H1060   1.117   .     S
C1058  H1059   1.111   .     S
C1061  H1063   1.110   .     S
C1061  H1062   1.112   .     S
C1061  C1646   1.524   1_545 S
C1064  H1066   1.109   .     S
C1064  C1352   1.524   .     S
C1064  H1356   1.111   .     S
C1064  H1358   1.110   .     S
H1065  C1646   1.111   1_545 S
H1067  C1646   1.110   1_545 S
Zn1068 O1072   1.955   .     S
Zn1068 O1080   1.916   .     S
Zn1068 O1074   1.926   .     S
Zn1068 O1081   1.940   .     S
Zn1069 O1083   1.928   .     S
Zn1069 O1072   1.951   .     S
Zn1069 O1077   1.916   .     S
Zn1069 O1075   1.941   .     S
Zn1070 O1079   1.927   .     S
Zn1070 O1076   1.939   .     S
Zn1070 O1072   1.929   .     S
Zn1070 O1084   1.940   .     S
Zn1071 O1073   1.938   .     S
Zn1071 O1078   1.928   .     S
Zn1071 O1072   1.931   .     S
Zn1071 O1082   1.938   .     S
O1073  C1085   1.275   .     A
O1074  C1086   1.281   .     A
O1075  C1087   1.282   .     A
O1076  C1088   1.273   .     A
O1077  C1089   1.281   .     A
O1078  C1090   1.282   .     A
O1079  C1089   1.277   .     A
O1080  C1090   1.290   .     A
O1081  C1087   1.269   .     A
O1082  C1088   1.262   .     A
O1083  C1085   1.268   .     A
O1084  C1086   1.275   .     A
C1085  C1115   1.439   .     S
C1086  C1114   1.465   .     S
C1087  C1119   1.434   .     S
C1088  C1117   1.455   .     S
C1089  C1092   1.462   .     S
C1090  C1091   1.482   .     S
C1091  C1094   1.419   .     A
C1091  C1095   1.402   .     A
C1092  C1107   1.419   .     A
C1092  C1108   1.390   .     A
C1093  C1094   1.399   .     A
C1093  H1112   1.084   .     S
C1093  C1097   1.400   .     A
C1094  N1148   1.437   .     S
C1095  H1113   1.080   .     S
C1095  C1096   1.407   .     A
C1096  C1097   1.409   .     A
C1096  C1098   1.425   .     A
C1097  C228    1.390   1_556 S
C1098  C1102   1.423   .     A
C1098  C226    1.426   1_556 S
C1099  C1105   1.430   .     A
C1099  C1100   1.429   .     A
C1100  C1101   1.395   .     A
C1100  N1151   1.432   .     S
C1101  H1109   1.084   .     S
C1102  C1103   1.390   .     A
C1102  O1154   1.384   .     S
C1103  H1111   1.082   .     S
C1103  C231    1.396   1_556 S
C1104  C1105   1.416   .     A
C1104  C1106   1.415   .     A
C1105  C1108   1.403   .     A
C1106  O1120   1.391   .     S
C1106  C1107   1.413   .     A
C1107  O1137   1.394   .     S
C1108  H1110   1.078   .     S
C1114  C921    1.343   1_655 S
C1114  N937    1.447   1_655 S
H1116  C921    1.086   1_655 S
C1117  H1409   1.088   .     S
C1117  C1410   1.346   .     S
H1118  C1699   1.088   1_545 S
C1119  N1134   1.439   .     S
C1119  C1699   1.346   1_545 S
O1120  C1121   1.417   .     S
C1121  H1123   1.104   .     S
H1122  C248    1.111   1_556 S
C1124  H1126   1.111   .     S
C1124  H1125   1.111   .     S
C1124  C248    1.539   1_556 S
C1124  C933    1.526   1_655 S
C1127  H1130   1.111   .     S
C1127  H1129   1.110   .     S
C1127  H1128   1.111   .     S
N1131  O1133   1.301   .     A
N1131  O1132   1.301   .     A
N1134  O1135   1.301   .     A
N1134  O1718   1.302   1_545 S
O1136  N1425   1.302   .     S
O1137  C1138   1.425   .     S
C1138  H1140   1.105   .     S
C1138  C1141   1.553   .     S
C1138  H1139   1.111   .     S
C1141  H1143   1.109   .     S
C1141  C1144   1.523   .     S
C1141  H948    1.111   1_655 S
C1144  H1145   1.107   .     S
C1144  H952    1.108   1_655 S
C1144  H953    1.110   1_655 S
N1148  O1149   1.301   .     A
N1148  O1150   1.301   .     A
N1151  O1153   1.301   .     A
N1151  O1152   1.302   .     A
O1154  C1155   1.417   .     S
C1155  C1158   1.530   .     S
C1155  H1157   1.117   .     S
C1155  H1156   1.111   .     S
C1158  H1160   1.110   .     S
C1158  H1159   1.112   .     S
C1158  C1743   1.524   1_545 S
C1161  H1163   1.109   .     S
C1161  C1449   1.524   .     S
C1161  H1453   1.111   .     S
C1161  H1455   1.110   .     S
H1162  C1743   1.111   1_545 S
H1164  C1743   1.110   1_545 S
Zn1165 O1169   1.955   .     S
Zn1165 O1177   1.916   .     S
Zn1165 O1171   1.926   .     S
Zn1165 O1178   1.940   .     S
Zn1166 O1180   1.928   .     S
Zn1166 O1169   1.951   .     S
Zn1166 O1174   1.916   .     S
Zn1166 O1172   1.941   .     S
Zn1167 O1176   1.927   .     S
Zn1167 O1173   1.939   .     S
Zn1167 O1169   1.929   .     S
Zn1167 O1181   1.940   .     S
Zn1168 O1170   1.938   .     S
Zn1168 O1175   1.928   .     S
Zn1168 O1169   1.931   .     S
Zn1168 O1179   1.938   .     S
O1170  C1182   1.275   .     A
O1171  C1183   1.281   .     A
O1172  C1184   1.282   .     A
O1173  C1185   1.273   .     A
O1174  C1186   1.281   .     A
O1175  C1187   1.282   .     A
O1176  C1186   1.277   .     A
O1177  C1187   1.290   .     A
O1178  C1184   1.269   .     A
O1179  C1185   1.262   .     A
O1180  C1182   1.268   .     A
O1181  C1183   1.275   .     A
C1182  C1212   1.439   .     S
C1183  C1211   1.465   .     S
C1184  C1216   1.434   .     S
C1185  C1214   1.455   .     S
C1186  C1189   1.462   .     S
C1187  C1188   1.482   .     S
C1188  C1191   1.419   .     A
C1188  C1192   1.402   .     A
C1189  C1204   1.419   .     A
C1189  C1205   1.390   .     A
C1190  C1191   1.399   .     A
C1190  H1209   1.084   .     S
C1190  C1194   1.400   .     A
C1191  N1245   1.437   .     S
C1192  H1210   1.080   .     S
C1192  C1193   1.407   .     A
C1193  C1194   1.409   .     A
C1193  C1195   1.425   .     A
C1194  C325    1.390   1_556 S
C1195  C1199   1.423   .     A
C1195  C323    1.426   1_556 S
C1196  C1202   1.430   .     A
C1196  C1197   1.429   .     A
C1197  C1198   1.395   .     A
C1197  N1248   1.432   .     S
C1198  H1206   1.084   .     S
C1199  C1200   1.390   .     A
C1199  O1251   1.384   .     S
C1200  H1208   1.082   .     S
C1200  C328    1.396   1_556 S
C1201  C1202   1.416   .     A
C1201  C1203   1.415   .     A
C1202  C1205   1.403   .     A
C1203  O1217   1.391   .     S
C1203  C1204   1.413   .     A
C1204  O1234   1.394   .     S
C1205  H1207   1.078   .     S
C1211  C1309   1.343   .     S
C1211  N1325   1.447   .     S
C1212  C1405   1.343   1_455 S
C1212  H1407   1.086   1_455 S
H1213  C1309   1.086   .     S
C1214  H1506   1.088   .     S
C1214  C1507   1.346   .     S
C1216  N1231   1.439   .     S
O1217  C1218   1.417   .     S
C1218  H1220   1.104   .     S
H1219  C345    1.111   1_556 S
C1221  H1223   1.111   .     S
C1221  H1222   1.111   .     S
C1221  C345    1.539   1_556 S
C1221  C1321   1.526   .     S
C1224  H1227   1.111   .     S
C1224  H1226   1.110   .     S
C1224  H1225   1.111   .     S
C1224  C1415   1.526   1_455 S
N1228  O1230   1.301   .     A
N1228  O1229   1.301   .     A
N1228  C1405   1.447   1_455 S
N1231  O1232   1.301   .     A
O1233  N1522   1.302   .     S
O1234  C1235   1.425   .     S
C1235  H1237   1.105   .     S
C1235  C1238   1.553   .     S
C1235  H1236   1.111   .     S
C1238  H1240   1.109   .     S
C1238  C1241   1.523   .     S
C1238  H1336   1.111   .     S
H1239  C1432   1.111   1_455 S
C1241  H1242   1.107   .     S
C1241  H1340   1.108   .     S
C1241  H1341   1.110   .     S
H1243  C1435   1.108   1_455 S
H1244  C1435   1.110   1_455 S
N1245  O1246   1.301   .     A
N1245  O1247   1.301   .     A
N1248  O1250   1.301   .     A
N1248  O1249   1.302   .     A
O1251  C1252   1.417   .     S
C1252  C1255   1.530   .     S
C1252  H1254   1.117   .     S
C1252  H1253   1.111   .     S
C1255  H1257   1.110   .     S
C1255  H1256   1.112   .     S
C1258  H1260   1.109   .     S
C1258  C1546   1.524   .     S
C1258  H1550   1.111   .     S
C1258  H1552   1.110   .     S
Zn1262 O1266   1.955   .     S
Zn1262 O1274   1.916   .     S
Zn1262 O1268   1.926   .     S
Zn1262 O1275   1.940   .     S
Zn1263 O1277   1.928   .     S
Zn1263 O1266   1.951   .     S
Zn1263 O1271   1.916   .     S
Zn1263 O1269   1.941   .     S
Zn1264 O1273   1.927   .     S
Zn1264 O1270   1.939   .     S
Zn1264 O1266   1.929   .     S
Zn1264 O1278   1.940   .     S
Zn1265 O1267   1.938   .     S
Zn1265 O1272   1.928   .     S
Zn1265 O1266   1.931   .     S
Zn1265 O1276   1.938   .     S
O1267  C1279   1.275   .     A
O1268  C1280   1.281   .     A
O1269  C1281   1.282   .     A
O1270  C1282   1.273   .     A
O1271  C1283   1.281   .     A
O1272  C1284   1.282   .     A
O1273  C1283   1.277   .     A
O1274  C1284   1.290   .     A
O1275  C1281   1.269   .     A
O1276  C1282   1.262   .     A
O1277  C1279   1.268   .     A
O1278  C1280   1.275   .     A
C1279  C1309   1.439   .     S
C1280  C1308   1.465   .     S
C1281  C1313   1.434   .     S
C1282  C1311   1.455   .     S
C1283  C1286   1.462   .     S
C1284  C1285   1.482   .     S
C1285  C1288   1.419   .     A
C1285  C1289   1.402   .     A
C1286  C1301   1.419   .     A
C1286  C1302   1.390   .     A
C1287  C1288   1.399   .     A
C1287  H1306   1.084   .     S
C1287  C1291   1.400   .     A
C1288  N1342   1.437   .     S
C1289  H1307   1.080   .     S
C1289  C1290   1.407   .     A
C1290  C1291   1.409   .     A
C1290  C1292   1.425   .     A
C1291  C422    1.390   1_556 S
C1292  C1296   1.423   .     A
C1292  C420    1.426   1_556 S
C1293  C1299   1.430   .     A
C1293  C1294   1.429   .     A
C1294  C1295   1.395   .     A
C1294  N1345   1.432   .     S
C1295  H1303   1.084   .     S
C1296  C1297   1.390   .     A
C1296  O1348   1.384   .     S
C1297  H1305   1.082   .     S
C1297  C425    1.396   1_556 S
C1298  C1299   1.416   .     A
C1298  C1300   1.415   .     A
C1299  C1302   1.403   .     A
C1300  O1314   1.391   .     S
C1300  C1301   1.413   .     A
C1301  O1331   1.394   .     S
C1302  H1304   1.078   .     S
C1308  C1406   1.343   .     S
C1308  N1422   1.447   .     S
H1310  C1406   1.086   .     S
C1311  H1603   1.088   .     S
C1311  C1604   1.346   .     S
C1313  N1328   1.439   .     S
O1314  C1315   1.417   .     S
C1315  H1317   1.104   .     S
H1316  C442    1.111   1_556 S
C1318  H1320   1.111   .     S
C1318  H1319   1.111   .     S
C1318  C442    1.539   1_556 S
C1318  C1418   1.526   .     S
C1321  H1324   1.111   .     S
C1321  H1323   1.110   .     S
C1321  H1322   1.111   .     S
N1325  O1327   1.301   .     A
N1325  O1326   1.301   .     A
N1328  O1329   1.301   .     A
O1330  N1619   1.302   .     S
O1331  C1332   1.425   .     S
C1332  H1334   1.105   .     S
C1332  C1335   1.553   .     S
C1332  H1333   1.111   .     S
C1335  H1337   1.109   .     S
C1335  C1338   1.523   .     S
C1335  H1433   1.111   .     S
C1338  H1339   1.107   .     S
C1338  H1437   1.108   .     S
C1338  H1438   1.110   .     S
N1342  O1343   1.301   .     A
N1342  O1344   1.301   .     A
N1345  O1347   1.301   .     A
N1345  O1346   1.302   .     A
O1348  C1349   1.417   .     S
C1349  C1352   1.530   .     S
C1349  H1351   1.117   .     S
C1349  H1350   1.111   .     S
C1352  H1354   1.110   .     S
C1352  H1353   1.112   .     S
C1355  H1357   1.109   .     S
C1355  C1643   1.524   .     S
C1355  H1647   1.111   .     S
C1355  H1649   1.110   .     S
Zn1359 O1363   1.955   .     S
Zn1359 O1371   1.916   .     S
Zn1359 O1365   1.926   .     S
Zn1359 O1372   1.940   .     S
Zn1360 O1374   1.928   .     S
Zn1360 O1363   1.951   .     S
Zn1360 O1368   1.916   .     S
Zn1360 O1366   1.941   .     S
Zn1361 O1370   1.927   .     S
Zn1361 O1367   1.939   .     S
Zn1361 O1363   1.929   .     S
Zn1361 O1375   1.940   .     S
Zn1362 O1364   1.938   .     S
Zn1362 O1369   1.928   .     S
Zn1362 O1363   1.931   .     S
Zn1362 O1373   1.938   .     S
O1364  C1376   1.275   .     A
O1365  C1377   1.281   .     A
O1366  C1378   1.282   .     A
O1367  C1379   1.273   .     A
O1368  C1380   1.281   .     A
O1369  C1381   1.282   .     A
O1370  C1380   1.277   .     A
O1371  C1381   1.290   .     A
O1372  C1378   1.269   .     A
O1373  C1379   1.262   .     A
O1374  C1376   1.268   .     A
O1375  C1377   1.275   .     A
C1376  C1406   1.439   .     S
C1377  C1405   1.465   .     S
C1378  C1410   1.434   .     S
C1379  C1408   1.455   .     S
C1380  C1383   1.462   .     S
C1381  C1382   1.482   .     S
C1382  C1385   1.419   .     A
C1382  C1386   1.402   .     A
C1383  C1398   1.419   .     A
C1383  C1399   1.390   .     A
C1384  C1385   1.399   .     A
C1384  H1403   1.084   .     S
C1384  C1388   1.400   .     A
C1385  N1439   1.437   .     S
C1386  H1404   1.080   .     S
C1386  C1387   1.407   .     A
C1387  C1388   1.409   .     A
C1387  C1389   1.425   .     A
C1388  C519    1.390   1_556 S
C1389  C1393   1.423   .     A
C1389  C517    1.426   1_556 S
C1390  C1396   1.430   .     A
C1390  C1391   1.429   .     A
C1391  C1392   1.395   .     A
C1391  N1442   1.432   .     S
C1392  H1400   1.084   .     S
C1393  C1394   1.390   .     A
C1393  O1445   1.384   .     S
C1394  H1402   1.082   .     S
C1394  C522    1.396   1_556 S
C1395  C1396   1.416   .     A
C1395  C1397   1.415   .     A
C1396  C1399   1.403   .     A
C1397  O1411   1.391   .     S
C1397  C1398   1.413   .     A
C1398  O1428   1.394   .     S
C1399  H1401   1.078   .     S
C1405  C1212   1.343   1_655 S
C1405  N1228   1.447   1_655 S
H1407  C1212   1.086   1_655 S
C1408  H1700   1.088   .     S
C1408  C1701   1.346   .     S
C1410  N1425   1.439   .     S
O1411  C1412   1.417   .     S
C1412  H1414   1.104   .     S
H1413  C539    1.111   1_556 S
C1415  H1417   1.111   .     S
C1415  H1416   1.111   .     S
C1415  C539    1.539   1_556 S
C1415  C1224   1.526   1_655 S
C1418  H1421   1.111   .     S
C1418  H1420   1.110   .     S
C1418  H1419   1.111   .     S
N1422  O1424   1.301   .     A
N1422  O1423   1.301   .     A
N1425  O1426   1.301   .     A
O1427  N1716   1.302   .     S
O1428  C1429   1.425   .     S
C1429  H1431   1.105   .     S
C1429  C1432   1.553   .     S
C1429  H1430   1.111   .     S
C1432  H1434   1.109   .     S
C1432  C1435   1.523   .     S
C1432  H1239   1.111   1_655 S
C1435  H1436   1.107   .     S
C1435  H1243   1.108   1_655 S
C1435  H1244   1.110   1_655 S
N1439  O1440   1.301   .     A
N1439  O1441   1.301   .     A
N1442  O1444   1.301   .     A
N1442  O1443   1.302   .     A
O1445  C1446   1.417   .     S
C1446  C1449   1.530   .     S
C1446  H1448   1.117   .     S
C1446  H1447   1.111   .     S
C1449  H1451   1.110   .     S
C1449  H1450   1.112   .     S
C1452  H1454   1.109   .     S
C1452  C1740   1.524   .     S
C1452  H1744   1.111   .     S
C1452  H1746   1.110   .     S
Zn1456 O1460   1.955   .     S
Zn1456 O1468   1.916   .     S
Zn1456 O1462   1.926   .     S
Zn1456 O1469   1.940   .     S
Zn1457 O1471   1.928   .     S
Zn1457 O1460   1.951   .     S
Zn1457 O1465   1.916   .     S
Zn1457 O1463   1.941   .     S
Zn1458 O1467   1.927   .     S
Zn1458 O1464   1.939   .     S
Zn1458 O1460   1.929   .     S
Zn1458 O1472   1.940   .     S
Zn1459 O1461   1.938   .     S
Zn1459 O1466   1.928   .     S
Zn1459 O1460   1.931   .     S
Zn1459 O1470   1.938   .     S
O1461  C1473   1.275   .     A
O1462  C1474   1.281   .     A
O1463  C1475   1.282   .     A
O1464  C1476   1.273   .     A
O1465  C1477   1.281   .     A
O1466  C1478   1.282   .     A
O1467  C1477   1.277   .     A
O1468  C1478   1.290   .     A
O1469  C1475   1.269   .     A
O1470  C1476   1.262   .     A
O1471  C1473   1.268   .     A
O1472  C1474   1.275   .     A
C1473  C1503   1.439   .     S
C1474  C1502   1.465   .     S
C1475  C1507   1.434   .     S
C1476  C1505   1.455   .     S
C1477  C1480   1.462   .     S
C1478  C1479   1.482   .     S
C1479  C1482   1.419   .     A
C1479  C1483   1.402   .     A
C1480  C1495   1.419   .     A
C1480  C1496   1.390   .     A
C1481  C1482   1.399   .     A
C1481  H1500   1.084   .     S
C1481  C1485   1.400   .     A
C1482  N1536   1.437   .     S
C1483  H1501   1.080   .     S
C1483  C1484   1.407   .     A
C1484  C1485   1.409   .     A
C1484  C1486   1.425   .     A
C1485  C616    1.390   1_556 S
C1486  C1490   1.423   .     A
C1486  C614    1.426   1_556 S
C1487  C1493   1.430   .     A
C1487  C1488   1.429   .     A
C1488  C1489   1.395   .     A
C1488  N1539   1.432   .     S
C1489  H1497   1.084   .     S
C1490  C1491   1.390   .     A
C1490  O1542   1.384   .     S
C1491  H1499   1.082   .     S
C1491  C619    1.396   1_556 S
C1492  C1493   1.416   .     A
C1492  C1494   1.415   .     A
C1493  C1496   1.403   .     A
C1494  O1508   1.391   .     S
C1494  C1495   1.413   .     A
C1495  O1525   1.394   .     S
C1496  H1498   1.078   .     S
C1502  C1600   1.343   .     S
C1502  N1616   1.447   .     S
C1503  C1696   1.343   1_455 S
C1503  H1698   1.086   1_455 S
H1504  C1600   1.086   .     S
C1505  H924    1.088   1_565 S
C1505  C925    1.346   1_565 S
C1507  N1522   1.439   .     S
O1508  C1509   1.417   .     S
C1509  H1511   1.104   .     S
H1510  C636    1.111   1_556 S
C1512  H1514   1.111   .     S
C1512  H1513   1.111   .     S
C1512  C636    1.539   1_556 S
C1512  C1612   1.526   .     S
C1515  H1518   1.111   .     S
C1515  H1517   1.110   .     S
C1515  H1516   1.111   .     S
C1515  C1706   1.526   1_455 S
N1519  O1521   1.301   .     A
N1519  O1520   1.301   .     A
N1519  C1696   1.447   1_455 S
N1522  O1523   1.301   .     A
O1524  N940    1.302   1_565 S
O1525  C1526   1.425   .     S
C1526  H1528   1.105   .     S
C1526  C1529   1.553   .     S
C1526  H1527   1.111   .     S
C1529  H1531   1.109   .     S
C1529  C1532   1.523   .     S
C1529  H1627   1.111   .     S
H1530  C1723   1.111   1_455 S
C1532  H1533   1.107   .     S
C1532  H1631   1.108   .     S
C1532  H1632   1.110   .     S
H1534  C1726   1.108   1_455 S
H1535  C1726   1.110   1_455 S
N1536  O1537   1.301   .     A
N1536  O1538   1.301   .     A
N1539  O1541   1.301   .     A
N1539  O1540   1.302   .     A
O1542  C1543   1.417   .     S
C1543  C1546   1.530   .     S
C1543  H1545   1.117   .     S
C1543  H1544   1.111   .     S
C1546  H1548   1.110   .     S
C1546  H1547   1.112   .     S
C1549  H1551   1.109   .     S
C1549  C964    1.524   1_565 S
C1549  H968    1.111   1_565 S
C1549  H970    1.110   1_565 S
Zn1553 O1557   1.955   .     S
Zn1553 O1565   1.916   .     S
Zn1553 O1559   1.926   .     S
Zn1553 O1566   1.940   .     S
Zn1554 O1568   1.928   .     S
Zn1554 O1557   1.951   .     S
Zn1554 O1562   1.916   .     S
Zn1554 O1560   1.941   .     S
Zn1555 O1564   1.927   .     S
Zn1555 O1561   1.939   .     S
Zn1555 O1557   1.929   .     S
Zn1555 O1569   1.940   .     S
Zn1556 O1558   1.938   .     S
Zn1556 O1563   1.928   .     S
Zn1556 O1557   1.931   .     S
Zn1556 O1567   1.938   .     S
O1558  C1570   1.275   .     A
O1559  C1571   1.281   .     A
O1560  C1572   1.282   .     A
O1561  C1573   1.273   .     A
O1562  C1574   1.281   .     A
O1563  C1575   1.282   .     A
O1564  C1574   1.277   .     A
O1565  C1575   1.290   .     A
O1566  C1572   1.269   .     A
O1567  C1573   1.262   .     A
O1568  C1570   1.268   .     A
O1569  C1571   1.275   .     A
C1570  C1600   1.439   .     S
C1571  C1599   1.465   .     S
C1572  C1604   1.434   .     S
C1573  C1602   1.455   .     S
C1574  C1577   1.462   .     S
C1575  C1576   1.482   .     S
C1576  C1579   1.419   .     A
C1576  C1580   1.402   .     A
C1577  C1592   1.419   .     A
C1577  C1593   1.390   .     A
C1578  C1579   1.399   .     A
C1578  H1597   1.084   .     S
C1578  C1582   1.400   .     A
C1579  N1633   1.437   .     S
C1580  H1598   1.080   .     S
C1580  C1581   1.407   .     A
C1581  C1582   1.409   .     A
C1581  C1583   1.425   .     A
C1582  C713    1.390   1_556 S
C1583  C1587   1.423   .     A
C1583  C711    1.426   1_556 S
C1584  C1590   1.430   .     A
C1584  C1585   1.429   .     A
C1585  C1586   1.395   .     A
C1585  N1636   1.432   .     S
C1586  H1594   1.084   .     S
C1587  C1588   1.390   .     A
C1587  O1639   1.384   .     S
C1588  H1596   1.082   .     S
C1588  C716    1.396   1_556 S
C1589  C1590   1.416   .     A
C1589  C1591   1.415   .     A
C1590  C1593   1.403   .     A
C1591  O1605   1.391   .     S
C1591  C1592   1.413   .     A
C1592  O1622   1.394   .     S
C1593  H1595   1.078   .     S
C1599  C1697   1.343   .     S
C1599  N1713   1.447   .     S
H1601  C1697   1.086   .     S
C1602  H1021   1.088   1_565 S
C1602  C1022   1.346   1_565 S
C1604  N1619   1.439   .     S
O1605  C1606   1.417   .     S
C1606  H1608   1.104   .     S
H1607  C733    1.111   1_556 S
C1609  H1611   1.111   .     S
C1609  H1610   1.111   .     S
C1609  C733    1.539   1_556 S
C1609  C1709   1.526   .     S
C1612  H1615   1.111   .     S
C1612  H1614   1.110   .     S
C1612  H1613   1.111   .     S
N1616  O1618   1.301   .     A
N1616  O1617   1.301   .     A
N1619  O1620   1.301   .     A
O1621  N1037   1.302   1_565 S
O1622  C1623   1.425   .     S
C1623  H1625   1.105   .     S
C1623  C1626   1.553   .     S
C1623  H1624   1.111   .     S
C1626  H1628   1.109   .     S
C1626  C1629   1.523   .     S
C1626  H1724   1.111   .     S
C1629  H1630   1.107   .     S
C1629  H1728   1.108   .     S
C1629  H1729   1.110   .     S
N1633  O1634   1.301   .     A
N1633  O1635   1.301   .     A
N1636  O1638   1.301   .     A
N1636  O1637   1.302   .     A
O1639  C1640   1.417   .     S
C1640  C1643   1.530   .     S
C1640  H1642   1.117   .     S
C1640  H1641   1.111   .     S
C1643  H1645   1.110   .     S
C1643  H1644   1.112   .     S
C1646  H1648   1.109   .     S
C1646  C1061   1.524   1_565 S
C1646  H1065   1.111   1_565 S
C1646  H1067   1.110   1_565 S
Zn1650 O1654   1.955   .     S
Zn1650 O1662   1.916   .     S
Zn1650 O1656   1.926   .     S
Zn1650 O1663   1.940   .     S
Zn1651 O1665   1.928   .     S
Zn1651 O1654   1.951   .     S
Zn1651 O1659   1.916   .     S
Zn1651 O1657   1.941   .     S
Zn1652 O1661   1.927   .     S
Zn1652 O1658   1.939   .     S
Zn1652 O1654   1.929   .     S
Zn1652 O1666   1.940   .     S
Zn1653 O1655   1.938   .     S
Zn1653 O1660   1.928   .     S
Zn1653 O1654   1.931   .     S
Zn1653 O1664   1.938   .     S
O1655  C1667   1.275   .     A
O1656  C1668   1.281   .     A
O1657  C1669   1.282   .     A
O1658  C1670   1.273   .     A
O1659  C1671   1.281   .     A
O1660  C1672   1.282   .     A
O1661  C1671   1.277   .     A
O1662  C1672   1.290   .     A
O1663  C1669   1.269   .     A
O1664  C1670   1.262   .     A
O1665  C1667   1.268   .     A
O1666  C1668   1.275   .     A
C1667  C1697   1.439   .     S
C1668  C1696   1.465   .     S
C1669  C1701   1.434   .     S
C1670  C1699   1.455   .     S
C1671  C1674   1.462   .     S
C1672  C1673   1.482   .     S
C1673  C1676   1.419   .     A
C1673  C1677   1.402   .     A
C1674  C1689   1.419   .     A
C1674  C1690   1.390   .     A
C1675  C1676   1.399   .     A
C1675  H1694   1.084   .     S
C1675  C1679   1.400   .     A
C1676  N1730   1.437   .     S
C1677  H1695   1.080   .     S
C1677  C1678   1.407   .     A
C1678  C1679   1.409   .     A
C1678  C1680   1.425   .     A
C1679  C810    1.390   1_556 S
C1680  C1684   1.423   .     A
C1680  C808    1.426   1_556 S
C1681  C1687   1.430   .     A
C1681  C1682   1.429   .     A
C1682  C1683   1.395   .     A
C1682  N1733   1.432   .     S
C1683  H1691   1.084   .     S
C1684  C1685   1.390   .     A
C1684  O1736   1.384   .     S
C1685  H1693   1.082   .     S
C1685  C813    1.396   1_556 S
C1686  C1687   1.416   .     A
C1686  C1688   1.415   .     A
C1687  C1690   1.403   .     A
C1688  O1702   1.391   .     S
C1688  C1689   1.413   .     A
C1689  O1719   1.394   .     S
C1690  H1692   1.078   .     S
C1696  C1503   1.343   1_655 S
C1696  N1519   1.447   1_655 S
H1698  C1503   1.086   1_655 S
C1699  H1118   1.088   1_565 S
C1699  C1119   1.346   1_565 S
C1701  N1716   1.439   .     S
O1702  C1703   1.417   .     S
C1703  H1705   1.104   .     S
H1704  C830    1.111   1_556 S
C1706  H1708   1.111   .     S
C1706  H1707   1.111   .     S
C1706  C830    1.539   1_556 S
C1706  C1515   1.526   1_655 S
C1709  H1712   1.111   .     S
C1709  H1711   1.110   .     S
C1709  H1710   1.111   .     S
N1713  O1715   1.301   .     A
N1713  O1714   1.301   .     A
N1716  O1717   1.301   .     A
O1718  N1134   1.302   1_565 S
O1719  C1720   1.425   .     S
C1720  H1722   1.105   .     S
C1720  C1723   1.553   .     S
C1720  H1721   1.111   .     S
C1723  H1725   1.109   .     S
C1723  C1726   1.523   .     S
C1723  H1530   1.111   1_655 S
C1726  H1727   1.107   .     S
C1726  H1534   1.108   1_655 S
C1726  H1535   1.110   1_655 S
N1730  O1731   1.301   .     A
N1730  O1732   1.301   .     A
N1733  O1735   1.301   .     A
N1733  O1734   1.302   .     A
O1736  C1737   1.417   .     S
C1737  C1740   1.530   .     S
C1737  H1739   1.117   .     S
C1737  H1738   1.111   .     S
C1740  H1742   1.110   .     S
C1740  H1741   1.112   .     S
C1743  H1745   1.109   .     S
C1743  C1158   1.524   1_565 S
C1743  H1162   1.111   1_565 S
C1743  H1164   1.110   1_565 S
