data_str_m1_o1_o17_pcu_sym.26
_audit_creation_date              2020-01-03
_audit_creation_method            'Materials Studio'
_symmetry_space_group_name_H-M    'P1'
_symmetry_Int_Tables_number       1
_symmetry_cell_setting            triclinic
loop_
_symmetry_equiv_pos_as_xyz
  x,y,z
_cell_length_a                    36.6563
_cell_length_b                    36.6562
_cell_length_c                    34.4442
_cell_angle_alpha                 90.0001
_cell_angle_beta                  90.0001
_cell_angle_gamma                 89.9886
loop_
_atom_site_label
_atom_site_type_symbol
_atom_site_fract_x
_atom_site_fract_y
_atom_site_fract_z
_atom_site_U_iso_or_equiv
_atom_site_adp_type
_atom_site_occupancy
C1     C     0.46722   0.25429   0.41876   0.00000  Uiso   1.00
C2     C     0.28278   0.00394   0.08138   0.00000  Uiso   1.00
C3     C     0.25243   0.03344   0.54070   0.00000  Uiso   1.00
C4     C     0.46695   0.25571   0.45931   0.00000  Uiso   1.00
C5     C     0.03316   0.24529   0.54083   0.00000  Uiso   1.00
C6     C     0.25276   0.03339   0.45916   0.00000  Uiso   1.00
C7     C     0.24757   0.46656   0.54070   0.00000  Uiso   1.00
C8     C     0.28344   0.00243   0.95930   0.00000  Uiso   1.00
C9     C     0.21661   0.49724   0.04084   0.00000  Uiso   1.00
C10    C     0.00472   0.21684   0.95917   0.00000  Uiso   1.00
C11    C     0.49429   0.28305   0.04069   0.00000  Uiso   1.00
C12    C     0.21656   0.49757   0.95930   0.00000  Uiso   1.00
C13    C     0.49678   0.28285   0.91864   0.00000  Uiso   1.00
C14    C     0.28339   0.00275   0.04084   0.00000  Uiso   1.00
C15    C     0.49528   0.28316   0.95917   0.00000  Uiso   1.00
C16    C     0.00571   0.21695   0.04069   0.00000  Uiso   1.00
C17    C     0.09813   0.34813   0.25000   0.00000  Uiso   1.00
C18    C     0.40187   0.15187   0.75000   0.00000  Uiso   1.00
C19    C     0.15187   0.09813   0.25000   0.00000  Uiso   1.00
C20    C     0.34813   0.40187   0.75000   0.00000  Uiso   1.00
C21    C     0.40187   0.15187   0.25000   0.00000  Uiso   1.00
C22    C     0.09813   0.34813   0.75000   0.00000  Uiso   1.00
C23    C     0.34813   0.40187   0.25000   0.00000  Uiso   1.00
C24    C     0.00429   0.21722   0.08124   0.00000  Uiso   1.00
C25    C     0.15187   0.09813   0.75000   0.00000  Uiso   1.00
C26    C     0.09813   0.15187   0.75000   0.00000  Uiso   1.00
C27    C     0.40187   0.34813   0.25000   0.00000  Uiso   1.00
C28    C     0.15187   0.40187   0.75000   0.00000  Uiso   1.00
C29    C     0.34813   0.09813   0.25000   0.00000  Uiso   1.00
C30    C     0.40187   0.34813   0.75000   0.00000  Uiso   1.00
C31    C     0.09813   0.15187   0.25000   0.00000  Uiso   1.00
C32    C     0.34813   0.09813   0.75000   0.00000  Uiso   1.00
C33    C     0.15187   0.40187   0.25000   0.00000  Uiso   1.00
C34    C     0.00000   0.25000   0.47970   0.00000  Uiso   1.00
C35    C     0.28282   0.00381   0.91875   0.00000  Uiso   1.00
C36    C     0.00000   0.25000   0.52041   0.00000  Uiso   1.00
C37    C     0.25000  -0.00000   0.47958   0.00000  Uiso   1.00
C38    C     0.25000  -0.00000   0.52030   0.00000  Uiso   1.00
C39    C     0.25000  -0.00000   0.97970   0.00000  Uiso   1.00
C40    C     0.25000  -0.00000   0.02042   0.00000  Uiso   1.00
C41    C    -0.00000   0.25000   0.97959   0.00000  Uiso   1.00
C42    C    -0.00000   0.25000   0.02030   0.00000  Uiso   1.00
C43    C     0.10014   0.19398   0.44983   0.00000  Uiso   1.00
C44    C     0.13962   0.18391   0.44141   0.00000  Uiso   1.00
C45    C     0.39503   0.29890   0.55372   0.00000  Uiso   1.00
C46    C     0.21722   0.49606   0.08138   0.00000  Uiso   1.00
C47    C     0.37088   0.29751   0.58965   0.00000  Uiso   1.00
C48    C     0.27413   0.38689   0.44644   0.00000  Uiso   1.00
C49    C     0.26713   0.36051   0.41317   0.00000  Uiso   1.00
C50    C     0.22139   0.11148   0.55118   0.00000  Uiso   1.00
C51    C     0.22177   0.15267   0.55632   0.00000  Uiso   1.00
C52    C     0.39987   0.30603   0.44982   0.00000  Uiso   1.00
C53    C     0.36041   0.31610   0.44136   0.00000  Uiso   1.00
C54    C     0.10496   0.20112   0.55375   0.00000  Uiso   1.00
C55    C     0.12914   0.20253   0.58965   0.00000  Uiso   1.00
C56    C     0.22588   0.11311   0.44645   0.00000  Uiso   1.00
C57    C     0.00322   0.21715   0.91864   0.00000  Uiso   1.00
C58    C     0.23287   0.13949   0.41317   0.00000  Uiso   1.00
C59    C     0.27860   0.38851   0.55118   0.00000  Uiso   1.00
C60    C     0.27821   0.34732   0.55630   0.00000  Uiso   1.00
C61    C     0.36149   0.47140   0.94882   0.00000  Uiso   1.00
C62    C     0.40268   0.47180   0.94369   0.00000  Uiso   1.00
C63    C     0.13689   0.02412   0.05355   0.00000  Uiso   1.00
C64    C     0.11051   0.01712   0.08683   0.00000  Uiso   1.00
C65    C     0.04889   0.14504   0.94626   0.00000  Uiso   1.00
C66    C     0.04749   0.12086   0.91035   0.00000  Uiso   1.00
C67    C     0.44397   0.35013   0.05018   0.00000  Uiso   1.00
C68    C     0.49571   0.28278   0.08124   0.00000  Uiso   1.00
C69    C     0.43390   0.38960   0.05863   0.00000  Uiso   1.00
C70    C     0.13851   0.02860   0.94882   0.00000  Uiso   1.00
C71    C     0.09732   0.02820   0.94368   0.00000  Uiso   1.00
C72    C     0.36311   0.47588   0.05355   0.00000  Uiso   1.00
C73    C     0.38949   0.48287   0.08683   0.00000  Uiso   1.00
C74    C     0.45111   0.35497   0.94627   0.00000  Uiso   1.00
C75    C     0.45250   0.37913   0.91035   0.00000  Uiso   1.00
C76    C     0.05603   0.14987   0.05018   0.00000  Uiso   1.00
C77    C     0.06610   0.11039   0.05861   0.00000  Uiso   1.00
C78    C     0.00000   0.25000   0.39848   0.00000  Uiso   1.00
C79    C    -0.00000   0.25000   0.60161   0.00000  Uiso   1.00
C80    C     0.25000  -0.00000   0.39838   0.00000  Uiso   1.00
C81    C     0.03285   0.24679   0.58136   0.00000  Uiso   1.00
C82    C     0.25000  -0.00000   0.60153   0.00000  Uiso   1.00
C83    C     0.25000   0.00000   0.89847   0.00000  Uiso   1.00
C84    C     0.25000   0.00000   0.10162   0.00000  Uiso   1.00
C85    C    -0.00000   0.25000   0.89839   0.00000  Uiso   1.00
C86    C    -0.00000   0.25000   0.10152   0.00000  Uiso   1.00
C87    C     0.06578   0.23758   0.47982   0.00000  Uiso   1.00
C88    C     0.43400   0.26107   0.52053   0.00000  Uiso   1.00
C89    C     0.24576   0.43320   0.47951   0.00000  Uiso   1.00
C90    C     0.25374   0.06682   0.52024   0.00000  Uiso   1.00
C91    C     0.43422   0.26243   0.47982   0.00000  Uiso   1.00
C92    C     0.25394   0.03278   0.41862   0.00000  Uiso   1.00
C93    C     0.06600   0.23894   0.52053   0.00000  Uiso   1.00
C94    C     0.25425   0.06680   0.47951   0.00000  Uiso   1.00
C95    C     0.24627   0.43318   0.52024   0.00000  Uiso   1.00
C96    C     0.31682   0.00374   0.97976   0.00000  Uiso   1.00
C97    C     0.18320   0.49575   0.02049   0.00000  Uiso   1.00
C98    C     0.01107   0.18400   0.97947   0.00000  Uiso   1.00
C99    C     0.48757   0.31578   0.02018   0.00000  Uiso   1.00
C100   C     0.18318   0.49626   0.97976   0.00000  Uiso   1.00
C101   C     0.31680   0.00425   0.02049   0.00000  Uiso   1.00
C102   C     0.48893   0.31599   0.97947   0.00000  Uiso   1.00
C103   C     0.24619   0.46718   0.58125   0.00000  Uiso   1.00
C104   C     0.01243   0.18422   0.02018   0.00000  Uiso   1.00
C105   C     0.25000   0.00000   0.35595   0.00000  Uiso   1.00
C106   C     0.25000   0.00000   0.64402   0.00000  Uiso   1.00
C107   C    -0.00000   0.25000   0.35599   0.00000  Uiso   1.00
C108   C    -0.00000   0.25000   0.64404   0.00000  Uiso   1.00
C109   C    -0.00000   0.25000   0.85596   0.00000  Uiso   1.00
C110   C    -0.00000   0.25000   0.14401   0.00000  Uiso   1.00
C111   C     0.25000   0.00000   0.85599   0.00000  Uiso   1.00
C112   C     0.25000  -0.00000   0.14405   0.00000  Uiso   1.00
C113   C     0.17994   0.07006   0.25000   0.00000  Uiso   1.00
C114   C     0.03278   0.24571   0.41876   0.00000  Uiso   1.00
C115   C     0.32006   0.42994   0.75000   0.00000  Uiso   1.00
C116   C     0.42994   0.17994   0.25000   0.00000  Uiso   1.00
C117   C     0.07006   0.32006   0.75000   0.00000  Uiso   1.00
C118   C     0.32006   0.42994   0.25000   0.00000  Uiso   1.00
C119   C     0.17994   0.07006   0.75000   0.00000  Uiso   1.00
C120   C     0.07006   0.32006   0.25000   0.00000  Uiso   1.00
C121   C     0.42994   0.17994   0.75000   0.00000  Uiso   1.00
C122   C     0.17994   0.42994   0.75000   0.00000  Uiso   1.00
C123   C     0.32006   0.07006   0.25000   0.00000  Uiso   1.00
C124   C     0.42994   0.32006   0.75000   0.00000  Uiso   1.00
C125   C     0.46715   0.25322   0.58136   0.00000  Uiso   1.00
C126   C     0.07006   0.17994   0.25000   0.00000  Uiso   1.00
C127   C     0.32006   0.07006   0.75000   0.00000  Uiso   1.00
C128   C     0.17994   0.42994   0.25000   0.00000  Uiso   1.00
C129   C     0.07006   0.17994   0.75000   0.00000  Uiso   1.00
C130   C     0.42994   0.32006   0.25000   0.00000  Uiso   1.00
C131   C     0.12199   0.40475   0.22479   0.00000  Uiso   1.00
C132   C     0.37804   0.09523   0.77517   0.00000  Uiso   1.00
C133   C     0.09586   0.12259   0.22393   0.00000  Uiso   1.00
C134   C     0.40384   0.37709   0.77649   0.00000  Uiso   1.00
C135   C     0.37801   0.09525   0.22479   0.00000  Uiso   1.00
C136   C     0.24606   0.46722   0.41862   0.00000  Uiso   1.00
C137   C     0.12196   0.40477   0.77517   0.00000  Uiso   1.00
C138   C     0.40414   0.37741   0.22393   0.00000  Uiso   1.00
C139   C     0.09616   0.12291   0.77649   0.00000  Uiso   1.00
C140   C     0.12289   0.09617   0.77648   0.00000  Uiso   1.00
C141   C     0.37740   0.40414   0.22393   0.00000  Uiso   1.00
C142   C     0.09523   0.37804   0.77517   0.00000  Uiso   1.00
C143   C     0.40475   0.12198   0.22479   0.00000  Uiso   1.00
C144   C     0.37710   0.40383   0.77648   0.00000  Uiso   1.00
C145   C     0.12259   0.09586   0.22393   0.00000  Uiso   1.00
C146   C     0.40477   0.12196   0.77517   0.00000  Uiso   1.00
C147   C     0.25381   0.03282   0.58125   0.00000  Uiso   1.00
C148   C     0.09525   0.37802   0.22479   0.00000  Uiso   1.00
C149   C     0.37196   0.15477   0.72483   0.00000  Uiso   1.00
C150   C     0.12802   0.34525   0.27521   0.00000  Uiso   1.00
C151   C     0.34617   0.37289   0.72352   0.00000  Uiso   1.00
C152   C     0.15414   0.12741   0.27607   0.00000  Uiso   1.00
C153   C     0.12804   0.34523   0.72483   0.00000  Uiso   1.00
C154   C     0.37198   0.15475   0.27521   0.00000  Uiso   1.00
C155   C     0.15383   0.12711   0.72352   0.00000  Uiso   1.00
C156   C     0.34586   0.37260   0.27607   0.00000  Uiso   1.00
C157   C     0.37259   0.34586   0.27607   0.00000  Uiso   1.00
C158   C     0.21718   0.49619   0.91875   0.00000  Uiso   1.00
C159   C     0.12709   0.15384   0.72351   0.00000  Uiso   1.00
C160   C     0.34525   0.12801   0.27521   0.00000  Uiso   1.00
C161   C     0.15477   0.37196   0.72483   0.00000  Uiso   1.00
C162   C     0.12741   0.15414   0.27607   0.00000  Uiso   1.00
C163   C     0.37291   0.34616   0.72351   0.00000  Uiso   1.00
C164   C     0.15475   0.37199   0.27521   0.00000  Uiso   1.00
C165   C     0.34523   0.12804   0.72483   0.00000  Uiso   1.00
C166   C     0.03305   0.24429   0.45931   0.00000  Uiso   1.00
C167   C     0.46684   0.25472   0.54083   0.00000  Uiso   1.00
C168   C     0.24725   0.46660   0.45916   0.00000  Uiso   1.00
H169   H     0.11923   0.42760   0.20507   0.00000  Uiso   1.00
H170   H     0.37966   0.42650   0.20350   0.00000  Uiso   1.00
H171   H     0.06357   0.17066   0.93834   0.00000  Uiso   1.00
H172   H     0.03222   0.13463   0.88670   0.00000  Uiso   1.00
H173   H     0.07562   0.11516   0.90003   0.00000  Uiso   1.00
H174   H     0.03378   0.09466   0.91735   0.00000  Uiso   1.00
H175   H     0.43892   0.33385   0.07684   0.00000  Uiso   1.00
H176   H     0.42539   0.33987   0.02698   0.00000  Uiso   1.00
H177   H     0.43839   0.40667   0.03242   0.00000  Uiso   1.00
H178   H     0.40470   0.39133   0.06705   0.00000  Uiso   1.00
H179   H     0.45088   0.40027   0.08280   0.00000  Uiso   1.00
H180   H     0.15106   0.03611   0.92059   0.00000  Uiso   1.00
H181   H     0.07235   0.38082   0.79485   0.00000  Uiso   1.00
H182   H     0.14548   0.05034   0.97022   0.00000  Uiso   1.00
H183   H     0.08385   0.02058   0.97139   0.00000  Uiso   1.00
H184   H     0.08780   0.05569   0.93491   0.00000  Uiso   1.00
H185   H     0.08957   0.00824   0.92087   0.00000  Uiso   1.00
H186   H     0.37836   0.46195   0.03006   0.00000  Uiso   1.00
H187   H     0.34134   0.45715   0.06430   0.00000  Uiso   1.00
H188   H     0.37524   0.49703   0.11096   0.00000  Uiso   1.00
H189   H     0.40048   0.45660   0.09779   0.00000  Uiso   1.00
H190   H     0.41253   0.00008   0.07668   0.00000  Uiso   1.00
H191   H     0.43514   0.36953   0.96880   0.00000  Uiso   1.00
H192   H     0.42760   0.11922   0.20507   0.00000  Uiso   1.00
H193   H     0.43642   0.32934   0.93836   0.00000  Uiso   1.00
H194   H     0.46776   0.36535   0.88670   0.00000  Uiso   1.00
H195   H     0.42437   0.38483   0.90004   0.00000  Uiso   1.00
H196   H     0.46623   0.40533   0.91733   0.00000  Uiso   1.00
H197   H     0.06107   0.16613   0.07685   0.00000  Uiso   1.00
H198   H     0.07460   0.16013   0.02699   0.00000  Uiso   1.00
H199   H     0.06161   0.09334   0.03239   0.00000  Uiso   1.00
H200   H     0.09529   0.10866   0.06703   0.00000  Uiso   1.00
H201   H     0.04911   0.09971   0.08277   0.00000  Uiso   1.00
H202   H     0.37911   0.42594   0.79724   0.00000  Uiso   1.00
H203   H     0.12034   0.07350   0.20350   0.00000  Uiso   1.00
H204   H     0.42765   0.11918   0.79485   0.00000  Uiso   1.00
H205   H     0.07240   0.38078   0.20508   0.00000  Uiso   1.00
H206   H     0.36918   0.17765   0.70515   0.00000  Uiso   1.00
H207   H     0.13078   0.32240   0.29493   0.00000  Uiso   1.00
H208   H     0.32406   0.37089   0.70276   0.00000  Uiso   1.00
H209   H     0.38082   0.07235   0.79485   0.00000  Uiso   1.00
H210   H     0.17650   0.12966   0.29650   0.00000  Uiso   1.00
H211   H     0.13082   0.32235   0.70515   0.00000  Uiso   1.00
H212   H     0.36922   0.17760   0.29492   0.00000  Uiso   1.00
H213   H     0.17594   0.12911   0.70276   0.00000  Uiso   1.00
H214   H     0.32350   0.37034   0.29650   0.00000  Uiso   1.00
H215   H     0.37033   0.32350   0.29649   0.00000  Uiso   1.00
H216   H     0.12909   0.17593   0.70274   0.00000  Uiso   1.00
H217   H     0.32240   0.13077   0.29493   0.00000  Uiso   1.00
H218   H     0.17765   0.36918   0.70515   0.00000  Uiso   1.00
H219   H     0.12967   0.17650   0.29649   0.00000  Uiso   1.00
H220   H     0.07350   0.12033   0.20351   0.00000  Uiso   1.00
H221   H     0.37091   0.32407   0.70273   0.00000  Uiso   1.00
H222   H     0.17760   0.36923   0.29493   0.00000  Uiso   1.00
H223   H     0.32235   0.13082   0.70515   0.00000  Uiso   1.00
H224   H     0.44195   0.25680   0.40273   0.00000  Uiso   1.00
H225   H     0.05809   0.24469   0.59741   0.00000  Uiso   1.00
H226   H     0.25750   0.05789   0.40255   0.00000  Uiso   1.00
H227   H     0.24219   0.44212   0.59730   0.00000  Uiso   1.00
H228   H     0.05805   0.24320   0.40273   0.00000  Uiso   1.00
H229   H     0.44191   0.25533   0.59741   0.00000  Uiso   1.00
H230   H     0.24250   0.44211   0.40255   0.00000  Uiso   1.00
H231   H     0.42593   0.37909   0.79726   0.00000  Uiso   1.00
H232   H     0.25781   0.05787   0.59730   0.00000  Uiso   1.00
H233   H     0.19213   0.49219   0.90270   0.00000  Uiso   1.00
H234   H     0.30789   0.00750   0.09745   0.00000  Uiso   1.00
H235   H     0.49467   0.30809   0.90259   0.00000  Uiso   1.00
H236   H     0.00680   0.19195   0.09727   0.00000  Uiso   1.00
H237   H     0.30787   0.00781   0.90270   0.00000  Uiso   1.00
H238   H     0.19211   0.49249   0.09745   0.00000  Uiso   1.00
H239   H     0.00532   0.19191   0.90259   0.00000  Uiso   1.00
H240   H     0.49320   0.30805   0.09727   0.00000  Uiso   1.00
H241   H     0.08389   0.18893   0.42315   0.00000  Uiso   1.00
H242   H     0.38077   0.07240   0.20507   0.00000  Uiso   1.00
H243   H     0.08987   0.17541   0.47301   0.00000  Uiso   1.00
H244   H     0.15666   0.18840   0.46764   0.00000  Uiso   1.00
H245   H     0.14136   0.15472   0.43300   0.00000  Uiso   1.00
H246   H     0.15031   0.20090   0.41725   0.00000  Uiso   1.00
H247   H     0.38046   0.31486   0.53119   0.00000  Uiso   1.00
H248   H     0.42065   0.31359   0.56162   0.00000  Uiso   1.00
H249   H     0.38467   0.28227   0.61331   0.00000  Uiso   1.00
H250   H     0.36517   0.32564   0.59996   0.00000  Uiso   1.00
H251   H     0.34468   0.28377   0.58269   0.00000  Uiso   1.00
H252   H     0.28806   0.37164   0.46994   0.00000  Uiso   1.00
H253   H     0.11918   0.42765   0.79485   0.00000  Uiso   1.00
H254   H     0.29285   0.40866   0.43569   0.00000  Uiso   1.00
H255   H     0.25297   0.37476   0.38904   0.00000  Uiso   1.00
H256   H     0.29340   0.34953   0.40220   0.00000  Uiso   1.00
H257   H     0.24992   0.33747   0.42332   0.00000  Uiso   1.00
H258   H     0.21388   0.09893   0.57941   0.00000  Uiso   1.00
H259   H     0.19965   0.10451   0.52977   0.00000  Uiso   1.00
H260   H     0.22940   0.16615   0.52861   0.00000  Uiso   1.00
H261   H     0.19429   0.16218   0.56509   0.00000  Uiso   1.00
H262   H     0.24173   0.16042   0.57913   0.00000  Uiso   1.00
H263   H     0.41616   0.31108   0.42316   0.00000  Uiso   1.00
H264   H     0.42650   0.37967   0.20350   0.00000  Uiso   1.00
H265   H     0.41012   0.32461   0.47302   0.00000  Uiso   1.00
H266   H     0.34333   0.31161   0.46756   0.00000  Uiso   1.00
H267   H     0.35868   0.34530   0.43294   0.00000  Uiso   1.00
H268   H     0.34974   0.29912   0.41719   0.00000  Uiso   1.00
H269   H     0.11950   0.18513   0.53122   0.00000  Uiso   1.00
H270   H     0.07933   0.18645   0.56169   0.00000  Uiso   1.00
H271   H     0.11539   0.21782   0.61330   0.00000  Uiso   1.00
H272   H     0.13483   0.17440   0.59999   0.00000  Uiso   1.00
H273   H     0.15535   0.21623   0.58264   0.00000  Uiso   1.00
H274   H     0.21195   0.12836   0.46994   0.00000  Uiso   1.00
H275   H     0.07407   0.12091   0.79726   0.00000  Uiso   1.00
H276   H     0.20715   0.09135   0.43570   0.00000  Uiso   1.00
H277   H     0.24703   0.12524   0.38904   0.00000  Uiso   1.00
H278   H     0.20660   0.15048   0.40221   0.00000  Uiso   1.00
H279   H     0.25009   0.16253   0.42332   0.00000  Uiso   1.00
H280   H     0.28611   0.40105   0.57942   0.00000  Uiso   1.00
H281   H     0.30035   0.39548   0.52978   0.00000  Uiso   1.00
H282   H     0.27058   0.33385   0.52859   0.00000  Uiso   1.00
H283   H     0.30569   0.33780   0.56507   0.00000  Uiso   1.00
H284   H     0.25825   0.33956   0.57911   0.00000  Uiso   1.00
H285   H     0.34895   0.46390   0.92058   0.00000  Uiso   1.00
H286   H     0.12089   0.07406   0.79724   0.00000  Uiso   1.00
H287   H     0.35452   0.44966   0.97022   0.00000  Uiso   1.00
H288   H     0.41615   0.47942   0.97141   0.00000  Uiso   1.00
H289   H     0.41220   0.44431   0.93492   0.00000  Uiso   1.00
H290   H     0.41044   0.49176   0.92089   0.00000  Uiso   1.00
H291   H     0.12163   0.03804   0.03006   0.00000  Uiso   1.00
H292   H     0.15865   0.04285   0.06430   0.00000  Uiso   1.00
H293   H     0.12477   0.00297   0.11096   0.00000  Uiso   1.00
H294   H     0.09952   0.04339   0.09779   0.00000  Uiso   1.00
H295   H     0.08747   0.49991   0.07669   0.00000  Uiso   1.00
H296   H     0.06487   0.13049   0.96879   0.00000  Uiso   1.00
O297   O     0.25000  -0.00000   0.25000   0.00000  Uiso   1.00
O298   O     0.25000   0.46964   0.66245   0.00000  Uiso   1.00
O299   O     0.46963   0.25000   0.33755   0.00000  Uiso   1.00
O300   O     0.03036   0.25000   0.66245   0.00000  Uiso   1.00
O301   O     0.00000   0.21964   0.83755   0.00000  Uiso   1.00
O302   O    -0.00000   0.28036   0.16245   0.00000  Uiso   1.00
O303   O     0.28036  -0.00000   0.83755   0.00000  Uiso   1.00
O304   O     0.21963  -0.00000   0.16245   0.00000  Uiso   1.00
O305   O    -0.00000   0.28036   0.83755   0.00000  Uiso   1.00
O306   O     0.00000   0.21964   0.16245   0.00000  Uiso   1.00
O307   O     0.21963  -0.00000   0.83755   0.00000  Uiso   1.00
O308   O     0.25000   0.00000   0.75000   0.00000  Uiso   1.00
O309   O     0.28036  -0.00000   0.16245   0.00000  Uiso   1.00
O310   O     0.20724   0.07307   0.27302   0.00000  Uiso   1.00
O311   O     0.29275   0.42693   0.72698   0.00000  Uiso   1.00
O312   O     0.42692   0.20724   0.27302   0.00000  Uiso   1.00
O313   O     0.07307   0.29276   0.72698   0.00000  Uiso   1.00
O314   O     0.29275   0.42693   0.27302   0.00000  Uiso   1.00
O315   O     0.20724   0.07307   0.72698   0.00000  Uiso   1.00
O316   O     0.07307   0.29276   0.27302   0.00000  Uiso   1.00
O317   O     0.42692   0.20724   0.72698   0.00000  Uiso   1.00
O318   O     0.20724   0.42693   0.72698   0.00000  Uiso   1.00
O319   O     0.00000   0.25000   0.25000   0.00000  Uiso   1.00
O320   O     0.29275   0.07307   0.27302   0.00000  Uiso   1.00
O321   O     0.42692   0.29275   0.72698   0.00000  Uiso   1.00
O322   O     0.07307   0.20725   0.27302   0.00000  Uiso   1.00
O323   O     0.29275   0.07307   0.72698   0.00000  Uiso   1.00
O324   O     0.20724   0.42693   0.27302   0.00000  Uiso   1.00
O325   O     0.07307   0.20725   0.72698   0.00000  Uiso   1.00
O326   O     0.42692   0.29275   0.27302   0.00000  Uiso   1.00
O327   O     0.45724   0.32307   0.77302   0.00000  Uiso   1.00
O328   O     0.04275   0.17693   0.22698   0.00000  Uiso   1.00
O329   O     0.17692   0.45725   0.77302   0.00000  Uiso   1.00
O330   O    -0.00000   0.25000   0.75000   0.00000  Uiso   1.00
O331   O     0.32307   0.04275   0.22698   0.00000  Uiso   1.00
O332   O     0.04275   0.17693   0.77302   0.00000  Uiso   1.00
O333   O     0.45724   0.32307   0.22698   0.00000  Uiso   1.00
O334   O     0.32307   0.04275   0.77302   0.00000  Uiso   1.00
O335   O     0.17692   0.45725   0.22698   0.00000  Uiso   1.00
O336   O     0.45724   0.17692   0.22698   0.00000  Uiso   1.00
O337   O     0.04275   0.32308   0.77302   0.00000  Uiso   1.00
O338   O     0.17692   0.04275   0.22698   0.00000  Uiso   1.00
O339   O     0.32307   0.45725   0.77302   0.00000  Uiso   1.00
O340   O     0.04275   0.32308   0.22698   0.00000  Uiso   1.00
O341   O     0.25000   0.46964   0.33755   0.00000  Uiso   1.00
O342   O     0.45724   0.17692   0.77302   0.00000  Uiso   1.00
O343   O     0.32307   0.45725   0.22698   0.00000  Uiso   1.00
O344   O     0.17692   0.04275   0.77302   0.00000  Uiso   1.00
O345   O     0.09830   0.23125   0.46048   0.00000  Uiso   1.00
O346   O     0.40101   0.26295   0.54012   0.00000  Uiso   1.00
O347   O     0.24034   0.40059   0.45997   0.00000  Uiso   1.00
O348   O     0.25656   0.09979   0.53960   0.00000  Uiso   1.00
O349   O     0.40170   0.26877   0.46048   0.00000  Uiso   1.00
O350   O     0.09899   0.23706   0.54011   0.00000  Uiso   1.00
O351   O     0.25967   0.09941   0.45997   0.00000  Uiso   1.00
O352   O     0.25000   0.03036   0.66245   0.00000  Uiso   1.00
O353   O     0.24344   0.40020   0.53960   0.00000  Uiso   1.00
O354   O     0.34979   0.00657   0.96040   0.00000  Uiso   1.00
O355   O     0.15059   0.49033   0.04003   0.00000  Uiso   1.00
O356   O     0.01295   0.15101   0.95989   0.00000  Uiso   1.00
O357   O     0.48124   0.34830   0.03952   0.00000  Uiso   1.00
O358   O     0.15021   0.49343   0.96040   0.00000  Uiso   1.00
O359   O     0.34941   0.00967   0.04003   0.00000  Uiso   1.00
O360   O     0.48705   0.34899   0.95988   0.00000  Uiso   1.00
O361   O     0.01876   0.15170   0.03952   0.00000  Uiso   1.00
O362   O     0.03036   0.25000   0.33755   0.00000  Uiso   1.00
O363   O     0.46963   0.25000   0.66245   0.00000  Uiso   1.00
O364   O     0.25000   0.03036   0.33755   0.00000  Uiso   1.00
Zn365  Zn    0.20659  -0.00000   0.21735   0.00000  Uiso   1.00
Zn366  Zn    0.04340   0.25000   0.28265   0.00000  Uiso   1.00
Zn367  Zn    0.25000   0.45660   0.71735   0.00000  Uiso   1.00
Zn368  Zn    0.25000   0.04340   0.28265   0.00000  Uiso   1.00
Zn369  Zn    0.04340   0.25000   0.71735   0.00000  Uiso   1.00
Zn370  Zn    0.45659   0.25000   0.28265   0.00000  Uiso   1.00
Zn371  Zn    0.25000   0.04340   0.71735   0.00000  Uiso   1.00
Zn372  Zn    0.25000   0.45660   0.28265   0.00000  Uiso   1.00
Zn373  Zn    0.29340  -0.00000   0.78265   0.00000  Uiso   1.00
Zn374  Zn    0.00000   0.20660   0.21735   0.00000  Uiso   1.00
Zn375  Zn    0.00000   0.29341   0.78265   0.00000  Uiso   1.00
Zn376  Zn    0.29340  -0.00000   0.21735   0.00000  Uiso   1.00
Zn377  Zn    0.20659  -0.00000   0.78265   0.00000  Uiso   1.00
Zn378  Zn   -0.00000   0.29340   0.21735   0.00000  Uiso   1.00
Zn379  Zn    0.00000   0.20660   0.78265   0.00000  Uiso   1.00
Zn380  Zn    0.45659   0.25000   0.71735   0.00000  Uiso   1.00
C381   C     0.96722   0.25429   0.41876   0.00000  Uiso   1.00
C382   C     0.78278   0.00394   0.08138   0.00000  Uiso   1.00
C383   C     0.75243   0.03344   0.54070   0.00000  Uiso   1.00
C384   C     0.96695   0.25571   0.45931   0.00000  Uiso   1.00
C385   C     0.53316   0.24529   0.54083   0.00000  Uiso   1.00
C386   C     0.75276   0.03339   0.45916   0.00000  Uiso   1.00
C387   C     0.74757   0.46656   0.54070   0.00000  Uiso   1.00
C388   C     0.78344   0.00243   0.95930   0.00000  Uiso   1.00
C389   C     0.71661   0.49724   0.04084   0.00000  Uiso   1.00
C390   C     0.50472   0.21684   0.95917   0.00000  Uiso   1.00
C391   C     0.99429   0.28305   0.04069   0.00000  Uiso   1.00
C392   C     0.71656   0.49757   0.95930   0.00000  Uiso   1.00
C393   C     0.99678   0.28285   0.91864   0.00000  Uiso   1.00
C394   C     0.78339   0.00275   0.04084   0.00000  Uiso   1.00
C395   C     0.99528   0.28316   0.95917   0.00000  Uiso   1.00
C396   C     0.50571   0.21695   0.04069   0.00000  Uiso   1.00
C397   C     0.59813   0.34813   0.25000   0.00000  Uiso   1.00
C398   C     0.90187   0.15187   0.75000   0.00000  Uiso   1.00
C399   C     0.65187   0.09813   0.25000   0.00000  Uiso   1.00
C400   C     0.84813   0.40187   0.75000   0.00000  Uiso   1.00
C401   C     0.90187   0.15187   0.25000   0.00000  Uiso   1.00
C402   C     0.59813   0.34813   0.75000   0.00000  Uiso   1.00
C403   C     0.84813   0.40187   0.25000   0.00000  Uiso   1.00
C404   C     0.50429   0.21722   0.08124   0.00000  Uiso   1.00
C405   C     0.65187   0.09813   0.75000   0.00000  Uiso   1.00
C406   C     0.59813   0.15187   0.75000   0.00000  Uiso   1.00
C407   C     0.90187   0.34813   0.25000   0.00000  Uiso   1.00
C408   C     0.65187   0.40187   0.75000   0.00000  Uiso   1.00
C409   C     0.84813   0.09813   0.25000   0.00000  Uiso   1.00
C410   C     0.90187   0.34813   0.75000   0.00000  Uiso   1.00
C411   C     0.59813   0.15187   0.25000   0.00000  Uiso   1.00
C412   C     0.84813   0.09813   0.75000   0.00000  Uiso   1.00
C413   C     0.65187   0.40187   0.25000   0.00000  Uiso   1.00
C414   C     0.50000   0.25000   0.47970   0.00000  Uiso   1.00
C415   C     0.78282   0.00381   0.91875   0.00000  Uiso   1.00
C416   C     0.50000   0.25000   0.52041   0.00000  Uiso   1.00
C417   C     0.75000  -0.00000   0.47958   0.00000  Uiso   1.00
C418   C     0.75000  -0.00000   0.52030   0.00000  Uiso   1.00
C419   C     0.75000  -0.00000   0.97970   0.00000  Uiso   1.00
C420   C     0.75000  -0.00000   0.02042   0.00000  Uiso   1.00
C421   C     0.50000   0.25000   0.97959   0.00000  Uiso   1.00
C422   C     0.50000   0.25000   0.02030   0.00000  Uiso   1.00
C423   C     0.60014   0.19398   0.44983   0.00000  Uiso   1.00
C424   C     0.63962   0.18391   0.44141   0.00000  Uiso   1.00
C425   C     0.89503   0.29890   0.55372   0.00000  Uiso   1.00
C426   C     0.71722   0.49606   0.08138   0.00000  Uiso   1.00
C427   C     0.87088   0.29751   0.58965   0.00000  Uiso   1.00
C428   C     0.77413   0.38689   0.44644   0.00000  Uiso   1.00
C429   C     0.76713   0.36051   0.41317   0.00000  Uiso   1.00
C430   C     0.72139   0.11148   0.55118   0.00000  Uiso   1.00
C431   C     0.72177   0.15267   0.55632   0.00000  Uiso   1.00
C432   C     0.89987   0.30603   0.44982   0.00000  Uiso   1.00
C433   C     0.86041   0.31610   0.44136   0.00000  Uiso   1.00
C434   C     0.60496   0.20112   0.55375   0.00000  Uiso   1.00
C435   C     0.62914   0.20253   0.58965   0.00000  Uiso   1.00
C436   C     0.72588   0.11311   0.44645   0.00000  Uiso   1.00
C437   C     0.50322   0.21715   0.91864   0.00000  Uiso   1.00
C438   C     0.73287   0.13949   0.41317   0.00000  Uiso   1.00
C439   C     0.77860   0.38851   0.55118   0.00000  Uiso   1.00
C440   C     0.77821   0.34732   0.55630   0.00000  Uiso   1.00
C441   C     0.86149   0.47140   0.94882   0.00000  Uiso   1.00
C442   C     0.90268   0.47180   0.94369   0.00000  Uiso   1.00
C443   C     0.63689   0.02412   0.05355   0.00000  Uiso   1.00
C444   C     0.61051   0.01712   0.08683   0.00000  Uiso   1.00
C445   C     0.54889   0.14504   0.94626   0.00000  Uiso   1.00
C446   C     0.54749   0.12086   0.91035   0.00000  Uiso   1.00
C447   C     0.94397   0.35013   0.05018   0.00000  Uiso   1.00
C448   C     0.99571   0.28278   0.08124   0.00000  Uiso   1.00
C449   C     0.93390   0.38960   0.05863   0.00000  Uiso   1.00
C450   C     0.63851   0.02860   0.94882   0.00000  Uiso   1.00
C451   C     0.59732   0.02820   0.94368   0.00000  Uiso   1.00
C452   C     0.86311   0.47588   0.05355   0.00000  Uiso   1.00
C453   C     0.88949   0.48287   0.08683   0.00000  Uiso   1.00
C454   C     0.95111   0.35497   0.94627   0.00000  Uiso   1.00
C455   C     0.95250   0.37913   0.91035   0.00000  Uiso   1.00
C456   C     0.55603   0.14987   0.05018   0.00000  Uiso   1.00
C457   C     0.56610   0.11039   0.05861   0.00000  Uiso   1.00
C458   C     0.50000   0.25000   0.39848   0.00000  Uiso   1.00
C459   C     0.50000   0.25000   0.60161   0.00000  Uiso   1.00
C460   C     0.75000  -0.00000   0.39838   0.00000  Uiso   1.00
C461   C     0.53285   0.24679   0.58136   0.00000  Uiso   1.00
C462   C     0.75000  -0.00000   0.60153   0.00000  Uiso   1.00
C463   C     0.75000   0.00000   0.89847   0.00000  Uiso   1.00
C464   C     0.75000   0.00000   0.10162   0.00000  Uiso   1.00
C465   C     0.50000   0.25000   0.89839   0.00000  Uiso   1.00
C466   C     0.50000   0.25000   0.10152   0.00000  Uiso   1.00
C467   C     0.56578   0.23758   0.47982   0.00000  Uiso   1.00
C468   C     0.93400   0.26107   0.52053   0.00000  Uiso   1.00
C469   C     0.74576   0.43320   0.47951   0.00000  Uiso   1.00
C470   C     0.75374   0.06682   0.52024   0.00000  Uiso   1.00
C471   C     0.93422   0.26243   0.47982   0.00000  Uiso   1.00
C472   C     0.75394   0.03278   0.41862   0.00000  Uiso   1.00
C473   C     0.56600   0.23894   0.52053   0.00000  Uiso   1.00
C474   C     0.75425   0.06680   0.47951   0.00000  Uiso   1.00
C475   C     0.74627   0.43318   0.52024   0.00000  Uiso   1.00
C476   C     0.81682   0.00374   0.97976   0.00000  Uiso   1.00
C477   C     0.68320   0.49575   0.02049   0.00000  Uiso   1.00
C478   C     0.51107   0.18400   0.97947   0.00000  Uiso   1.00
C479   C     0.98757   0.31578   0.02018   0.00000  Uiso   1.00
C480   C     0.68318   0.49626   0.97976   0.00000  Uiso   1.00
C481   C     0.81680   0.00425   0.02049   0.00000  Uiso   1.00
C482   C     0.98893   0.31599   0.97947   0.00000  Uiso   1.00
C483   C     0.74619   0.46718   0.58125   0.00000  Uiso   1.00
C484   C     0.51243   0.18422   0.02018   0.00000  Uiso   1.00
C485   C     0.75000   0.00000   0.35595   0.00000  Uiso   1.00
C486   C     0.75000   0.00000   0.64402   0.00000  Uiso   1.00
C487   C     0.50000   0.25000   0.35599   0.00000  Uiso   1.00
C488   C     0.50000   0.25000   0.64404   0.00000  Uiso   1.00
C489   C     0.50000   0.25000   0.85596   0.00000  Uiso   1.00
C490   C     0.50000   0.25000   0.14401   0.00000  Uiso   1.00
C491   C     0.75000   0.00000   0.85599   0.00000  Uiso   1.00
C492   C     0.75000  -0.00000   0.14405   0.00000  Uiso   1.00
C493   C     0.67994   0.07006   0.25000   0.00000  Uiso   1.00
C494   C     0.53278   0.24571   0.41876   0.00000  Uiso   1.00
C495   C     0.82006   0.42994   0.75000   0.00000  Uiso   1.00
C496   C     0.92994   0.17994   0.25000   0.00000  Uiso   1.00
C497   C     0.57006   0.32006   0.75000   0.00000  Uiso   1.00
C498   C     0.82006   0.42994   0.25000   0.00000  Uiso   1.00
C499   C     0.67994   0.07006   0.75000   0.00000  Uiso   1.00
C500   C     0.57006   0.32006   0.25000   0.00000  Uiso   1.00
C501   C     0.92994   0.17994   0.75000   0.00000  Uiso   1.00
C502   C     0.67994   0.42994   0.75000   0.00000  Uiso   1.00
C503   C     0.82006   0.07006   0.25000   0.00000  Uiso   1.00
C504   C     0.92994   0.32006   0.75000   0.00000  Uiso   1.00
C505   C     0.96715   0.25322   0.58136   0.00000  Uiso   1.00
C506   C     0.57006   0.17994   0.25000   0.00000  Uiso   1.00
C507   C     0.82006   0.07006   0.75000   0.00000  Uiso   1.00
C508   C     0.67994   0.42994   0.25000   0.00000  Uiso   1.00
C509   C     0.57006   0.17994   0.75000   0.00000  Uiso   1.00
C510   C     0.92994   0.32006   0.25000   0.00000  Uiso   1.00
C511   C     0.62199   0.40475   0.22479   0.00000  Uiso   1.00
C512   C     0.87804   0.09523   0.77517   0.00000  Uiso   1.00
C513   C     0.59586   0.12259   0.22393   0.00000  Uiso   1.00
C514   C     0.90384   0.37709   0.77649   0.00000  Uiso   1.00
C515   C     0.87801   0.09525   0.22479   0.00000  Uiso   1.00
C516   C     0.74606   0.46722   0.41862   0.00000  Uiso   1.00
C517   C     0.62196   0.40477   0.77517   0.00000  Uiso   1.00
C518   C     0.90414   0.37741   0.22393   0.00000  Uiso   1.00
C519   C     0.59616   0.12291   0.77649   0.00000  Uiso   1.00
C520   C     0.62289   0.09617   0.77648   0.00000  Uiso   1.00
C521   C     0.87740   0.40414   0.22393   0.00000  Uiso   1.00
C522   C     0.59523   0.37804   0.77517   0.00000  Uiso   1.00
C523   C     0.90475   0.12198   0.22479   0.00000  Uiso   1.00
C524   C     0.87710   0.40383   0.77648   0.00000  Uiso   1.00
C525   C     0.62259   0.09586   0.22393   0.00000  Uiso   1.00
C526   C     0.90477   0.12196   0.77517   0.00000  Uiso   1.00
C527   C     0.75381   0.03282   0.58125   0.00000  Uiso   1.00
C528   C     0.59525   0.37802   0.22479   0.00000  Uiso   1.00
C529   C     0.87196   0.15477   0.72483   0.00000  Uiso   1.00
C530   C     0.62802   0.34525   0.27521   0.00000  Uiso   1.00
C531   C     0.84617   0.37289   0.72352   0.00000  Uiso   1.00
C532   C     0.65414   0.12741   0.27607   0.00000  Uiso   1.00
C533   C     0.62804   0.34523   0.72483   0.00000  Uiso   1.00
C534   C     0.87198   0.15475   0.27521   0.00000  Uiso   1.00
C535   C     0.65383   0.12711   0.72352   0.00000  Uiso   1.00
C536   C     0.84586   0.37260   0.27607   0.00000  Uiso   1.00
C537   C     0.87259   0.34586   0.27607   0.00000  Uiso   1.00
C538   C     0.71718   0.49619   0.91875   0.00000  Uiso   1.00
C539   C     0.62709   0.15384   0.72351   0.00000  Uiso   1.00
C540   C     0.84525   0.12801   0.27521   0.00000  Uiso   1.00
C541   C     0.65477   0.37196   0.72483   0.00000  Uiso   1.00
C542   C     0.62741   0.15414   0.27607   0.00000  Uiso   1.00
C543   C     0.87291   0.34616   0.72351   0.00000  Uiso   1.00
C544   C     0.65475   0.37199   0.27521   0.00000  Uiso   1.00
C545   C     0.84523   0.12804   0.72483   0.00000  Uiso   1.00
C546   C     0.53305   0.24429   0.45931   0.00000  Uiso   1.00
C547   C     0.96684   0.25472   0.54083   0.00000  Uiso   1.00
C548   C     0.74725   0.46660   0.45916   0.00000  Uiso   1.00
H549   H     0.61923   0.42760   0.20507   0.00000  Uiso   1.00
H550   H     0.87966   0.42650   0.20350   0.00000  Uiso   1.00
H551   H     0.56357   0.17066   0.93834   0.00000  Uiso   1.00
H552   H     0.53222   0.13463   0.88670   0.00000  Uiso   1.00
H553   H     0.57562   0.11516   0.90003   0.00000  Uiso   1.00
H554   H     0.53378   0.09466   0.91735   0.00000  Uiso   1.00
H555   H     0.93892   0.33385   0.07684   0.00000  Uiso   1.00
H556   H     0.92539   0.33987   0.02698   0.00000  Uiso   1.00
H557   H     0.93839   0.40667   0.03242   0.00000  Uiso   1.00
H558   H     0.90470   0.39133   0.06705   0.00000  Uiso   1.00
H559   H     0.95088   0.40027   0.08280   0.00000  Uiso   1.00
H560   H     0.65106   0.03611   0.92059   0.00000  Uiso   1.00
H561   H     0.57235   0.38082   0.79485   0.00000  Uiso   1.00
H562   H     0.64548   0.05034   0.97022   0.00000  Uiso   1.00
H563   H     0.58385   0.02058   0.97139   0.00000  Uiso   1.00
H564   H     0.58780   0.05569   0.93491   0.00000  Uiso   1.00
H565   H     0.58957   0.00824   0.92087   0.00000  Uiso   1.00
H566   H     0.87836   0.46195   0.03006   0.00000  Uiso   1.00
H567   H     0.84134   0.45715   0.06430   0.00000  Uiso   1.00
H568   H     0.87524   0.49703   0.11096   0.00000  Uiso   1.00
H569   H     0.90048   0.45660   0.09779   0.00000  Uiso   1.00
H570   H     0.91253   0.00008   0.07668   0.00000  Uiso   1.00
H571   H     0.93514   0.36953   0.96880   0.00000  Uiso   1.00
H572   H     0.92760   0.11922   0.20507   0.00000  Uiso   1.00
H573   H     0.93642   0.32934   0.93836   0.00000  Uiso   1.00
H574   H     0.96776   0.36535   0.88670   0.00000  Uiso   1.00
H575   H     0.92437   0.38483   0.90004   0.00000  Uiso   1.00
H576   H     0.96623   0.40533   0.91733   0.00000  Uiso   1.00
H577   H     0.56107   0.16613   0.07685   0.00000  Uiso   1.00
H578   H     0.57460   0.16013   0.02699   0.00000  Uiso   1.00
H579   H     0.56161   0.09334   0.03239   0.00000  Uiso   1.00
H580   H     0.59529   0.10866   0.06703   0.00000  Uiso   1.00
H581   H     0.54911   0.09971   0.08277   0.00000  Uiso   1.00
H582   H     0.87911   0.42594   0.79724   0.00000  Uiso   1.00
H583   H     0.62034   0.07350   0.20350   0.00000  Uiso   1.00
H584   H     0.92765   0.11918   0.79485   0.00000  Uiso   1.00
H585   H     0.57240   0.38078   0.20508   0.00000  Uiso   1.00
H586   H     0.86918   0.17765   0.70515   0.00000  Uiso   1.00
H587   H     0.63078   0.32240   0.29493   0.00000  Uiso   1.00
H588   H     0.82406   0.37089   0.70276   0.00000  Uiso   1.00
H589   H     0.88082   0.07235   0.79485   0.00000  Uiso   1.00
H590   H     0.67650   0.12966   0.29650   0.00000  Uiso   1.00
H591   H     0.63082   0.32235   0.70515   0.00000  Uiso   1.00
H592   H     0.86922   0.17760   0.29492   0.00000  Uiso   1.00
H593   H     0.67594   0.12911   0.70276   0.00000  Uiso   1.00
H594   H     0.82350   0.37034   0.29650   0.00000  Uiso   1.00
H595   H     0.87033   0.32350   0.29649   0.00000  Uiso   1.00
H596   H     0.62909   0.17593   0.70274   0.00000  Uiso   1.00
H597   H     0.82240   0.13077   0.29493   0.00000  Uiso   1.00
H598   H     0.67765   0.36918   0.70515   0.00000  Uiso   1.00
H599   H     0.62967   0.17650   0.29649   0.00000  Uiso   1.00
H600   H     0.57350   0.12033   0.20351   0.00000  Uiso   1.00
H601   H     0.87091   0.32407   0.70273   0.00000  Uiso   1.00
H602   H     0.67760   0.36923   0.29493   0.00000  Uiso   1.00
H603   H     0.82235   0.13082   0.70515   0.00000  Uiso   1.00
H604   H     0.94195   0.25680   0.40273   0.00000  Uiso   1.00
H605   H     0.55809   0.24469   0.59741   0.00000  Uiso   1.00
H606   H     0.75750   0.05789   0.40255   0.00000  Uiso   1.00
H607   H     0.74219   0.44212   0.59730   0.00000  Uiso   1.00
H608   H     0.55805   0.24320   0.40273   0.00000  Uiso   1.00
H609   H     0.94191   0.25533   0.59741   0.00000  Uiso   1.00
H610   H     0.74250   0.44211   0.40255   0.00000  Uiso   1.00
H611   H     0.92593   0.37909   0.79726   0.00000  Uiso   1.00
H612   H     0.75781   0.05787   0.59730   0.00000  Uiso   1.00
H613   H     0.69213   0.49219   0.90270   0.00000  Uiso   1.00
H614   H     0.80789   0.00750   0.09745   0.00000  Uiso   1.00
H615   H     0.99467   0.30809   0.90259   0.00000  Uiso   1.00
H616   H     0.50680   0.19195   0.09727   0.00000  Uiso   1.00
H617   H     0.80787   0.00781   0.90270   0.00000  Uiso   1.00
H618   H     0.69211   0.49249   0.09745   0.00000  Uiso   1.00
H619   H     0.50532   0.19191   0.90259   0.00000  Uiso   1.00
H620   H     0.99320   0.30805   0.09727   0.00000  Uiso   1.00
H621   H     0.58389   0.18893   0.42315   0.00000  Uiso   1.00
H622   H     0.88077   0.07240   0.20507   0.00000  Uiso   1.00
H623   H     0.58987   0.17541   0.47301   0.00000  Uiso   1.00
H624   H     0.65666   0.18840   0.46764   0.00000  Uiso   1.00
H625   H     0.64136   0.15472   0.43300   0.00000  Uiso   1.00
H626   H     0.65031   0.20090   0.41725   0.00000  Uiso   1.00
H627   H     0.88046   0.31486   0.53119   0.00000  Uiso   1.00
H628   H     0.92065   0.31359   0.56162   0.00000  Uiso   1.00
H629   H     0.88467   0.28227   0.61331   0.00000  Uiso   1.00
H630   H     0.86517   0.32564   0.59996   0.00000  Uiso   1.00
H631   H     0.84468   0.28377   0.58269   0.00000  Uiso   1.00
H632   H     0.78806   0.37164   0.46994   0.00000  Uiso   1.00
H633   H     0.61918   0.42765   0.79485   0.00000  Uiso   1.00
H634   H     0.79285   0.40866   0.43569   0.00000  Uiso   1.00
H635   H     0.75297   0.37476   0.38904   0.00000  Uiso   1.00
H636   H     0.79340   0.34953   0.40220   0.00000  Uiso   1.00
H637   H     0.74992   0.33747   0.42332   0.00000  Uiso   1.00
H638   H     0.71388   0.09893   0.57941   0.00000  Uiso   1.00
H639   H     0.69965   0.10451   0.52977   0.00000  Uiso   1.00
H640   H     0.72940   0.16615   0.52861   0.00000  Uiso   1.00
H641   H     0.69429   0.16218   0.56509   0.00000  Uiso   1.00
H642   H     0.74173   0.16042   0.57913   0.00000  Uiso   1.00
H643   H     0.91616   0.31108   0.42316   0.00000  Uiso   1.00
H644   H     0.92650   0.37967   0.20350   0.00000  Uiso   1.00
H645   H     0.91012   0.32461   0.47302   0.00000  Uiso   1.00
H646   H     0.84333   0.31161   0.46756   0.00000  Uiso   1.00
H647   H     0.85868   0.34530   0.43294   0.00000  Uiso   1.00
H648   H     0.84974   0.29912   0.41719   0.00000  Uiso   1.00
H649   H     0.61950   0.18513   0.53122   0.00000  Uiso   1.00
H650   H     0.57933   0.18645   0.56169   0.00000  Uiso   1.00
H651   H     0.61539   0.21782   0.61330   0.00000  Uiso   1.00
H652   H     0.63483   0.17440   0.59999   0.00000  Uiso   1.00
H653   H     0.65535   0.21623   0.58264   0.00000  Uiso   1.00
H654   H     0.71195   0.12836   0.46994   0.00000  Uiso   1.00
H655   H     0.57407   0.12091   0.79726   0.00000  Uiso   1.00
H656   H     0.70715   0.09135   0.43570   0.00000  Uiso   1.00
H657   H     0.74703   0.12524   0.38904   0.00000  Uiso   1.00
H658   H     0.70660   0.15048   0.40221   0.00000  Uiso   1.00
H659   H     0.75009   0.16253   0.42332   0.00000  Uiso   1.00
H660   H     0.78611   0.40105   0.57942   0.00000  Uiso   1.00
H661   H     0.80035   0.39548   0.52978   0.00000  Uiso   1.00
H662   H     0.77058   0.33385   0.52859   0.00000  Uiso   1.00
H663   H     0.80569   0.33780   0.56507   0.00000  Uiso   1.00
H664   H     0.75825   0.33956   0.57911   0.00000  Uiso   1.00
H665   H     0.84895   0.46390   0.92058   0.00000  Uiso   1.00
H666   H     0.62089   0.07406   0.79724   0.00000  Uiso   1.00
H667   H     0.85452   0.44966   0.97022   0.00000  Uiso   1.00
H668   H     0.91615   0.47942   0.97141   0.00000  Uiso   1.00
H669   H     0.91220   0.44431   0.93492   0.00000  Uiso   1.00
H670   H     0.91044   0.49176   0.92089   0.00000  Uiso   1.00
H671   H     0.62163   0.03804   0.03006   0.00000  Uiso   1.00
H672   H     0.65865   0.04285   0.06430   0.00000  Uiso   1.00
H673   H     0.62477   0.00297   0.11096   0.00000  Uiso   1.00
H674   H     0.59952   0.04339   0.09779   0.00000  Uiso   1.00
H675   H     0.58747   0.49991   0.07669   0.00000  Uiso   1.00
H676   H     0.56487   0.13049   0.96879   0.00000  Uiso   1.00
O677   O     0.75000  -0.00000   0.25000   0.00000  Uiso   1.00
O678   O     0.75000   0.46964   0.66245   0.00000  Uiso   1.00
O679   O     0.96963   0.25000   0.33755   0.00000  Uiso   1.00
O680   O     0.53036   0.25000   0.66245   0.00000  Uiso   1.00
O681   O     0.50000   0.21964   0.83755   0.00000  Uiso   1.00
O682   O     0.50000   0.28036   0.16245   0.00000  Uiso   1.00
O683   O     0.78036  -0.00000   0.83755   0.00000  Uiso   1.00
O684   O     0.71963  -0.00000   0.16245   0.00000  Uiso   1.00
O685   O     0.50000   0.28036   0.83755   0.00000  Uiso   1.00
O686   O     0.50000   0.21964   0.16245   0.00000  Uiso   1.00
O687   O     0.71963  -0.00000   0.83755   0.00000  Uiso   1.00
O688   O     0.75000   0.00000   0.75000   0.00000  Uiso   1.00
O689   O     0.78036  -0.00000   0.16245   0.00000  Uiso   1.00
O690   O     0.70724   0.07307   0.27302   0.00000  Uiso   1.00
O691   O     0.79275   0.42693   0.72698   0.00000  Uiso   1.00
O692   O     0.92692   0.20724   0.27302   0.00000  Uiso   1.00
O693   O     0.57307   0.29276   0.72698   0.00000  Uiso   1.00
O694   O     0.79275   0.42693   0.27302   0.00000  Uiso   1.00
O695   O     0.70724   0.07307   0.72698   0.00000  Uiso   1.00
O696   O     0.57307   0.29276   0.27302   0.00000  Uiso   1.00
O697   O     0.92692   0.20724   0.72698   0.00000  Uiso   1.00
O698   O     0.70724   0.42693   0.72698   0.00000  Uiso   1.00
O699   O     0.50000   0.25000   0.25000   0.00000  Uiso   1.00
O700   O     0.79275   0.07307   0.27302   0.00000  Uiso   1.00
O701   O     0.92692   0.29275   0.72698   0.00000  Uiso   1.00
O702   O     0.57307   0.20725   0.27302   0.00000  Uiso   1.00
O703   O     0.79275   0.07307   0.72698   0.00000  Uiso   1.00
O704   O     0.70724   0.42693   0.27302   0.00000  Uiso   1.00
O705   O     0.57307   0.20725   0.72698   0.00000  Uiso   1.00
O706   O     0.92692   0.29275   0.27302   0.00000  Uiso   1.00
O707   O     0.95724   0.32307   0.77302   0.00000  Uiso   1.00
O708   O     0.54275   0.17693   0.22698   0.00000  Uiso   1.00
O709   O     0.67692   0.45725   0.77302   0.00000  Uiso   1.00
O710   O     0.50000   0.25000   0.75000   0.00000  Uiso   1.00
O711   O     0.82307   0.04275   0.22698   0.00000  Uiso   1.00
O712   O     0.54275   0.17693   0.77302   0.00000  Uiso   1.00
O713   O     0.95724   0.32307   0.22698   0.00000  Uiso   1.00
O714   O     0.82307   0.04275   0.77302   0.00000  Uiso   1.00
O715   O     0.67692   0.45725   0.22698   0.00000  Uiso   1.00
O716   O     0.95724   0.17692   0.22698   0.00000  Uiso   1.00
O717   O     0.54275   0.32308   0.77302   0.00000  Uiso   1.00
O718   O     0.67692   0.04275   0.22698   0.00000  Uiso   1.00
O719   O     0.82307   0.45725   0.77302   0.00000  Uiso   1.00
O720   O     0.54275   0.32308   0.22698   0.00000  Uiso   1.00
O721   O     0.75000   0.46964   0.33755   0.00000  Uiso   1.00
O722   O     0.95724   0.17692   0.77302   0.00000  Uiso   1.00
O723   O     0.82307   0.45725   0.22698   0.00000  Uiso   1.00
O724   O     0.67692   0.04275   0.77302   0.00000  Uiso   1.00
O725   O     0.59830   0.23125   0.46048   0.00000  Uiso   1.00
O726   O     0.90101   0.26295   0.54012   0.00000  Uiso   1.00
O727   O     0.74034   0.40059   0.45997   0.00000  Uiso   1.00
O728   O     0.75656   0.09979   0.53960   0.00000  Uiso   1.00
O729   O     0.90170   0.26877   0.46048   0.00000  Uiso   1.00
O730   O     0.59899   0.23706   0.54011   0.00000  Uiso   1.00
O731   O     0.75967   0.09941   0.45997   0.00000  Uiso   1.00
O732   O     0.75000   0.03036   0.66245   0.00000  Uiso   1.00
O733   O     0.74344   0.40020   0.53960   0.00000  Uiso   1.00
O734   O     0.84979   0.00657   0.96040   0.00000  Uiso   1.00
O735   O     0.65059   0.49033   0.04003   0.00000  Uiso   1.00
O736   O     0.51295   0.15101   0.95989   0.00000  Uiso   1.00
O737   O     0.98124   0.34830   0.03952   0.00000  Uiso   1.00
O738   O     0.65021   0.49343   0.96040   0.00000  Uiso   1.00
O739   O     0.84941   0.00967   0.04003   0.00000  Uiso   1.00
O740   O     0.98705   0.34899   0.95988   0.00000  Uiso   1.00
O741   O     0.51876   0.15170   0.03952   0.00000  Uiso   1.00
O742   O     0.53036   0.25000   0.33755   0.00000  Uiso   1.00
O743   O     0.96963   0.25000   0.66245   0.00000  Uiso   1.00
O744   O     0.75000   0.03036   0.33755   0.00000  Uiso   1.00
Zn745  Zn    0.70659  -0.00000   0.21735   0.00000  Uiso   1.00
Zn746  Zn    0.54340   0.25000   0.28265   0.00000  Uiso   1.00
Zn747  Zn    0.75000   0.45660   0.71735   0.00000  Uiso   1.00
Zn748  Zn    0.75000   0.04340   0.28265   0.00000  Uiso   1.00
Zn749  Zn    0.54340   0.25000   0.71735   0.00000  Uiso   1.00
Zn750  Zn    0.95659   0.25000   0.28265   0.00000  Uiso   1.00
Zn751  Zn    0.75000   0.04340   0.71735   0.00000  Uiso   1.00
Zn752  Zn    0.75000   0.45660   0.28265   0.00000  Uiso   1.00
Zn753  Zn    0.79340  -0.00000   0.78265   0.00000  Uiso   1.00
Zn754  Zn    0.50000   0.20660   0.21735   0.00000  Uiso   1.00
Zn755  Zn    0.50000   0.29341   0.78265   0.00000  Uiso   1.00
Zn756  Zn    0.79340  -0.00000   0.21735   0.00000  Uiso   1.00
Zn757  Zn    0.70659  -0.00000   0.78265   0.00000  Uiso   1.00
Zn758  Zn    0.50000   0.29340   0.21735   0.00000  Uiso   1.00
Zn759  Zn    0.50000   0.20660   0.78265   0.00000  Uiso   1.00
Zn760  Zn    0.95659   0.25000   0.71735   0.00000  Uiso   1.00
C761   C     0.46722   0.75429   0.41876   0.00000  Uiso   1.00
C762   C     0.28278   0.50394   0.08138   0.00000  Uiso   1.00
C763   C     0.25243   0.53344   0.54070   0.00000  Uiso   1.00
C764   C     0.46695   0.75571   0.45931   0.00000  Uiso   1.00
C765   C     0.03316   0.74529   0.54083   0.00000  Uiso   1.00
C766   C     0.25276   0.53339   0.45916   0.00000  Uiso   1.00
C767   C     0.24757   0.96656   0.54070   0.00000  Uiso   1.00
C768   C     0.28344   0.50243   0.95930   0.00000  Uiso   1.00
C769   C     0.21661   0.99724   0.04084   0.00000  Uiso   1.00
C770   C     0.00472   0.71684   0.95917   0.00000  Uiso   1.00
C771   C     0.49429   0.78305   0.04069   0.00000  Uiso   1.00
C772   C     0.21656   0.99757   0.95930   0.00000  Uiso   1.00
C773   C     0.49678   0.78285   0.91864   0.00000  Uiso   1.00
C774   C     0.28339   0.50275   0.04084   0.00000  Uiso   1.00
C775   C     0.49528   0.78316   0.95917   0.00000  Uiso   1.00
C776   C     0.00571   0.71695   0.04069   0.00000  Uiso   1.00
C777   C     0.09813   0.84813   0.25000   0.00000  Uiso   1.00
C778   C     0.40187   0.65187   0.75000   0.00000  Uiso   1.00
C779   C     0.15187   0.59813   0.25000   0.00000  Uiso   1.00
C780   C     0.34813   0.90187   0.75000   0.00000  Uiso   1.00
C781   C     0.40187   0.65187   0.25000   0.00000  Uiso   1.00
C782   C     0.09813   0.84813   0.75000   0.00000  Uiso   1.00
C783   C     0.34813   0.90187   0.25000   0.00000  Uiso   1.00
C784   C     0.00429   0.71722   0.08124   0.00000  Uiso   1.00
C785   C     0.15187   0.59813   0.75000   0.00000  Uiso   1.00
C786   C     0.09813   0.65187   0.75000   0.00000  Uiso   1.00
C787   C     0.40187   0.84813   0.25000   0.00000  Uiso   1.00
C788   C     0.15187   0.90187   0.75000   0.00000  Uiso   1.00
C789   C     0.34813   0.59813   0.25000   0.00000  Uiso   1.00
C790   C     0.40187   0.84813   0.75000   0.00000  Uiso   1.00
C791   C     0.09813   0.65187   0.25000   0.00000  Uiso   1.00
C792   C     0.34813   0.59813   0.75000   0.00000  Uiso   1.00
C793   C     0.15187   0.90187   0.25000   0.00000  Uiso   1.00
C794   C     0.00000   0.75000   0.47970   0.00000  Uiso   1.00
C795   C     0.28282   0.50381   0.91875   0.00000  Uiso   1.00
C796   C     0.00000   0.75000   0.52041   0.00000  Uiso   1.00
C797   C     0.25000   0.50000   0.47958   0.00000  Uiso   1.00
C798   C     0.25000   0.50000   0.52030   0.00000  Uiso   1.00
C799   C     0.25000   0.50000   0.97970   0.00000  Uiso   1.00
C800   C     0.25000   0.50000   0.02042   0.00000  Uiso   1.00
C801   C    -0.00000   0.75000   0.97959   0.00000  Uiso   1.00
C802   C    -0.00000   0.75000   0.02030   0.00000  Uiso   1.00
C803   C     0.10014   0.69398   0.44983   0.00000  Uiso   1.00
C804   C     0.13962   0.68391   0.44141   0.00000  Uiso   1.00
C805   C     0.39503   0.79890   0.55372   0.00000  Uiso   1.00
C806   C     0.21722   0.99606   0.08138   0.00000  Uiso   1.00
C807   C     0.37088   0.79751   0.58965   0.00000  Uiso   1.00
C808   C     0.27413   0.88689   0.44644   0.00000  Uiso   1.00
C809   C     0.26713   0.86051   0.41317   0.00000  Uiso   1.00
C810   C     0.22139   0.61148   0.55118   0.00000  Uiso   1.00
C811   C     0.22177   0.65267   0.55632   0.00000  Uiso   1.00
C812   C     0.39987   0.80603   0.44982   0.00000  Uiso   1.00
C813   C     0.36041   0.81610   0.44136   0.00000  Uiso   1.00
C814   C     0.10496   0.70112   0.55375   0.00000  Uiso   1.00
C815   C     0.12914   0.70253   0.58965   0.00000  Uiso   1.00
C816   C     0.22588   0.61311   0.44645   0.00000  Uiso   1.00
C817   C     0.00322   0.71715   0.91864   0.00000  Uiso   1.00
C818   C     0.23287   0.63949   0.41317   0.00000  Uiso   1.00
C819   C     0.27860   0.88851   0.55118   0.00000  Uiso   1.00
C820   C     0.27821   0.84732   0.55630   0.00000  Uiso   1.00
C821   C     0.36149   0.97140   0.94882   0.00000  Uiso   1.00
C822   C     0.40268   0.97180   0.94369   0.00000  Uiso   1.00
C823   C     0.13689   0.52412   0.05355   0.00000  Uiso   1.00
C824   C     0.11051   0.51712   0.08683   0.00000  Uiso   1.00
C825   C     0.04889   0.64504   0.94626   0.00000  Uiso   1.00
C826   C     0.04749   0.62086   0.91035   0.00000  Uiso   1.00
C827   C     0.44397   0.85013   0.05018   0.00000  Uiso   1.00
C828   C     0.49571   0.78278   0.08124   0.00000  Uiso   1.00
C829   C     0.43390   0.88960   0.05863   0.00000  Uiso   1.00
C830   C     0.13851   0.52860   0.94882   0.00000  Uiso   1.00
C831   C     0.09732   0.52820   0.94368   0.00000  Uiso   1.00
C832   C     0.36311   0.97588   0.05355   0.00000  Uiso   1.00
C833   C     0.38949   0.98287   0.08683   0.00000  Uiso   1.00
C834   C     0.45111   0.85497   0.94627   0.00000  Uiso   1.00
C835   C     0.45250   0.87913   0.91035   0.00000  Uiso   1.00
C836   C     0.05603   0.64987   0.05018   0.00000  Uiso   1.00
C837   C     0.06610   0.61039   0.05861   0.00000  Uiso   1.00
C838   C     0.00000   0.75000   0.39848   0.00000  Uiso   1.00
C839   C    -0.00000   0.75000   0.60161   0.00000  Uiso   1.00
C840   C     0.25000   0.50000   0.39838   0.00000  Uiso   1.00
C841   C     0.03285   0.74679   0.58136   0.00000  Uiso   1.00
C842   C     0.25000   0.50000   0.60153   0.00000  Uiso   1.00
C843   C     0.25000   0.50000   0.89847   0.00000  Uiso   1.00
C844   C     0.25000   0.50000   0.10162   0.00000  Uiso   1.00
C845   C    -0.00000   0.75000   0.89839   0.00000  Uiso   1.00
C846   C    -0.00000   0.75000   0.10152   0.00000  Uiso   1.00
C847   C     0.06578   0.73758   0.47982   0.00000  Uiso   1.00
C848   C     0.43400   0.76107   0.52053   0.00000  Uiso   1.00
C849   C     0.24576   0.93320   0.47951   0.00000  Uiso   1.00
C850   C     0.25374   0.56682   0.52024   0.00000  Uiso   1.00
C851   C     0.43422   0.76243   0.47982   0.00000  Uiso   1.00
C852   C     0.25394   0.53278   0.41862   0.00000  Uiso   1.00
C853   C     0.06600   0.73894   0.52053   0.00000  Uiso   1.00
C854   C     0.25425   0.56680   0.47951   0.00000  Uiso   1.00
C855   C     0.24627   0.93318   0.52024   0.00000  Uiso   1.00
C856   C     0.31682   0.50374   0.97976   0.00000  Uiso   1.00
C857   C     0.18320   0.99575   0.02049   0.00000  Uiso   1.00
C858   C     0.01107   0.68400   0.97947   0.00000  Uiso   1.00
C859   C     0.48757   0.81578   0.02018   0.00000  Uiso   1.00
C860   C     0.18318   0.99626   0.97976   0.00000  Uiso   1.00
C861   C     0.31680   0.50425   0.02049   0.00000  Uiso   1.00
C862   C     0.48893   0.81599   0.97947   0.00000  Uiso   1.00
C863   C     0.24619   0.96718   0.58125   0.00000  Uiso   1.00
C864   C     0.01243   0.68422   0.02018   0.00000  Uiso   1.00
C865   C     0.25000   0.50000   0.35595   0.00000  Uiso   1.00
C866   C     0.25000   0.50000   0.64402   0.00000  Uiso   1.00
C867   C    -0.00000   0.75000   0.35599   0.00000  Uiso   1.00
C868   C    -0.00000   0.75000   0.64404   0.00000  Uiso   1.00
C869   C    -0.00000   0.75000   0.85596   0.00000  Uiso   1.00
C870   C    -0.00000   0.75000   0.14401   0.00000  Uiso   1.00
C871   C     0.25000   0.50000   0.85599   0.00000  Uiso   1.00
C872   C     0.25000   0.50000   0.14405   0.00000  Uiso   1.00
C873   C     0.17994   0.57006   0.25000   0.00000  Uiso   1.00
C874   C     0.03278   0.74571   0.41876   0.00000  Uiso   1.00
C875   C     0.32006   0.92994   0.75000   0.00000  Uiso   1.00
C876   C     0.42994   0.67994   0.25000   0.00000  Uiso   1.00
C877   C     0.07006   0.82006   0.75000   0.00000  Uiso   1.00
C878   C     0.32006   0.92994   0.25000   0.00000  Uiso   1.00
C879   C     0.17994   0.57006   0.75000   0.00000  Uiso   1.00
C880   C     0.07006   0.82006   0.25000   0.00000  Uiso   1.00
C881   C     0.42994   0.67994   0.75000   0.00000  Uiso   1.00
C882   C     0.17994   0.92994   0.75000   0.00000  Uiso   1.00
C883   C     0.32006   0.57006   0.25000   0.00000  Uiso   1.00
C884   C     0.42994   0.82006   0.75000   0.00000  Uiso   1.00
C885   C     0.46715   0.75322   0.58136   0.00000  Uiso   1.00
C886   C     0.07006   0.67994   0.25000   0.00000  Uiso   1.00
C887   C     0.32006   0.57006   0.75000   0.00000  Uiso   1.00
C888   C     0.17994   0.92994   0.25000   0.00000  Uiso   1.00
C889   C     0.07006   0.67994   0.75000   0.00000  Uiso   1.00
C890   C     0.42994   0.82006   0.25000   0.00000  Uiso   1.00
C891   C     0.12199   0.90475   0.22479   0.00000  Uiso   1.00
C892   C     0.37804   0.59523   0.77517   0.00000  Uiso   1.00
C893   C     0.09586   0.62259   0.22393   0.00000  Uiso   1.00
C894   C     0.40384   0.87709   0.77649   0.00000  Uiso   1.00
C895   C     0.37801   0.59525   0.22479   0.00000  Uiso   1.00
C896   C     0.24606   0.96722   0.41862   0.00000  Uiso   1.00
C897   C     0.12196   0.90477   0.77517   0.00000  Uiso   1.00
C898   C     0.40414   0.87741   0.22393   0.00000  Uiso   1.00
C899   C     0.09616   0.62291   0.77649   0.00000  Uiso   1.00
C900   C     0.12289   0.59617   0.77648   0.00000  Uiso   1.00
C901   C     0.37740   0.90414   0.22393   0.00000  Uiso   1.00
C902   C     0.09523   0.87804   0.77517   0.00000  Uiso   1.00
C903   C     0.40475   0.62198   0.22479   0.00000  Uiso   1.00
C904   C     0.37710   0.90383   0.77648   0.00000  Uiso   1.00
C905   C     0.12259   0.59586   0.22393   0.00000  Uiso   1.00
C906   C     0.40477   0.62196   0.77517   0.00000  Uiso   1.00
C907   C     0.25381   0.53282   0.58125   0.00000  Uiso   1.00
C908   C     0.09525   0.87802   0.22479   0.00000  Uiso   1.00
C909   C     0.37196   0.65477   0.72483   0.00000  Uiso   1.00
C910   C     0.12802   0.84525   0.27521   0.00000  Uiso   1.00
C911   C     0.34617   0.87289   0.72352   0.00000  Uiso   1.00
C912   C     0.15414   0.62741   0.27607   0.00000  Uiso   1.00
C913   C     0.12804   0.84523   0.72483   0.00000  Uiso   1.00
C914   C     0.37198   0.65475   0.27521   0.00000  Uiso   1.00
C915   C     0.15383   0.62711   0.72352   0.00000  Uiso   1.00
C916   C     0.34586   0.87260   0.27607   0.00000  Uiso   1.00
C917   C     0.37259   0.84586   0.27607   0.00000  Uiso   1.00
C918   C     0.21718   0.99619   0.91875   0.00000  Uiso   1.00
C919   C     0.12709   0.65384   0.72351   0.00000  Uiso   1.00
C920   C     0.34525   0.62801   0.27521   0.00000  Uiso   1.00
C921   C     0.15477   0.87196   0.72483   0.00000  Uiso   1.00
C922   C     0.12741   0.65414   0.27607   0.00000  Uiso   1.00
C923   C     0.37291   0.84616   0.72351   0.00000  Uiso   1.00
C924   C     0.15475   0.87199   0.27521   0.00000  Uiso   1.00
C925   C     0.34523   0.62804   0.72483   0.00000  Uiso   1.00
C926   C     0.03305   0.74429   0.45931   0.00000  Uiso   1.00
C927   C     0.46684   0.75472   0.54083   0.00000  Uiso   1.00
C928   C     0.24725   0.96660   0.45916   0.00000  Uiso   1.00
H929   H     0.11923   0.92760   0.20507   0.00000  Uiso   1.00
H930   H     0.37966   0.92650   0.20350   0.00000  Uiso   1.00
H931   H     0.06357   0.67066   0.93834   0.00000  Uiso   1.00
H932   H     0.03222   0.63463   0.88670   0.00000  Uiso   1.00
H933   H     0.07562   0.61516   0.90003   0.00000  Uiso   1.00
H934   H     0.03378   0.59466   0.91735   0.00000  Uiso   1.00
H935   H     0.43892   0.83385   0.07684   0.00000  Uiso   1.00
H936   H     0.42539   0.83987   0.02698   0.00000  Uiso   1.00
H937   H     0.43839   0.90667   0.03242   0.00000  Uiso   1.00
H938   H     0.40470   0.89133   0.06705   0.00000  Uiso   1.00
H939   H     0.45088   0.90027   0.08280   0.00000  Uiso   1.00
H940   H     0.15106   0.53611   0.92059   0.00000  Uiso   1.00
H941   H     0.07235   0.88082   0.79485   0.00000  Uiso   1.00
H942   H     0.14548   0.55034   0.97022   0.00000  Uiso   1.00
H943   H     0.08385   0.52058   0.97139   0.00000  Uiso   1.00
H944   H     0.08780   0.55569   0.93491   0.00000  Uiso   1.00
H945   H     0.08957   0.50824   0.92087   0.00000  Uiso   1.00
H946   H     0.37836   0.96195   0.03006   0.00000  Uiso   1.00
H947   H     0.34134   0.95715   0.06430   0.00000  Uiso   1.00
H948   H     0.37524   0.99703   0.11096   0.00000  Uiso   1.00
H949   H     0.40048   0.95660   0.09779   0.00000  Uiso   1.00
H950   H     0.41253   0.50008   0.07668   0.00000  Uiso   1.00
H951   H     0.43514   0.86953   0.96880   0.00000  Uiso   1.00
H952   H     0.42760   0.61922   0.20507   0.00000  Uiso   1.00
H953   H     0.43642   0.82934   0.93836   0.00000  Uiso   1.00
H954   H     0.46776   0.86535   0.88670   0.00000  Uiso   1.00
H955   H     0.42437   0.88483   0.90004   0.00000  Uiso   1.00
H956   H     0.46623   0.90533   0.91733   0.00000  Uiso   1.00
H957   H     0.06107   0.66613   0.07685   0.00000  Uiso   1.00
H958   H     0.07460   0.66013   0.02699   0.00000  Uiso   1.00
H959   H     0.06161   0.59334   0.03239   0.00000  Uiso   1.00
H960   H     0.09529   0.60866   0.06703   0.00000  Uiso   1.00
H961   H     0.04911   0.59971   0.08277   0.00000  Uiso   1.00
H962   H     0.37911   0.92594   0.79724   0.00000  Uiso   1.00
H963   H     0.12034   0.57350   0.20350   0.00000  Uiso   1.00
H964   H     0.42765   0.61918   0.79485   0.00000  Uiso   1.00
H965   H     0.07240   0.88078   0.20508   0.00000  Uiso   1.00
H966   H     0.36918   0.67765   0.70515   0.00000  Uiso   1.00
H967   H     0.13078   0.82240   0.29493   0.00000  Uiso   1.00
H968   H     0.32406   0.87089   0.70276   0.00000  Uiso   1.00
H969   H     0.38082   0.57235   0.79485   0.00000  Uiso   1.00
H970   H     0.17650   0.62966   0.29650   0.00000  Uiso   1.00
H971   H     0.13082   0.82235   0.70515   0.00000  Uiso   1.00
H972   H     0.36922   0.67760   0.29492   0.00000  Uiso   1.00
H973   H     0.17594   0.62911   0.70276   0.00000  Uiso   1.00
H974   H     0.32350   0.87034   0.29650   0.00000  Uiso   1.00
H975   H     0.37033   0.82350   0.29649   0.00000  Uiso   1.00
H976   H     0.12909   0.67593   0.70274   0.00000  Uiso   1.00
H977   H     0.32240   0.63077   0.29493   0.00000  Uiso   1.00
H978   H     0.17765   0.86918   0.70515   0.00000  Uiso   1.00
H979   H     0.12967   0.67650   0.29649   0.00000  Uiso   1.00
H980   H     0.07350   0.62033   0.20351   0.00000  Uiso   1.00
H981   H     0.37091   0.82407   0.70273   0.00000  Uiso   1.00
H982   H     0.17760   0.86923   0.29493   0.00000  Uiso   1.00
H983   H     0.32235   0.63082   0.70515   0.00000  Uiso   1.00
H984   H     0.44195   0.75680   0.40273   0.00000  Uiso   1.00
H985   H     0.05809   0.74469   0.59741   0.00000  Uiso   1.00
H986   H     0.25750   0.55789   0.40255   0.00000  Uiso   1.00
H987   H     0.24219   0.94212   0.59730   0.00000  Uiso   1.00
H988   H     0.05805   0.74320   0.40273   0.00000  Uiso   1.00
H989   H     0.44191   0.75533   0.59741   0.00000  Uiso   1.00
H990   H     0.24250   0.94211   0.40255   0.00000  Uiso   1.00
H991   H     0.42593   0.87909   0.79726   0.00000  Uiso   1.00
H992   H     0.25781   0.55787   0.59730   0.00000  Uiso   1.00
H993   H     0.19213   0.99219   0.90270   0.00000  Uiso   1.00
H994   H     0.30789   0.50750   0.09745   0.00000  Uiso   1.00
H995   H     0.49467   0.80809   0.90259   0.00000  Uiso   1.00
H996   H     0.00680   0.69195   0.09727   0.00000  Uiso   1.00
H997   H     0.30787   0.50781   0.90270   0.00000  Uiso   1.00
H998   H     0.19211   0.99249   0.09745   0.00000  Uiso   1.00
H999   H     0.00532   0.69191   0.90259   0.00000  Uiso   1.00
H1000  H     0.49320   0.80805   0.09727   0.00000  Uiso   1.00
H1001  H     0.08389   0.68893   0.42315   0.00000  Uiso   1.00
H1002  H     0.38077   0.57240   0.20507   0.00000  Uiso   1.00
H1003  H     0.08987   0.67541   0.47301   0.00000  Uiso   1.00
H1004  H     0.15666   0.68840   0.46764   0.00000  Uiso   1.00
H1005  H     0.14136   0.65472   0.43300   0.00000  Uiso   1.00
H1006  H     0.15031   0.70090   0.41725   0.00000  Uiso   1.00
H1007  H     0.38046   0.81486   0.53119   0.00000  Uiso   1.00
H1008  H     0.42065   0.81359   0.56162   0.00000  Uiso   1.00
H1009  H     0.38467   0.78227   0.61331   0.00000  Uiso   1.00
H1010  H     0.36517   0.82564   0.59996   0.00000  Uiso   1.00
H1011  H     0.34468   0.78377   0.58269   0.00000  Uiso   1.00
H1012  H     0.28806   0.87164   0.46994   0.00000  Uiso   1.00
H1013  H     0.11918   0.92765   0.79485   0.00000  Uiso   1.00
H1014  H     0.29285   0.90866   0.43569   0.00000  Uiso   1.00
H1015  H     0.25297   0.87476   0.38904   0.00000  Uiso   1.00
H1016  H     0.29340   0.84953   0.40220   0.00000  Uiso   1.00
H1017  H     0.24992   0.83747   0.42332   0.00000  Uiso   1.00
H1018  H     0.21388   0.59893   0.57941   0.00000  Uiso   1.00
H1019  H     0.19965   0.60451   0.52977   0.00000  Uiso   1.00
H1020  H     0.22940   0.66615   0.52861   0.00000  Uiso   1.00
H1021  H     0.19429   0.66218   0.56509   0.00000  Uiso   1.00
H1022  H     0.24173   0.66042   0.57913   0.00000  Uiso   1.00
H1023  H     0.41616   0.81108   0.42316   0.00000  Uiso   1.00
H1024  H     0.42650   0.87967   0.20350   0.00000  Uiso   1.00
H1025  H     0.41012   0.82461   0.47302   0.00000  Uiso   1.00
H1026  H     0.34333   0.81161   0.46756   0.00000  Uiso   1.00
H1027  H     0.35868   0.84530   0.43294   0.00000  Uiso   1.00
H1028  H     0.34974   0.79912   0.41719   0.00000  Uiso   1.00
H1029  H     0.11950   0.68513   0.53122   0.00000  Uiso   1.00
H1030  H     0.07933   0.68645   0.56169   0.00000  Uiso   1.00
H1031  H     0.11539   0.71782   0.61330   0.00000  Uiso   1.00
H1032  H     0.13483   0.67440   0.59999   0.00000  Uiso   1.00
H1033  H     0.15535   0.71623   0.58264   0.00000  Uiso   1.00
H1034  H     0.21195   0.62836   0.46994   0.00000  Uiso   1.00
H1035  H     0.07407   0.62091   0.79726   0.00000  Uiso   1.00
H1036  H     0.20715   0.59135   0.43570   0.00000  Uiso   1.00
H1037  H     0.24703   0.62524   0.38904   0.00000  Uiso   1.00
H1038  H     0.20660   0.65048   0.40221   0.00000  Uiso   1.00
H1039  H     0.25009   0.66253   0.42332   0.00000  Uiso   1.00
H1040  H     0.28611   0.90105   0.57942   0.00000  Uiso   1.00
H1041  H     0.30035   0.89548   0.52978   0.00000  Uiso   1.00
H1042  H     0.27058   0.83385   0.52859   0.00000  Uiso   1.00
H1043  H     0.30569   0.83780   0.56507   0.00000  Uiso   1.00
H1044  H     0.25825   0.83956   0.57911   0.00000  Uiso   1.00
H1045  H     0.34895   0.96390   0.92058   0.00000  Uiso   1.00
H1046  H     0.12089   0.57406   0.79724   0.00000  Uiso   1.00
H1047  H     0.35452   0.94966   0.97022   0.00000  Uiso   1.00
H1048  H     0.41615   0.97942   0.97141   0.00000  Uiso   1.00
H1049  H     0.41220   0.94431   0.93492   0.00000  Uiso   1.00
H1050  H     0.41044   0.99176   0.92089   0.00000  Uiso   1.00
H1051  H     0.12163   0.53804   0.03006   0.00000  Uiso   1.00
H1052  H     0.15865   0.54285   0.06430   0.00000  Uiso   1.00
H1053  H     0.12477   0.50297   0.11096   0.00000  Uiso   1.00
H1054  H     0.09952   0.54339   0.09779   0.00000  Uiso   1.00
H1055  H     0.08747   0.99991   0.07669   0.00000  Uiso   1.00
H1056  H     0.06487   0.63049   0.96879   0.00000  Uiso   1.00
O1057  O     0.25000   0.50000   0.25000   0.00000  Uiso   1.00
O1058  O     0.25000   0.96964   0.66245   0.00000  Uiso   1.00
O1059  O     0.46963   0.75000   0.33755   0.00000  Uiso   1.00
O1060  O     0.03036   0.75000   0.66245   0.00000  Uiso   1.00
O1061  O     0.00000   0.71964   0.83755   0.00000  Uiso   1.00
O1062  O    -0.00000   0.78036   0.16245   0.00000  Uiso   1.00
O1063  O     0.28036   0.50000   0.83755   0.00000  Uiso   1.00
O1064  O     0.21963   0.50000   0.16245   0.00000  Uiso   1.00
O1065  O    -0.00000   0.78036   0.83755   0.00000  Uiso   1.00
O1066  O     0.00000   0.71964   0.16245   0.00000  Uiso   1.00
O1067  O     0.21963   0.50000   0.83755   0.00000  Uiso   1.00
O1068  O     0.25000   0.50000   0.75000   0.00000  Uiso   1.00
O1069  O     0.28036   0.50000   0.16245   0.00000  Uiso   1.00
O1070  O     0.20724   0.57307   0.27302   0.00000  Uiso   1.00
O1071  O     0.29275   0.92693   0.72698   0.00000  Uiso   1.00
O1072  O     0.42692   0.70724   0.27302   0.00000  Uiso   1.00
O1073  O     0.07307   0.79276   0.72698   0.00000  Uiso   1.00
O1074  O     0.29275   0.92693   0.27302   0.00000  Uiso   1.00
O1075  O     0.20724   0.57307   0.72698   0.00000  Uiso   1.00
O1076  O     0.07307   0.79276   0.27302   0.00000  Uiso   1.00
O1077  O     0.42692   0.70724   0.72698   0.00000  Uiso   1.00
O1078  O     0.20724   0.92693   0.72698   0.00000  Uiso   1.00
O1079  O     0.00000   0.75000   0.25000   0.00000  Uiso   1.00
O1080  O     0.29275   0.57307   0.27302   0.00000  Uiso   1.00
O1081  O     0.42692   0.79275   0.72698   0.00000  Uiso   1.00
O1082  O     0.07307   0.70725   0.27302   0.00000  Uiso   1.00
O1083  O     0.29275   0.57307   0.72698   0.00000  Uiso   1.00
O1084  O     0.20724   0.92693   0.27302   0.00000  Uiso   1.00
O1085  O     0.07307   0.70725   0.72698   0.00000  Uiso   1.00
O1086  O     0.42692   0.79275   0.27302   0.00000  Uiso   1.00
O1087  O     0.45724   0.82307   0.77302   0.00000  Uiso   1.00
O1088  O     0.04275   0.67693   0.22698   0.00000  Uiso   1.00
O1089  O     0.17692   0.95725   0.77302   0.00000  Uiso   1.00
O1090  O    -0.00000   0.75000   0.75000   0.00000  Uiso   1.00
O1091  O     0.32307   0.54275   0.22698   0.00000  Uiso   1.00
O1092  O     0.04275   0.67693   0.77302   0.00000  Uiso   1.00
O1093  O     0.45724   0.82307   0.22698   0.00000  Uiso   1.00
O1094  O     0.32307   0.54275   0.77302   0.00000  Uiso   1.00
O1095  O     0.17692   0.95725   0.22698   0.00000  Uiso   1.00
O1096  O     0.45724   0.67692   0.22698   0.00000  Uiso   1.00
O1097  O     0.04275   0.82308   0.77302   0.00000  Uiso   1.00
O1098  O     0.17692   0.54275   0.22698   0.00000  Uiso   1.00
O1099  O     0.32307   0.95725   0.77302   0.00000  Uiso   1.00
O1100  O     0.04275   0.82308   0.22698   0.00000  Uiso   1.00
O1101  O     0.25000   0.96964   0.33755   0.00000  Uiso   1.00
O1102  O     0.45724   0.67692   0.77302   0.00000  Uiso   1.00
O1103  O     0.32307   0.95725   0.22698   0.00000  Uiso   1.00
O1104  O     0.17692   0.54275   0.77302   0.00000  Uiso   1.00
O1105  O     0.09830   0.73125   0.46048   0.00000  Uiso   1.00
O1106  O     0.40101   0.76295   0.54012   0.00000  Uiso   1.00
O1107  O     0.24034   0.90059   0.45997   0.00000  Uiso   1.00
O1108  O     0.25656   0.59979   0.53960   0.00000  Uiso   1.00
O1109  O     0.40170   0.76877   0.46048   0.00000  Uiso   1.00
O1110  O     0.09899   0.73706   0.54011   0.00000  Uiso   1.00
O1111  O     0.25967   0.59941   0.45997   0.00000  Uiso   1.00
O1112  O     0.25000   0.53036   0.66245   0.00000  Uiso   1.00
O1113  O     0.24344   0.90020   0.53960   0.00000  Uiso   1.00
O1114  O     0.34979   0.50657   0.96040   0.00000  Uiso   1.00
O1115  O     0.15059   0.99033   0.04003   0.00000  Uiso   1.00
O1116  O     0.01295   0.65101   0.95989   0.00000  Uiso   1.00
O1117  O     0.48124   0.84830   0.03952   0.00000  Uiso   1.00
O1118  O     0.15021   0.99343   0.96040   0.00000  Uiso   1.00
O1119  O     0.34941   0.50967   0.04003   0.00000  Uiso   1.00
O1120  O     0.48705   0.84899   0.95988   0.00000  Uiso   1.00
O1121  O     0.01876   0.65170   0.03952   0.00000  Uiso   1.00
O1122  O     0.03036   0.75000   0.33755   0.00000  Uiso   1.00
O1123  O     0.46963   0.75000   0.66245   0.00000  Uiso   1.00
O1124  O     0.25000   0.53036   0.33755   0.00000  Uiso   1.00
Zn1125 Zn    0.20659   0.50000   0.21735   0.00000  Uiso   1.00
Zn1126 Zn    0.04340   0.75000   0.28265   0.00000  Uiso   1.00
Zn1127 Zn    0.25000   0.95660   0.71735   0.00000  Uiso   1.00
Zn1128 Zn    0.25000   0.54340   0.28265   0.00000  Uiso   1.00
Zn1129 Zn    0.04340   0.75000   0.71735   0.00000  Uiso   1.00
Zn1130 Zn    0.45659   0.75000   0.28265   0.00000  Uiso   1.00
Zn1131 Zn    0.25000   0.54340   0.71735   0.00000  Uiso   1.00
Zn1132 Zn    0.25000   0.95660   0.28265   0.00000  Uiso   1.00
Zn1133 Zn    0.29340   0.50000   0.78265   0.00000  Uiso   1.00
Zn1134 Zn    0.00000   0.70660   0.21735   0.00000  Uiso   1.00
Zn1135 Zn    0.00000   0.79341   0.78265   0.00000  Uiso   1.00
Zn1136 Zn    0.29340   0.50000   0.21735   0.00000  Uiso   1.00
Zn1137 Zn    0.20659   0.50000   0.78265   0.00000  Uiso   1.00
Zn1138 Zn   -0.00000   0.79340   0.21735   0.00000  Uiso   1.00
Zn1139 Zn    0.00000   0.70660   0.78265   0.00000  Uiso   1.00
Zn1140 Zn    0.45659   0.75000   0.71735   0.00000  Uiso   1.00
C1141  C     0.96722   0.75429   0.41876   0.00000  Uiso   1.00
C1142  C     0.78278   0.50394   0.08138   0.00000  Uiso   1.00
C1143  C     0.75243   0.53344   0.54070   0.00000  Uiso   1.00
C1144  C     0.96695   0.75571   0.45931   0.00000  Uiso   1.00
C1145  C     0.53316   0.74529   0.54083   0.00000  Uiso   1.00
C1146  C     0.75276   0.53339   0.45916   0.00000  Uiso   1.00
C1147  C     0.74757   0.96656   0.54070   0.00000  Uiso   1.00
C1148  C     0.78344   0.50243   0.95930   0.00000  Uiso   1.00
C1149  C     0.71661   0.99724   0.04084   0.00000  Uiso   1.00
C1150  C     0.50472   0.71684   0.95917   0.00000  Uiso   1.00
C1151  C     0.99429   0.78305   0.04069   0.00000  Uiso   1.00
C1152  C     0.71656   0.99757   0.95930   0.00000  Uiso   1.00
C1153  C     0.99678   0.78285   0.91864   0.00000  Uiso   1.00
C1154  C     0.78339   0.50275   0.04084   0.00000  Uiso   1.00
C1155  C     0.99528   0.78316   0.95917   0.00000  Uiso   1.00
C1156  C     0.50571   0.71695   0.04069   0.00000  Uiso   1.00
C1157  C     0.59813   0.84813   0.25000   0.00000  Uiso   1.00
C1158  C     0.90187   0.65187   0.75000   0.00000  Uiso   1.00
C1159  C     0.65187   0.59813   0.25000   0.00000  Uiso   1.00
C1160  C     0.84813   0.90187   0.75000   0.00000  Uiso   1.00
C1161  C     0.90187   0.65187   0.25000   0.00000  Uiso   1.00
C1162  C     0.59813   0.84813   0.75000   0.00000  Uiso   1.00
C1163  C     0.84813   0.90187   0.25000   0.00000  Uiso   1.00
C1164  C     0.50429   0.71722   0.08124   0.00000  Uiso   1.00
C1165  C     0.65187   0.59813   0.75000   0.00000  Uiso   1.00
C1166  C     0.59813   0.65187   0.75000   0.00000  Uiso   1.00
C1167  C     0.90187   0.84813   0.25000   0.00000  Uiso   1.00
C1168  C     0.65187   0.90187   0.75000   0.00000  Uiso   1.00
C1169  C     0.84813   0.59813   0.25000   0.00000  Uiso   1.00
C1170  C     0.90187   0.84813   0.75000   0.00000  Uiso   1.00
C1171  C     0.59813   0.65187   0.25000   0.00000  Uiso   1.00
C1172  C     0.84813   0.59813   0.75000   0.00000  Uiso   1.00
C1173  C     0.65187   0.90187   0.25000   0.00000  Uiso   1.00
C1174  C     0.50000   0.75000   0.47970   0.00000  Uiso   1.00
C1175  C     0.78282   0.50381   0.91875   0.00000  Uiso   1.00
C1176  C     0.50000   0.75000   0.52041   0.00000  Uiso   1.00
C1177  C     0.75000   0.50000   0.47958   0.00000  Uiso   1.00
C1178  C     0.75000   0.50000   0.52030   0.00000  Uiso   1.00
C1179  C     0.75000   0.50000   0.97970   0.00000  Uiso   1.00
C1180  C     0.75000   0.50000   0.02042   0.00000  Uiso   1.00
C1181  C     0.50000   0.75000   0.97959   0.00000  Uiso   1.00
C1182  C     0.50000   0.75000   0.02030   0.00000  Uiso   1.00
C1183  C     0.60014   0.69398   0.44983   0.00000  Uiso   1.00
C1184  C     0.63962   0.68391   0.44141   0.00000  Uiso   1.00
C1185  C     0.89503   0.79890   0.55372   0.00000  Uiso   1.00
C1186  C     0.71722   0.99606   0.08138   0.00000  Uiso   1.00
C1187  C     0.87088   0.79751   0.58965   0.00000  Uiso   1.00
C1188  C     0.77413   0.88689   0.44644   0.00000  Uiso   1.00
C1189  C     0.76713   0.86051   0.41317   0.00000  Uiso   1.00
C1190  C     0.72139   0.61148   0.55118   0.00000  Uiso   1.00
C1191  C     0.72177   0.65267   0.55632   0.00000  Uiso   1.00
C1192  C     0.89987   0.80603   0.44982   0.00000  Uiso   1.00
C1193  C     0.86041   0.81610   0.44136   0.00000  Uiso   1.00
C1194  C     0.60496   0.70112   0.55375   0.00000  Uiso   1.00
C1195  C     0.62914   0.70253   0.58965   0.00000  Uiso   1.00
C1196  C     0.72588   0.61311   0.44645   0.00000  Uiso   1.00
C1197  C     0.50322   0.71715   0.91864   0.00000  Uiso   1.00
C1198  C     0.73287   0.63949   0.41317   0.00000  Uiso   1.00
C1199  C     0.77860   0.88851   0.55118   0.00000  Uiso   1.00
C1200  C     0.77821   0.84732   0.55630   0.00000  Uiso   1.00
C1201  C     0.86149   0.97140   0.94882   0.00000  Uiso   1.00
C1202  C     0.90268   0.97180   0.94369   0.00000  Uiso   1.00
C1203  C     0.63689   0.52412   0.05355   0.00000  Uiso   1.00
C1204  C     0.61051   0.51712   0.08683   0.00000  Uiso   1.00
C1205  C     0.54889   0.64504   0.94626   0.00000  Uiso   1.00
C1206  C     0.54749   0.62086   0.91035   0.00000  Uiso   1.00
C1207  C     0.94397   0.85013   0.05018   0.00000  Uiso   1.00
C1208  C     0.99571   0.78278   0.08124   0.00000  Uiso   1.00
C1209  C     0.93390   0.88960   0.05863   0.00000  Uiso   1.00
C1210  C     0.63851   0.52860   0.94882   0.00000  Uiso   1.00
C1211  C     0.59732   0.52820   0.94368   0.00000  Uiso   1.00
C1212  C     0.86311   0.97588   0.05355   0.00000  Uiso   1.00
C1213  C     0.88949   0.98287   0.08683   0.00000  Uiso   1.00
C1214  C     0.95111   0.85497   0.94627   0.00000  Uiso   1.00
C1215  C     0.95250   0.87913   0.91035   0.00000  Uiso   1.00
C1216  C     0.55603   0.64987   0.05018   0.00000  Uiso   1.00
C1217  C     0.56610   0.61039   0.05861   0.00000  Uiso   1.00
C1218  C     0.50000   0.75000   0.39848   0.00000  Uiso   1.00
C1219  C     0.50000   0.75000   0.60161   0.00000  Uiso   1.00
C1220  C     0.75000   0.50000   0.39838   0.00000  Uiso   1.00
C1221  C     0.53285   0.74679   0.58136   0.00000  Uiso   1.00
C1222  C     0.75000   0.50000   0.60153   0.00000  Uiso   1.00
C1223  C     0.75000   0.50000   0.89847   0.00000  Uiso   1.00
C1224  C     0.75000   0.50000   0.10162   0.00000  Uiso   1.00
C1225  C     0.50000   0.75000   0.89839   0.00000  Uiso   1.00
C1226  C     0.50000   0.75000   0.10152   0.00000  Uiso   1.00
C1227  C     0.56578   0.73758   0.47982   0.00000  Uiso   1.00
C1228  C     0.93400   0.76107   0.52053   0.00000  Uiso   1.00
C1229  C     0.74576   0.93320   0.47951   0.00000  Uiso   1.00
C1230  C     0.75374   0.56682   0.52024   0.00000  Uiso   1.00
C1231  C     0.93422   0.76243   0.47982   0.00000  Uiso   1.00
C1232  C     0.75394   0.53278   0.41862   0.00000  Uiso   1.00
C1233  C     0.56600   0.73894   0.52053   0.00000  Uiso   1.00
C1234  C     0.75425   0.56680   0.47951   0.00000  Uiso   1.00
C1235  C     0.74627   0.93318   0.52024   0.00000  Uiso   1.00
C1236  C     0.81682   0.50374   0.97976   0.00000  Uiso   1.00
C1237  C     0.68320   0.99575   0.02049   0.00000  Uiso   1.00
C1238  C     0.51107   0.68400   0.97947   0.00000  Uiso   1.00
C1239  C     0.98757   0.81578   0.02018   0.00000  Uiso   1.00
C1240  C     0.68318   0.99626   0.97976   0.00000  Uiso   1.00
C1241  C     0.81680   0.50425   0.02049   0.00000  Uiso   1.00
C1242  C     0.98893   0.81599   0.97947   0.00000  Uiso   1.00
C1243  C     0.74619   0.96718   0.58125   0.00000  Uiso   1.00
C1244  C     0.51243   0.68422   0.02018   0.00000  Uiso   1.00
C1245  C     0.75000   0.50000   0.35595   0.00000  Uiso   1.00
C1246  C     0.75000   0.50000   0.64402   0.00000  Uiso   1.00
C1247  C     0.50000   0.75000   0.35599   0.00000  Uiso   1.00
C1248  C     0.50000   0.75000   0.64404   0.00000  Uiso   1.00
C1249  C     0.50000   0.75000   0.85596   0.00000  Uiso   1.00
C1250  C     0.50000   0.75000   0.14401   0.00000  Uiso   1.00
C1251  C     0.75000   0.50000   0.85599   0.00000  Uiso   1.00
C1252  C     0.75000   0.50000   0.14405   0.00000  Uiso   1.00
C1253  C     0.67994   0.57006   0.25000   0.00000  Uiso   1.00
C1254  C     0.53278   0.74571   0.41876   0.00000  Uiso   1.00
C1255  C     0.82006   0.92994   0.75000   0.00000  Uiso   1.00
C1256  C     0.92994   0.67994   0.25000   0.00000  Uiso   1.00
C1257  C     0.57006   0.82006   0.75000   0.00000  Uiso   1.00
C1258  C     0.82006   0.92994   0.25000   0.00000  Uiso   1.00
C1259  C     0.67994   0.57006   0.75000   0.00000  Uiso   1.00
C1260  C     0.57006   0.82006   0.25000   0.00000  Uiso   1.00
C1261  C     0.92994   0.67994   0.75000   0.00000  Uiso   1.00
C1262  C     0.67994   0.92994   0.75000   0.00000  Uiso   1.00
C1263  C     0.82006   0.57006   0.25000   0.00000  Uiso   1.00
C1264  C     0.92994   0.82006   0.75000   0.00000  Uiso   1.00
C1265  C     0.96715   0.75322   0.58136   0.00000  Uiso   1.00
C1266  C     0.57006   0.67994   0.25000   0.00000  Uiso   1.00
C1267  C     0.82006   0.57006   0.75000   0.00000  Uiso   1.00
C1268  C     0.67994   0.92994   0.25000   0.00000  Uiso   1.00
C1269  C     0.57006   0.67994   0.75000   0.00000  Uiso   1.00
C1270  C     0.92994   0.82006   0.25000   0.00000  Uiso   1.00
C1271  C     0.62199   0.90475   0.22479   0.00000  Uiso   1.00
C1272  C     0.87804   0.59523   0.77517   0.00000  Uiso   1.00
C1273  C     0.59586   0.62259   0.22393   0.00000  Uiso   1.00
C1274  C     0.90384   0.87709   0.77649   0.00000  Uiso   1.00
C1275  C     0.87801   0.59525   0.22479   0.00000  Uiso   1.00
C1276  C     0.74606   0.96722   0.41862   0.00000  Uiso   1.00
C1277  C     0.62196   0.90477   0.77517   0.00000  Uiso   1.00
C1278  C     0.90414   0.87741   0.22393   0.00000  Uiso   1.00
C1279  C     0.59616   0.62291   0.77649   0.00000  Uiso   1.00
C1280  C     0.62289   0.59617   0.77648   0.00000  Uiso   1.00
C1281  C     0.87740   0.90414   0.22393   0.00000  Uiso   1.00
C1282  C     0.59523   0.87804   0.77517   0.00000  Uiso   1.00
C1283  C     0.90475   0.62198   0.22479   0.00000  Uiso   1.00
C1284  C     0.87710   0.90383   0.77648   0.00000  Uiso   1.00
C1285  C     0.62259   0.59586   0.22393   0.00000  Uiso   1.00
C1286  C     0.90477   0.62196   0.77517   0.00000  Uiso   1.00
C1287  C     0.75381   0.53282   0.58125   0.00000  Uiso   1.00
C1288  C     0.59525   0.87802   0.22479   0.00000  Uiso   1.00
C1289  C     0.87196   0.65477   0.72483   0.00000  Uiso   1.00
C1290  C     0.62802   0.84525   0.27521   0.00000  Uiso   1.00
C1291  C     0.84617   0.87289   0.72352   0.00000  Uiso   1.00
C1292  C     0.65414   0.62741   0.27607   0.00000  Uiso   1.00
C1293  C     0.62804   0.84523   0.72483   0.00000  Uiso   1.00
C1294  C     0.87198   0.65475   0.27521   0.00000  Uiso   1.00
C1295  C     0.65383   0.62711   0.72352   0.00000  Uiso   1.00
C1296  C     0.84586   0.87260   0.27607   0.00000  Uiso   1.00
C1297  C     0.87259   0.84586   0.27607   0.00000  Uiso   1.00
C1298  C     0.71718   0.99619   0.91875   0.00000  Uiso   1.00
C1299  C     0.62709   0.65384   0.72351   0.00000  Uiso   1.00
C1300  C     0.84525   0.62801   0.27521   0.00000  Uiso   1.00
C1301  C     0.65477   0.87196   0.72483   0.00000  Uiso   1.00
C1302  C     0.62741   0.65414   0.27607   0.00000  Uiso   1.00
C1303  C     0.87291   0.84616   0.72351   0.00000  Uiso   1.00
C1304  C     0.65475   0.87199   0.27521   0.00000  Uiso   1.00
C1305  C     0.84523   0.62804   0.72483   0.00000  Uiso   1.00
C1306  C     0.53305   0.74429   0.45931   0.00000  Uiso   1.00
C1307  C     0.96684   0.75472   0.54083   0.00000  Uiso   1.00
C1308  C     0.74725   0.96660   0.45916   0.00000  Uiso   1.00
H1309  H     0.61923   0.92760   0.20507   0.00000  Uiso   1.00
H1310  H     0.87966   0.92650   0.20350   0.00000  Uiso   1.00
H1311  H     0.56357   0.67066   0.93834   0.00000  Uiso   1.00
H1312  H     0.53222   0.63463   0.88670   0.00000  Uiso   1.00
H1313  H     0.57562   0.61516   0.90003   0.00000  Uiso   1.00
H1314  H     0.53378   0.59466   0.91735   0.00000  Uiso   1.00
H1315  H     0.93892   0.83385   0.07684   0.00000  Uiso   1.00
H1316  H     0.92539   0.83987   0.02698   0.00000  Uiso   1.00
H1317  H     0.93839   0.90667   0.03242   0.00000  Uiso   1.00
H1318  H     0.90470   0.89133   0.06705   0.00000  Uiso   1.00
H1319  H     0.95088   0.90027   0.08280   0.00000  Uiso   1.00
H1320  H     0.65106   0.53611   0.92059   0.00000  Uiso   1.00
H1321  H     0.57235   0.88082   0.79485   0.00000  Uiso   1.00
H1322  H     0.64548   0.55034   0.97022   0.00000  Uiso   1.00
H1323  H     0.58385   0.52058   0.97139   0.00000  Uiso   1.00
H1324  H     0.58780   0.55569   0.93491   0.00000  Uiso   1.00
H1325  H     0.58957   0.50824   0.92087   0.00000  Uiso   1.00
H1326  H     0.87836   0.96195   0.03006   0.00000  Uiso   1.00
H1327  H     0.84134   0.95715   0.06430   0.00000  Uiso   1.00
H1328  H     0.87524   0.99703   0.11096   0.00000  Uiso   1.00
H1329  H     0.90048   0.95660   0.09779   0.00000  Uiso   1.00
H1330  H     0.91253   0.50008   0.07668   0.00000  Uiso   1.00
H1331  H     0.93514   0.86953   0.96880   0.00000  Uiso   1.00
H1332  H     0.92760   0.61922   0.20507   0.00000  Uiso   1.00
H1333  H     0.93642   0.82934   0.93836   0.00000  Uiso   1.00
H1334  H     0.96776   0.86535   0.88670   0.00000  Uiso   1.00
H1335  H     0.92437   0.88483   0.90004   0.00000  Uiso   1.00
H1336  H     0.96623   0.90533   0.91733   0.00000  Uiso   1.00
H1337  H     0.56107   0.66613   0.07685   0.00000  Uiso   1.00
H1338  H     0.57460   0.66013   0.02699   0.00000  Uiso   1.00
H1339  H     0.56161   0.59334   0.03239   0.00000  Uiso   1.00
H1340  H     0.59529   0.60866   0.06703   0.00000  Uiso   1.00
H1341  H     0.54911   0.59971   0.08277   0.00000  Uiso   1.00
H1342  H     0.87911   0.92594   0.79724   0.00000  Uiso   1.00
H1343  H     0.62034   0.57350   0.20350   0.00000  Uiso   1.00
H1344  H     0.92765   0.61918   0.79485   0.00000  Uiso   1.00
H1345  H     0.57240   0.88078   0.20508   0.00000  Uiso   1.00
H1346  H     0.86918   0.67765   0.70515   0.00000  Uiso   1.00
H1347  H     0.63078   0.82240   0.29493   0.00000  Uiso   1.00
H1348  H     0.82406   0.87089   0.70276   0.00000  Uiso   1.00
H1349  H     0.88082   0.57235   0.79485   0.00000  Uiso   1.00
H1350  H     0.67650   0.62966   0.29650   0.00000  Uiso   1.00
H1351  H     0.63082   0.82235   0.70515   0.00000  Uiso   1.00
H1352  H     0.86922   0.67760   0.29492   0.00000  Uiso   1.00
H1353  H     0.67594   0.62911   0.70276   0.00000  Uiso   1.00
H1354  H     0.82350   0.87034   0.29650   0.00000  Uiso   1.00
H1355  H     0.87033   0.82350   0.29649   0.00000  Uiso   1.00
H1356  H     0.62909   0.67593   0.70274   0.00000  Uiso   1.00
H1357  H     0.82240   0.63077   0.29493   0.00000  Uiso   1.00
H1358  H     0.67765   0.86918   0.70515   0.00000  Uiso   1.00
H1359  H     0.62967   0.67650   0.29649   0.00000  Uiso   1.00
H1360  H     0.57350   0.62033   0.20351   0.00000  Uiso   1.00
H1361  H     0.87091   0.82407   0.70273   0.00000  Uiso   1.00
H1362  H     0.67760   0.86923   0.29493   0.00000  Uiso   1.00
H1363  H     0.82235   0.63082   0.70515   0.00000  Uiso   1.00
H1364  H     0.94195   0.75680   0.40273   0.00000  Uiso   1.00
H1365  H     0.55809   0.74469   0.59741   0.00000  Uiso   1.00
H1366  H     0.75750   0.55789   0.40255   0.00000  Uiso   1.00
H1367  H     0.74219   0.94212   0.59730   0.00000  Uiso   1.00
H1368  H     0.55805   0.74320   0.40273   0.00000  Uiso   1.00
H1369  H     0.94191   0.75533   0.59741   0.00000  Uiso   1.00
H1370  H     0.74250   0.94211   0.40255   0.00000  Uiso   1.00
H1371  H     0.92593   0.87909   0.79726   0.00000  Uiso   1.00
H1372  H     0.75781   0.55787   0.59730   0.00000  Uiso   1.00
H1373  H     0.69213   0.99219   0.90270   0.00000  Uiso   1.00
H1374  H     0.80789   0.50750   0.09745   0.00000  Uiso   1.00
H1375  H     0.99467   0.80809   0.90259   0.00000  Uiso   1.00
H1376  H     0.50680   0.69195   0.09727   0.00000  Uiso   1.00
H1377  H     0.80787   0.50781   0.90270   0.00000  Uiso   1.00
H1378  H     0.69211   0.99249   0.09745   0.00000  Uiso   1.00
H1379  H     0.50532   0.69191   0.90259   0.00000  Uiso   1.00
H1380  H     0.99320   0.80805   0.09727   0.00000  Uiso   1.00
H1381  H     0.58389   0.68893   0.42315   0.00000  Uiso   1.00
H1382  H     0.88077   0.57240   0.20507   0.00000  Uiso   1.00
H1383  H     0.58987   0.67541   0.47301   0.00000  Uiso   1.00
H1384  H     0.65666   0.68840   0.46764   0.00000  Uiso   1.00
H1385  H     0.64136   0.65472   0.43300   0.00000  Uiso   1.00
H1386  H     0.65031   0.70090   0.41725   0.00000  Uiso   1.00
H1387  H     0.88046   0.81486   0.53119   0.00000  Uiso   1.00
H1388  H     0.92065   0.81359   0.56162   0.00000  Uiso   1.00
H1389  H     0.88467   0.78227   0.61331   0.00000  Uiso   1.00
H1390  H     0.86517   0.82564   0.59996   0.00000  Uiso   1.00
H1391  H     0.84468   0.78377   0.58269   0.00000  Uiso   1.00
H1392  H     0.78806   0.87164   0.46994   0.00000  Uiso   1.00
H1393  H     0.61918   0.92765   0.79485   0.00000  Uiso   1.00
H1394  H     0.79285   0.90866   0.43569   0.00000  Uiso   1.00
H1395  H     0.75297   0.87476   0.38904   0.00000  Uiso   1.00
H1396  H     0.79340   0.84953   0.40220   0.00000  Uiso   1.00
H1397  H     0.74992   0.83747   0.42332   0.00000  Uiso   1.00
H1398  H     0.71388   0.59893   0.57941   0.00000  Uiso   1.00
H1399  H     0.69965   0.60451   0.52977   0.00000  Uiso   1.00
H1400  H     0.72940   0.66615   0.52861   0.00000  Uiso   1.00
H1401  H     0.69429   0.66218   0.56509   0.00000  Uiso   1.00
H1402  H     0.74173   0.66042   0.57913   0.00000  Uiso   1.00
H1403  H     0.91616   0.81108   0.42316   0.00000  Uiso   1.00
H1404  H     0.92650   0.87967   0.20350   0.00000  Uiso   1.00
H1405  H     0.91012   0.82461   0.47302   0.00000  Uiso   1.00
H1406  H     0.84333   0.81161   0.46756   0.00000  Uiso   1.00
H1407  H     0.85868   0.84530   0.43294   0.00000  Uiso   1.00
H1408  H     0.84974   0.79912   0.41719   0.00000  Uiso   1.00
H1409  H     0.61950   0.68513   0.53122   0.00000  Uiso   1.00
H1410  H     0.57933   0.68645   0.56169   0.00000  Uiso   1.00
H1411  H     0.61539   0.71782   0.61330   0.00000  Uiso   1.00
H1412  H     0.63483   0.67440   0.59999   0.00000  Uiso   1.00
H1413  H     0.65535   0.71623   0.58264   0.00000  Uiso   1.00
H1414  H     0.71195   0.62836   0.46994   0.00000  Uiso   1.00
H1415  H     0.57407   0.62091   0.79726   0.00000  Uiso   1.00
H1416  H     0.70715   0.59135   0.43570   0.00000  Uiso   1.00
H1417  H     0.74703   0.62524   0.38904   0.00000  Uiso   1.00
H1418  H     0.70660   0.65048   0.40221   0.00000  Uiso   1.00
H1419  H     0.75009   0.66253   0.42332   0.00000  Uiso   1.00
H1420  H     0.78611   0.90105   0.57942   0.00000  Uiso   1.00
H1421  H     0.80035   0.89548   0.52978   0.00000  Uiso   1.00
H1422  H     0.77058   0.83385   0.52859   0.00000  Uiso   1.00
H1423  H     0.80569   0.83780   0.56507   0.00000  Uiso   1.00
H1424  H     0.75825   0.83956   0.57911   0.00000  Uiso   1.00
H1425  H     0.84895   0.96390   0.92058   0.00000  Uiso   1.00
H1426  H     0.62089   0.57406   0.79724   0.00000  Uiso   1.00
H1427  H     0.85452   0.94966   0.97022   0.00000  Uiso   1.00
H1428  H     0.91615   0.97942   0.97141   0.00000  Uiso   1.00
H1429  H     0.91220   0.94431   0.93492   0.00000  Uiso   1.00
H1430  H     0.91044   0.99176   0.92089   0.00000  Uiso   1.00
H1431  H     0.62163   0.53804   0.03006   0.00000  Uiso   1.00
H1432  H     0.65865   0.54285   0.06430   0.00000  Uiso   1.00
H1433  H     0.62477   0.50297   0.11096   0.00000  Uiso   1.00
H1434  H     0.59952   0.54339   0.09779   0.00000  Uiso   1.00
H1435  H     0.58747   0.99991   0.07669   0.00000  Uiso   1.00
H1436  H     0.56487   0.63049   0.96879   0.00000  Uiso   1.00
O1437  O     0.75000   0.50000   0.25000   0.00000  Uiso   1.00
O1438  O     0.75000   0.96964   0.66245   0.00000  Uiso   1.00
O1439  O     0.96963   0.75000   0.33755   0.00000  Uiso   1.00
O1440  O     0.53036   0.75000   0.66245   0.00000  Uiso   1.00
O1441  O     0.50000   0.71964   0.83755   0.00000  Uiso   1.00
O1442  O     0.50000   0.78036   0.16245   0.00000  Uiso   1.00
O1443  O     0.78036   0.50000   0.83755   0.00000  Uiso   1.00
O1444  O     0.71963   0.50000   0.16245   0.00000  Uiso   1.00
O1445  O     0.50000   0.78036   0.83755   0.00000  Uiso   1.00
O1446  O     0.50000   0.71964   0.16245   0.00000  Uiso   1.00
O1447  O     0.71963   0.50000   0.83755   0.00000  Uiso   1.00
O1448  O     0.75000   0.50000   0.75000   0.00000  Uiso   1.00
O1449  O     0.78036   0.50000   0.16245   0.00000  Uiso   1.00
O1450  O     0.70724   0.57307   0.27302   0.00000  Uiso   1.00
O1451  O     0.79275   0.92693   0.72698   0.00000  Uiso   1.00
O1452  O     0.92692   0.70724   0.27302   0.00000  Uiso   1.00
O1453  O     0.57307   0.79276   0.72698   0.00000  Uiso   1.00
O1454  O     0.79275   0.92693   0.27302   0.00000  Uiso   1.00
O1455  O     0.70724   0.57307   0.72698   0.00000  Uiso   1.00
O1456  O     0.57307   0.79276   0.27302   0.00000  Uiso   1.00
O1457  O     0.92692   0.70724   0.72698   0.00000  Uiso   1.00
O1458  O     0.70724   0.92693   0.72698   0.00000  Uiso   1.00
O1459  O     0.50000   0.75000   0.25000   0.00000  Uiso   1.00
O1460  O     0.79275   0.57307   0.27302   0.00000  Uiso   1.00
O1461  O     0.92692   0.79275   0.72698   0.00000  Uiso   1.00
O1462  O     0.57307   0.70725   0.27302   0.00000  Uiso   1.00
O1463  O     0.79275   0.57307   0.72698   0.00000  Uiso   1.00
O1464  O     0.70724   0.92693   0.27302   0.00000  Uiso   1.00
O1465  O     0.57307   0.70725   0.72698   0.00000  Uiso   1.00
O1466  O     0.92692   0.79275   0.27302   0.00000  Uiso   1.00
O1467  O     0.95724   0.82307   0.77302   0.00000  Uiso   1.00
O1468  O     0.54275   0.67693   0.22698   0.00000  Uiso   1.00
O1469  O     0.67692   0.95725   0.77302   0.00000  Uiso   1.00
O1470  O     0.50000   0.75000   0.75000   0.00000  Uiso   1.00
O1471  O     0.82307   0.54275   0.22698   0.00000  Uiso   1.00
O1472  O     0.54275   0.67693   0.77302   0.00000  Uiso   1.00
O1473  O     0.95724   0.82307   0.22698   0.00000  Uiso   1.00
O1474  O     0.82307   0.54275   0.77302   0.00000  Uiso   1.00
O1475  O     0.67692   0.95725   0.22698   0.00000  Uiso   1.00
O1476  O     0.95724   0.67692   0.22698   0.00000  Uiso   1.00
O1477  O     0.54275   0.82308   0.77302   0.00000  Uiso   1.00
O1478  O     0.67692   0.54275   0.22698   0.00000  Uiso   1.00
O1479  O     0.82307   0.95725   0.77302   0.00000  Uiso   1.00
O1480  O     0.54275   0.82308   0.22698   0.00000  Uiso   1.00
O1481  O     0.75000   0.96964   0.33755   0.00000  Uiso   1.00
O1482  O     0.95724   0.67692   0.77302   0.00000  Uiso   1.00
O1483  O     0.82307   0.95725   0.22698   0.00000  Uiso   1.00
O1484  O     0.67692   0.54275   0.77302   0.00000  Uiso   1.00
O1485  O     0.59830   0.73125   0.46048   0.00000  Uiso   1.00
O1486  O     0.90101   0.76295   0.54012   0.00000  Uiso   1.00
O1487  O     0.74034   0.90059   0.45997   0.00000  Uiso   1.00
O1488  O     0.75656   0.59979   0.53960   0.00000  Uiso   1.00
O1489  O     0.90170   0.76877   0.46048   0.00000  Uiso   1.00
O1490  O     0.59899   0.73706   0.54011   0.00000  Uiso   1.00
O1491  O     0.75967   0.59941   0.45997   0.00000  Uiso   1.00
O1492  O     0.75000   0.53036   0.66245   0.00000  Uiso   1.00
O1493  O     0.74344   0.90020   0.53960   0.00000  Uiso   1.00
O1494  O     0.84979   0.50657   0.96040   0.00000  Uiso   1.00
O1495  O     0.65059   0.99033   0.04003   0.00000  Uiso   1.00
O1496  O     0.51295   0.65101   0.95989   0.00000  Uiso   1.00
O1497  O     0.98124   0.84830   0.03952   0.00000  Uiso   1.00
O1498  O     0.65021   0.99343   0.96040   0.00000  Uiso   1.00
O1499  O     0.84941   0.50967   0.04003   0.00000  Uiso   1.00
O1500  O     0.98705   0.84899   0.95988   0.00000  Uiso   1.00
O1501  O     0.51876   0.65170   0.03952   0.00000  Uiso   1.00
O1502  O     0.53036   0.75000   0.33755   0.00000  Uiso   1.00
O1503  O     0.96963   0.75000   0.66245   0.00000  Uiso   1.00
O1504  O     0.75000   0.53036   0.33755   0.00000  Uiso   1.00
Zn1505 Zn    0.70659   0.50000   0.21735   0.00000  Uiso   1.00
Zn1506 Zn    0.54340   0.75000   0.28265   0.00000  Uiso   1.00
Zn1507 Zn    0.75000   0.95660   0.71735   0.00000  Uiso   1.00
Zn1508 Zn    0.75000   0.54340   0.28265   0.00000  Uiso   1.00
Zn1509 Zn    0.54340   0.75000   0.71735   0.00000  Uiso   1.00
Zn1510 Zn    0.95659   0.75000   0.28265   0.00000  Uiso   1.00
Zn1511 Zn    0.75000   0.54340   0.71735   0.00000  Uiso   1.00
Zn1512 Zn    0.75000   0.95660   0.28265   0.00000  Uiso   1.00
Zn1513 Zn    0.79340   0.50000   0.78265   0.00000  Uiso   1.00
Zn1514 Zn    0.50000   0.70660   0.21735   0.00000  Uiso   1.00
Zn1515 Zn    0.50000   0.79341   0.78265   0.00000  Uiso   1.00
Zn1516 Zn    0.79340   0.50000   0.21735   0.00000  Uiso   1.00
Zn1517 Zn    0.70659   0.50000   0.78265   0.00000  Uiso   1.00
Zn1518 Zn    0.50000   0.79340   0.21735   0.00000  Uiso   1.00
Zn1519 Zn    0.50000   0.70660   0.78265   0.00000  Uiso   1.00
Zn1520 Zn    0.95659   0.75000   0.71735   0.00000  Uiso   1.00
loop_
_geom_bond_atom_site_label_1
_geom_bond_atom_site_label_2
_geom_bond_distance
_geom_bond_site_symmetry_2
_ccdc_geom_bond_type
C1     H224    1.082   .     S
C1     C4      1.398   .     A
C1     C458    1.399   .     S
C2     C14     1.397   .     A
C2     H234    1.082   .     S
C2     C84     1.397   .     S
C3     C147    1.398   .     A
C3     C90     1.413   .     A
C3     C38     1.416   .     S
C4     C91     1.414   .     A
C4     C414    1.416   .     S
C5     C36     1.415   .     A
C5     C81     1.397   .     A
C5     C93     1.411   .     A
C6     C94     1.412   .     A
C6     C92     1.397   .     A
C6     C37     1.415   .     S
C7     C103    1.398   .     A
C7     C798    1.416   .     A
C7     C95     1.413   .     A
C8     C35     1.398   .     A
C8     C96     1.413   .     A
C8     C39     1.416   .     S
C9     C46     1.397   .     A
C9     C97     1.412   .     A
C9     C800    1.415   .     A
C10    C98     1.411   .     A
C10    C57     1.397   .     A
C10    C41     1.415   .     S
C11    C99     1.414   .     A
C11    C68     1.398   .     A
C11    C422    1.416   .     A
C12    C799    1.416   .     A
C12    C100    1.413   .     A
C12    C158    1.398   .     A
C13    C465    1.397   .     A
C13    C15     1.397   .     A
C13    H235    1.081   .     S
C14    C101    1.412   .     A
C14    C40     1.415   .     S
C15    C421    1.415   .     A
C15    C102    1.411   .     A
C16    C104    1.414   .     A
C16    C24     1.398   .     A
C16    C42     1.416   .     S
C17    C120    1.455   .     S
C17    C148    1.402   .     A
C17    C150    1.402   .     A
C18    C121    1.455   .     S
C18    C149    1.402   .     A
C18    C146    1.402   .     A
C19    C113    1.455   .     S
C19    C145    1.402   .     A
C19    C152    1.402   .     A
C20    C144    1.402   .     A
C20    C151    1.402   .     A
C20    C115    1.455   .     S
C21    C116    1.455   .     S
C21    C143    1.402   .     A
C21    C154    1.402   .     A
C22    C153    1.402   .     A
C22    C117    1.455   .     S
C22    C142    1.402   .     A
C23    C118    1.455   .     S
C23    C141    1.402   .     A
C23    C156    1.402   .     A
C24    H236    1.082   .     S
C24    C86     1.399   .     S
C25    C119    1.455   .     S
C25    C140    1.402   .     A
C25    C155    1.402   .     A
C26    C139    1.402   .     A
C26    C159    1.402   .     A
C26    C129    1.455   .     S
C27    C138    1.402   .     A
C27    C157    1.402   .     A
C27    C130    1.455   .     S
C28    C137    1.402   .     A
C28    C122    1.455   .     S
C28    C161    1.402   .     A
C29    C135    1.402   .     A
C29    C160    1.402   .     A
C29    C123    1.455   .     S
C30    C134    1.402   .     A
C30    C163    1.402   .     A
C30    C124    1.455   .     S
C31    C133    1.402   .     A
C31    C162    1.402   .     A
C31    C126    1.455   .     S
C32    C127    1.455   .     S
C32    C165    1.402   .     A
C32    C132    1.402   .     A
C33    C164    1.402   .     A
C33    C131    1.402   .     A
C33    C128    1.455   .     S
C34    C36     1.402   .     A
C34    C166    1.416   .     A
C34    C384    1.416   1_455 S
C35    H237    1.082   .     S
C35    C83     1.398   .     S
C36    C547    1.415   1_455 S
C37    C38     1.403   .     A
C37    C928    1.415   1_545 A
C38    C767    1.416   1_545 A
C39    C772    1.416   1_545 A
C39    C40     1.403   1_556 S
C40    C769    1.415   1_545 A
C40    C39     1.403   1_554 S
C41    C395    1.415   1_455 A
C41    C42     1.402   1_556 S
C42    C391    1.416   1_455 A
C42    C41     1.402   1_554 S
C43    C44     1.521   .     S
C43    O345    1.416   .     S
C43    H243    1.115   .     S
C43    H241    1.111   .     S
C44    H245    1.111   .     S
C44    H244    1.111   .     S
C44    H246    1.111   .     S
C45    C47     1.522   .     S
C45    H248    1.116   .     S
C45    O346    1.415   .     S
C45    H247    1.109   .     S
C46    C844    1.397   .     A
C46    H238    1.082   .     S
C47    H250    1.111   .     S
C47    H251    1.111   .     S
C47    H249    1.110   .     S
C48    H252    1.108   .     S
C48    C49     1.521   .     S
C48    H254    1.116   .     S
C48    O347    1.415   .     S
C49    H255    1.111   .     S
C49    H257    1.111   .     S
C49    H256    1.110   .     S
C50    O348    1.416   .     S
C50    H258    1.110   .     S
C50    C51     1.520   .     S
C50    H259    1.115   .     S
C51    H262    1.111   .     S
C51    H260    1.111   .     S
C51    H261    1.108   .     S
C52    H263    1.111   .     S
C52    C53     1.521   .     S
C52    O349    1.416   .     S
C52    H265    1.115   .     S
C53    H267    1.111   .     S
C53    H266    1.111   .     S
C53    H268    1.111   .     S
C54    H269    1.109   .     S
C54    C55     1.522   .     S
C54    O350    1.415   .     S
C54    H270    1.116   .     S
C55    H272    1.111   .     S
C55    H273    1.111   .     S
C55    H271    1.110   .     S
C56    H274    1.108   .     S
C56    H276    1.116   .     S
C56    C58     1.521   .     S
C56    O351    1.415   .     S
C57    H239    1.081   .     S
C57    C85     1.397   .     S
C58    H279    1.111   .     S
C58    H277    1.111   .     S
C58    H278    1.110   .     S
C59    H280    1.110   .     S
C59    O353    1.416   .     S
C59    H281    1.115   .     S
C59    C60     1.520   .     S
C60    H283    1.108   .     S
C60    H282    1.110   .     S
C60    H284    1.111   .     S
C61    C62     1.520   .     S
C61    H285    1.110   .     S
C61    H287    1.115   .     S
C61    O1114   1.416   .     S
C62    H288    1.110   .     S
C62    H290    1.111   .     S
C62    H289    1.108   .     S
C63    H291    1.108   .     S
C63    H292    1.116   .     S
C63    C64     1.521   .     S
C63    O1115   1.415   1_545 S
C64    H293    1.110   .     S
C64    H294    1.110   .     S
C64    H1055   1.111   1_545 S
C65    O356    1.415   .     S
C65    H296    1.109   .     S
C65    H171    1.116   .     S
C65    C66     1.522   .     S
C66    H174    1.111   .     S
C66    H172    1.110   .     S
C66    H173    1.111   .     S
C67    H176    1.115   .     S
C67    H175    1.111   .     S
C67    O357    1.416   .     S
C67    C69     1.521   .     S
C68    H240    1.082   .     S
C68    C466    1.399   .     A
C69    H178    1.111   .     S
C69    H177    1.111   .     S
C69    H179    1.111   .     S
C70    H182    1.115   .     S
C70    H180    1.110   .     S
C70    C71     1.520   .     S
C70    O1118   1.416   1_545 S
C71    H183    1.110   .     S
C71    H185    1.111   .     S
C71    H184    1.108   .     S
C72    C73     1.521   .     S
C72    H187    1.116   .     S
C72    H186    1.108   .     S
C72    O1119   1.415   .     S
C73    H188    1.111   .     S
C73    H189    1.110   .     S
C73    H950    1.111   .     S
C74    O360    1.415   .     S
C74    H193    1.116   .     S
C74    C75     1.522   .     S
C74    H191    1.109   .     S
C75    H196    1.111   .     S
C75    H194    1.110   .     S
C75    H195    1.111   .     S
C76    H197    1.111   .     S
C76    O361    1.416   .     S
C76    H198    1.115   .     S
C76    C77     1.521   .     S
C77    H201    1.111   .     S
C77    H200    1.111   .     S
C77    H199    1.111   .     S
C78    C114    1.399   .     A
C78    C381    1.399   1_455 S
C78    C107    1.464   .     S
C79    C108    1.462   .     S
C79    C505    1.397   1_455 A
C79    C81     1.396   .     S
C80    C896    1.397   1_545 A
C80    C105    1.461   .     S
C80    C92     1.397   .     S
C81    H225    1.081   .     S
C82    C106    1.463   .     S
C82    C863    1.398   1_545 A
C82    C147    1.398   .     S
C83    C918    1.398   1_545 A
C83    C111    1.463   .     S
C84    C806    1.397   1_545 A
C84    C112    1.461   .     S
C85    C393    1.397   1_455 A
C85    C109    1.462   .     S
C86    C110    1.464   .     S
C86    C448    1.399   1_455 A
C87    C93     1.403   .     A
C87    O345    1.385   .     S
C87    C166    1.414   .     A
C88    O346    1.387   .     S
C88    C91     1.403   .     A
C88    C167    1.411   .     A
C89    C95     1.403   .     A
C89    C168    1.412   .     A
C89    O347    1.386   .     S
C90    C94     1.403   .     A
C90    O348    1.384   .     S
C91    O349    1.385   .     S
C92    H226    1.082   .     S
C93    O350    1.387   .     S
C94    O351    1.386   .     S
C95    O353    1.384   .     S
C96    O354    1.384   .     S
C96    C101    1.403   1_556 S
C97    O355    1.386   .     S
C97    C100    1.403   1_554 S
C98    O356    1.387   .     S
C98    C104    1.403   1_556 S
C99    O357    1.385   .     S
C99    C102    1.403   1_554 S
C100   O358    1.384   .     S
C100   C97     1.403   1_556 S
C101   O359    1.386   .     S
C101   C96     1.403   1_554 S
C102   O360    1.387   .     S
C102   C99     1.403   1_556 S
C103   H227    1.082   .     S
C103   C842    1.398   .     A
C104   O361    1.385   .     S
C104   C98     1.403   1_554 S
C105   O1101   1.281   1_545 A
C105   O364    1.281   .     S
C106   O1058   1.281   1_545 A
C106   O352    1.281   .     S
C107   O679    1.282   1_455 A
C107   O362    1.282   .     S
C108   O743    1.281   1_455 A
C108   O300    1.281   .     S
C109   O305    1.281   .     A
C109   O301    1.281   .     S
C110   O302    1.282   .     A
C110   O306    1.282   .     S
C111   O303    1.281   .     S
C111   O307    1.281   .     S
C112   O304    1.281   .     A
C112   O309    1.281   .     A
C113   O310    1.282   .     A
C113   O338    1.282   .     A
C114   C166    1.398   .     A
C114   H228    1.082   .     S
C115   O311    1.282   .     A
C115   O339    1.282   .     A
C116   O336    1.282   .     A
C116   O312    1.282   .     A
C117   O337    1.282   .     A
C117   O313    1.282   .     A
C118   O314    1.282   .     A
C118   O343    1.282   .     A
C119   O344    1.282   .     A
C119   O315    1.282   .     A
C120   O316    1.282   .     A
C120   O340    1.282   .     A
C121   O317    1.282   .     A
C121   O342    1.282   .     A
C122   O329    1.282   .     A
C122   O318    1.282   .     A
C123   O331    1.282   .     A
C123   O320    1.282   .     A
C124   O321    1.282   .     A
C124   O327    1.282   .     A
C125   C459    1.397   .     A
C125   C167    1.397   .     A
C125   H229    1.081   .     S
C126   O322    1.282   .     A
C126   O328    1.282   .     A
C127   O323    1.282   .     A
C127   O334    1.282   .     A
C128   O335    1.282   .     A
C128   O324    1.282   .     A
C129   O332    1.282   .     A
C129   O325    1.282   .     A
C130   O333    1.282   .     A
C130   O326    1.282   .     A
C131   H169    1.083   .     S
C131   C148    1.386   .     A
C132   H209    1.083   .     S
C132   C146    1.386   .     A
C133   C145    1.386   .     A
C133   H220    1.083   .     S
C134   C144    1.386   .     A
C134   H231    1.083   .     S
C135   C143    1.386   .     A
C135   H242    1.083   .     S
C136   H230    1.082   .     S
C136   C840    1.397   .     A
C136   C168    1.397   .     A
C137   C142    1.386   .     A
C137   H253    1.083   .     S
C138   C141    1.386   .     A
C138   H264    1.083   .     S
C139   C140    1.386   .     A
C139   H275    1.083   .     S
C140   H286    1.083   .     S
C141   H170    1.083   .     S
C142   H181    1.083   .     S
C143   H192    1.083   .     S
C144   H202    1.083   .     S
C145   H203    1.083   .     S
C146   H204    1.083   .     S
C147   H232    1.082   .     S
C148   H205    1.083   .     S
C149   H206    1.083   .     S
C149   C165    1.386   .     A
C150   C164    1.386   .     A
C150   H207    1.083   .     S
C151   H208    1.083   .     S
C151   C163    1.386   .     A
C152   H210    1.083   .     S
C152   C162    1.386   .     A
C153   C161    1.386   .     A
C153   H211    1.083   .     S
C154   H212    1.083   .     S
C154   C160    1.386   .     A
C155   C159    1.386   .     A
C155   H213    1.083   .     S
C156   C157    1.386   .     A
C156   H214    1.083   .     S
C157   H215    1.083   .     S
C158   H233    1.082   .     S
C158   C843    1.398   .     A
C159   H216    1.083   .     S
C160   H217    1.083   .     S
C161   H218    1.083   .     S
C162   H219    1.083   .     S
C163   H221    1.083   .     S
C164   H222    1.083   .     S
C165   H223    1.083   .     S
C167   C416    1.415   .     S
C168   C797    1.415   .     A
H190   C833    1.111   1_545 S
H295   C824    1.111   .     S
O297   Zn368   1.948   .     S
O297   Zn376   1.948   .     S
O297   Zn365   1.948   .     S
O297   Zn1132  1.948   1_545 S
O298   C866    1.281   .     A
O298   Zn367   1.950   .     S
O299   Zn370   1.950   .     S
O299   C487    1.282   .     A
O300   Zn369   1.950   .     S
O301   Zn379   1.950   .     S
O302   Zn378   1.950   .     S
O303   Zn373   1.950   .     S
O304   Zn365   1.950   .     S
O305   Zn375   1.950   .     S
O306   Zn374   1.950   .     S
O307   Zn377   1.950   .     S
O308   Zn1127  1.948   1_545 S
O308   Zn371   1.948   .     S
O308   Zn373   1.948   .     S
O308   Zn377   1.948   .     S
O309   Zn376   1.950   .     S
O310   Zn368   1.936   .     S
O311   Zn367   1.936   .     S
O312   Zn370   1.936   .     S
O313   Zn369   1.936   .     S
O314   Zn372   1.936   .     S
O315   Zn371   1.936   .     S
O316   Zn366   1.936   .     S
O317   Zn380   1.936   .     S
O318   Zn367   1.936   .     S
O319   Zn366   1.948   .     S
O319   Zn374   1.948   .     S
O319   Zn750   1.948   1_455 S
O319   Zn378   1.948   .     S
O320   Zn368   1.936   .     S
O321   Zn380   1.936   .     S
O322   Zn366   1.936   .     S
O323   Zn371   1.936   .     S
O324   Zn372   1.936   .     S
O325   Zn369   1.936   .     S
O326   Zn370   1.936   .     S
O327   Zn755   1.936   .     S
O328   Zn374   1.936   .     S
O329   Zn1137  1.936   .     S
O330   Zn760   1.948   1_455 S
O330   Zn369   1.948   .     S
O330   Zn375   1.948   .     S
O330   Zn379   1.948   .     S
O331   Zn376   1.936   .     S
O332   Zn379   1.936   .     S
O333   Zn758   1.936   .     S
O334   Zn373   1.936   .     S
O335   Zn1125  1.936   .     S
O336   Zn754   1.936   .     S
O337   Zn375   1.936   .     S
O338   Zn365   1.936   .     S
O339   Zn1133  1.936   .     S
O340   Zn378   1.936   .     S
O341   C865    1.281   .     A
O341   Zn372   1.950   .     S
O342   Zn759   1.936   .     S
O343   Zn1136  1.936   .     S
O344   Zn377   1.936   .     S
O352   Zn371   1.950   .     S
O354   C821    1.416   1_545 S
O355   C823    1.415   .     S
O358   C830    1.416   .     S
O359   C832    1.415   1_545 S
O362   Zn366   1.950   .     S
O363   Zn380   1.950   .     S
O363   C488    1.281   .     A
O364   Zn368   1.950   .     S
Zn365  O1095   1.936   1_545 S
Zn367  O1068   1.948   .     S
Zn370  O699    1.948   .     S
Zn372  O1057   1.948   .     S
Zn373  O1099   1.936   1_545 S
Zn374  O716    1.936   1_455 S
Zn375  O707    1.936   1_455 S
Zn376  O1103   1.936   1_545 S
Zn377  O1089   1.936   1_545 S
Zn378  O713    1.936   1_455 S
Zn379  O722    1.936   1_455 S
Zn380  O710    1.948   .     S
C381   H604    1.082   .     S
C381   C384    1.398   .     A
C381   C78     1.399   1_655 S
C382   C394    1.397   .     A
C382   H614    1.082   .     S
C382   C464    1.397   .     S
C383   C527    1.398   .     A
C383   C470    1.413   .     A
C383   C418    1.416   .     S
C384   C471    1.414   .     A
C384   C34     1.416   1_655 S
C385   C416    1.415   .     A
C385   C461    1.397   .     A
C385   C473    1.411   .     A
C386   C474    1.412   .     A
C386   C472    1.397   .     A
C386   C417    1.415   .     S
C387   C483    1.398   .     A
C387   C1178   1.416   .     A
C387   C475    1.413   .     A
C388   C415    1.398   .     A
C388   C476    1.413   .     A
C388   C419    1.416   .     S
C389   C426    1.397   .     A
C389   C477    1.412   .     A
C389   C1180   1.415   .     A
C390   C478    1.411   .     A
C390   C437    1.397   .     A
C390   C421    1.415   .     S
C391   C479    1.414   .     A
C391   C448    1.398   .     A
C391   C42     1.416   1_655 A
C392   C1179   1.416   .     A
C392   C480    1.413   .     A
C392   C538    1.398   .     A
C393   C85     1.397   1_655 A
C393   C395    1.397   .     A
C393   H615    1.081   .     S
C394   C481    1.412   .     A
C394   C420    1.415   .     S
C395   C41     1.415   1_655 A
C395   C482    1.411   .     A
C396   C484    1.414   .     A
C396   C404    1.398   .     A
C396   C422    1.416   .     S
C397   C500    1.455   .     S
C397   C528    1.402   .     A
C397   C530    1.402   .     A
C398   C501    1.455   .     S
C398   C529    1.402   .     A
C398   C526    1.402   .     A
C399   C493    1.455   .     S
C399   C525    1.402   .     A
C399   C532    1.402   .     A
C400   C524    1.402   .     A
C400   C531    1.402   .     A
C400   C495    1.455   .     S
C401   C496    1.455   .     S
C401   C523    1.402   .     A
C401   C534    1.402   .     A
C402   C533    1.402   .     A
C402   C497    1.455   .     S
C402   C522    1.402   .     A
C403   C498    1.455   .     S
C403   C521    1.402   .     A
C403   C536    1.402   .     A
C404   H616    1.082   .     S
C404   C466    1.399   .     S
C405   C499    1.455   .     S
C405   C520    1.402   .     A
C405   C535    1.402   .     A
C406   C519    1.402   .     A
C406   C539    1.402   .     A
C406   C509    1.455   .     S
C407   C518    1.402   .     A
C407   C537    1.402   .     A
C407   C510    1.455   .     S
C408   C517    1.402   .     A
C408   C502    1.455   .     S
C408   C541    1.402   .     A
C409   C515    1.402   .     A
C409   C540    1.402   .     A
C409   C503    1.455   .     S
C410   C514    1.402   .     A
C410   C543    1.402   .     A
C410   C504    1.455   .     S
C411   C513    1.402   .     A
C411   C542    1.402   .     A
C411   C506    1.455   .     S
C412   C507    1.455   .     S
C412   C545    1.402   .     A
C412   C512    1.402   .     A
C413   C544    1.402   .     A
C413   C511    1.402   .     A
C413   C508    1.455   .     S
C414   C416    1.402   .     A
C414   C546    1.416   .     A
C415   H617    1.082   .     S
C415   C463    1.398   .     S
C417   C418    1.403   .     A
C417   C1308   1.415   1_545 A
C418   C1147   1.416   1_545 A
C419   C1152   1.416   1_545 A
C419   C420    1.403   1_556 S
C420   C1149   1.415   1_545 A
C420   C419    1.403   1_554 S
C421   C422    1.402   1_556 S
C422   C421    1.402   1_554 S
C423   C424    1.521   .     S
C423   O725    1.416   .     S
C423   H623    1.115   .     S
C423   H621    1.111   .     S
C424   H625    1.111   .     S
C424   H624    1.111   .     S
C424   H626    1.111   .     S
C425   C427    1.522   .     S
C425   H628    1.116   .     S
C425   O726    1.415   .     S
C425   H627    1.109   .     S
C426   C1224   1.397   .     A
C426   H618    1.082   .     S
C427   H630    1.111   .     S
C427   H631    1.111   .     S
C427   H629    1.110   .     S
C428   H632    1.108   .     S
C428   C429    1.521   .     S
C428   H634    1.116   .     S
C428   O727    1.415   .     S
C429   H635    1.111   .     S
C429   H637    1.111   .     S
C429   H636    1.110   .     S
C430   O728    1.416   .     S
C430   H638    1.110   .     S
C430   C431    1.520   .     S
C430   H639    1.115   .     S
C431   H642    1.111   .     S
C431   H640    1.111   .     S
C431   H641    1.108   .     S
C432   H643    1.111   .     S
C432   C433    1.521   .     S
C432   O729    1.416   .     S
C432   H645    1.115   .     S
C433   H647    1.111   .     S
C433   H646    1.111   .     S
C433   H648    1.111   .     S
C434   H649    1.109   .     S
C434   C435    1.522   .     S
C434   O730    1.415   .     S
C434   H650    1.116   .     S
C435   H652    1.111   .     S
C435   H653    1.111   .     S
C435   H651    1.110   .     S
C436   H654    1.108   .     S
C436   H656    1.116   .     S
C436   C438    1.521   .     S
C436   O731    1.415   .     S
C437   H619    1.081   .     S
C437   C465    1.397   .     S
C438   H659    1.111   .     S
C438   H657    1.111   .     S
C438   H658    1.110   .     S
C439   H660    1.110   .     S
C439   O733    1.416   .     S
C439   H661    1.115   .     S
C439   C440    1.520   .     S
C440   H663    1.108   .     S
C440   H662    1.110   .     S
C440   H664    1.111   .     S
C441   C442    1.520   .     S
C441   H665    1.110   .     S
C441   H667    1.115   .     S
C441   O1494   1.416   .     S
C442   H668    1.110   .     S
C442   H670    1.111   .     S
C442   H669    1.108   .     S
C443   H671    1.108   .     S
C443   H672    1.116   .     S
C443   C444    1.521   .     S
C443   O1495   1.415   1_545 S
C444   H673    1.110   .     S
C444   H674    1.110   .     S
C444   H1435   1.111   1_545 S
C445   O736    1.415   .     S
C445   H676    1.109   .     S
C445   H551    1.116   .     S
C445   C446    1.522   .     S
C446   H554    1.111   .     S
C446   H552    1.110   .     S
C446   H553    1.111   .     S
C447   H556    1.115   .     S
C447   H555    1.111   .     S
C447   O737    1.416   .     S
C447   C449    1.521   .     S
C448   H620    1.082   .     S
C448   C86     1.399   1_655 A
C449   H558    1.111   .     S
C449   H557    1.111   .     S
C449   H559    1.111   .     S
C450   H562    1.115   .     S
C450   H560    1.110   .     S
C450   C451    1.520   .     S
C450   O1498   1.416   1_545 S
C451   H563    1.110   .     S
C451   H565    1.111   .     S
C451   H564    1.108   .     S
C452   C453    1.521   .     S
C452   H567    1.116   .     S
C452   H566    1.108   .     S
C452   O1499   1.415   .     S
C453   H568    1.111   .     S
C453   H569    1.110   .     S
C453   H1330   1.111   .     S
C454   O740    1.415   .     S
C454   H573    1.116   .     S
C454   C455    1.522   .     S
C454   H571    1.109   .     S
C455   H576    1.111   .     S
C455   H574    1.110   .     S
C455   H575    1.111   .     S
C456   H577    1.111   .     S
C456   O741    1.416   .     S
C456   H578    1.115   .     S
C456   C457    1.521   .     S
C457   H581    1.111   .     S
C457   H580    1.111   .     S
C457   H579    1.111   .     S
C458   C494    1.399   .     A
C458   C487    1.464   .     S
C459   C488    1.462   .     S
C459   C461    1.396   .     S
C460   C1276   1.397   1_545 A
C460   C485    1.461   .     S
C460   C472    1.397   .     S
C461   H605    1.081   .     S
C462   C486    1.463   .     S
C462   C1243   1.398   1_545 A
C462   C527    1.398   .     S
C463   C1298   1.398   1_545 A
C463   C491    1.463   .     S
C464   C1186   1.397   1_545 A
C464   C492    1.461   .     S
C465   C489    1.462   .     S
C466   C490    1.464   .     S
C467   C473    1.403   .     A
C467   O725    1.385   .     S
C467   C546    1.414   .     A
C468   O726    1.387   .     S
C468   C471    1.403   .     A
C468   C547    1.411   .     A
C469   C475    1.403   .     A
C469   C548    1.412   .     A
C469   O727    1.386   .     S
C470   C474    1.403   .     A
C470   O728    1.384   .     S
C471   O729    1.385   .     S
C472   H606    1.082   .     S
C473   O730    1.387   .     S
C474   O731    1.386   .     S
C475   O733    1.384   .     S
C476   O734    1.384   .     S
C476   C481    1.403   1_556 S
C477   O735    1.386   .     S
C477   C480    1.403   1_554 S
C478   O736    1.387   .     S
C478   C484    1.403   1_556 S
C479   O737    1.385   .     S
C479   C482    1.403   1_554 S
C480   O738    1.384   .     S
C480   C477    1.403   1_556 S
C481   O739    1.386   .     S
C481   C476    1.403   1_554 S
C482   O740    1.387   .     S
C482   C479    1.403   1_556 S
C483   H607    1.082   .     S
C483   C1222   1.398   .     A
C484   O741    1.385   .     S
C484   C478    1.403   1_554 S
C485   O1481   1.281   1_545 A
C485   O744    1.281   .     S
C486   O1438   1.281   1_545 A
C486   O732    1.281   .     S
C487   O742    1.282   .     S
C488   O680    1.281   .     S
C489   O685    1.281   .     A
C489   O681    1.281   .     S
C490   O682    1.282   .     A
C490   O686    1.282   .     S
C491   O683    1.281   .     S
C491   O687    1.281   .     S
C492   O684    1.281   .     A
C492   O689    1.281   .     A
C493   O690    1.282   .     A
C493   O718    1.282   .     A
C494   C546    1.398   .     A
C494   H608    1.082   .     S
C495   O691    1.282   .     A
C495   O719    1.282   .     A
C496   O716    1.282   .     A
C496   O692    1.282   .     A
C497   O717    1.282   .     A
C497   O693    1.282   .     A
C498   O694    1.282   .     A
C498   O723    1.282   .     A
C499   O724    1.282   .     A
C499   O695    1.282   .     A
C500   O696    1.282   .     A
C500   O720    1.282   .     A
C501   O697    1.282   .     A
C501   O722    1.282   .     A
C502   O709    1.282   .     A
C502   O698    1.282   .     A
C503   O711    1.282   .     A
C503   O700    1.282   .     A
C504   O701    1.282   .     A
C504   O707    1.282   .     A
C505   C79     1.397   1_655 A
C505   C547    1.397   .     A
C505   H609    1.081   .     S
C506   O702    1.282   .     A
C506   O708    1.282   .     A
C507   O703    1.282   .     A
C507   O714    1.282   .     A
C508   O715    1.282   .     A
C508   O704    1.282   .     A
C509   O712    1.282   .     A
C509   O705    1.282   .     A
C510   O713    1.282   .     A
C510   O706    1.282   .     A
C511   H549    1.083   .     S
C511   C528    1.386   .     A
C512   H589    1.083   .     S
C512   C526    1.386   .     A
C513   C525    1.386   .     A
C513   H600    1.083   .     S
C514   C524    1.386   .     A
C514   H611    1.083   .     S
C515   C523    1.386   .     A
C515   H622    1.083   .     S
C516   H610    1.082   .     S
C516   C1220   1.397   .     A
C516   C548    1.397   .     A
C517   C522    1.386   .     A
C517   H633    1.083   .     S
C518   C521    1.386   .     A
C518   H644    1.083   .     S
C519   C520    1.386   .     A
C519   H655    1.083   .     S
C520   H666    1.083   .     S
C521   H550    1.083   .     S
C522   H561    1.083   .     S
C523   H572    1.083   .     S
C524   H582    1.083   .     S
C525   H583    1.083   .     S
C526   H584    1.083   .     S
C527   H612    1.082   .     S
C528   H585    1.083   .     S
C529   H586    1.083   .     S
C529   C545    1.386   .     A
C530   C544    1.386   .     A
C530   H587    1.083   .     S
C531   H588    1.083   .     S
C531   C543    1.386   .     A
C532   H590    1.083   .     S
C532   C542    1.386   .     A
C533   C541    1.386   .     A
C533   H591    1.083   .     S
C534   H592    1.083   .     S
C534   C540    1.386   .     A
C535   C539    1.386   .     A
C535   H593    1.083   .     S
C536   C537    1.386   .     A
C536   H594    1.083   .     S
C537   H595    1.083   .     S
C538   H613    1.082   .     S
C538   C1223   1.398   .     A
C539   H596    1.083   .     S
C540   H597    1.083   .     S
C541   H598    1.083   .     S
C542   H599    1.083   .     S
C543   H601    1.083   .     S
C544   H602    1.083   .     S
C545   H603    1.083   .     S
C547   C36     1.415   1_655 S
C548   C1177   1.415   .     A
H570   C1213   1.111   1_545 S
H675   C1204   1.111   .     S
O677   Zn748   1.948   .     S
O677   Zn756   1.948   .     S
O677   Zn745   1.948   .     S
O677   Zn1512  1.948   1_545 S
O678   C1246   1.281   .     A
O678   Zn747   1.950   .     S
O679   Zn750   1.950   .     S
O679   C107    1.282   1_655 A
O680   Zn749   1.950   .     S
O681   Zn759   1.950   .     S
O682   Zn758   1.950   .     S
O683   Zn753   1.950   .     S
O684   Zn745   1.950   .     S
O685   Zn755   1.950   .     S
O686   Zn754   1.950   .     S
O687   Zn757   1.950   .     S
O688   Zn1507  1.948   1_545 S
O688   Zn751   1.948   .     S
O688   Zn753   1.948   .     S
O688   Zn757   1.948   .     S
O689   Zn756   1.950   .     S
O690   Zn748   1.936   .     S
O691   Zn747   1.936   .     S
O692   Zn750   1.936   .     S
O693   Zn749   1.936   .     S
O694   Zn752   1.936   .     S
O695   Zn751   1.936   .     S
O696   Zn746   1.936   .     S
O697   Zn760   1.936   .     S
O698   Zn747   1.936   .     S
O699   Zn746   1.948   .     S
O699   Zn754   1.948   .     S
O699   Zn758   1.948   .     S
O700   Zn748   1.936   .     S
O701   Zn760   1.936   .     S
O702   Zn746   1.936   .     S
O703   Zn751   1.936   .     S
O704   Zn752   1.936   .     S
O705   Zn749   1.936   .     S
O706   Zn750   1.936   .     S
O707   Zn375   1.936   1_655 S
O708   Zn754   1.936   .     S
O709   Zn1517  1.936   .     S
O710   Zn749   1.948   .     S
O710   Zn755   1.948   .     S
O710   Zn759   1.948   .     S
O711   Zn756   1.936   .     S
O712   Zn759   1.936   .     S
O713   Zn378   1.936   1_655 S
O714   Zn753   1.936   .     S
O715   Zn1505  1.936   .     S
O716   Zn374   1.936   1_655 S
O717   Zn755   1.936   .     S
O718   Zn745   1.936   .     S
O719   Zn1513  1.936   .     S
O720   Zn758   1.936   .     S
O721   C1245   1.281   .     A
O721   Zn752   1.950   .     S
O722   Zn379   1.936   1_655 S
O723   Zn1516  1.936   .     S
O724   Zn757   1.936   .     S
O732   Zn751   1.950   .     S
O734   C1201   1.416   1_545 S
O735   C1203   1.415   .     S
O738   C1210   1.416   .     S
O739   C1212   1.415   1_545 S
O742   Zn746   1.950   .     S
O743   Zn760   1.950   .     S
O743   C108    1.281   1_655 A
O744   Zn748   1.950   .     S
Zn745  O1475   1.936   1_545 S
Zn747  O1448   1.948   .     S
Zn750  O319    1.948   1_655 S
Zn752  O1437   1.948   .     S
Zn753  O1479   1.936   1_545 S
Zn756  O1483   1.936   1_545 S
Zn757  O1469   1.936   1_545 S
Zn760  O330    1.948   1_655 S
C761   H984    1.082   .     S
C761   C764    1.398   .     A
C761   C1218   1.399   .     S
C762   C774    1.397   .     A
C762   H994    1.082   .     S
C762   C844    1.397   .     S
C763   C907    1.398   .     A
C763   C850    1.413   .     A
C763   C798    1.416   .     S
C764   C851    1.414   .     A
C764   C1174   1.416   .     S
C765   C796    1.415   .     A
C765   C841    1.397   .     A
C765   C853    1.411   .     A
C766   C854    1.412   .     A
C766   C852    1.397   .     A
C766   C797    1.415   .     S
C767   C863    1.398   .     A
C767   C38     1.416   1_565 A
C767   C855    1.413   .     A
C768   C795    1.398   .     A
C768   C856    1.413   .     A
C768   C799    1.416   .     S
C769   C806    1.397   .     A
C769   C857    1.412   .     A
C769   C40     1.415   1_565 A
C770   C858    1.411   .     A
C770   C817    1.397   .     A
C770   C801    1.415   .     S
C771   C859    1.414   .     A
C771   C828    1.398   .     A
C771   C1182   1.416   .     A
C772   C39     1.416   1_565 A
C772   C860    1.413   .     A
C772   C918    1.398   .     A
C773   C1225   1.397   .     A
C773   C775    1.397   .     A
C773   H995    1.081   .     S
C774   C861    1.412   .     A
C774   C800    1.415   .     S
C775   C1181   1.415   .     A
C775   C862    1.411   .     A
C776   C864    1.414   .     A
C776   C784    1.398   .     A
C776   C802    1.416   .     S
C777   C880    1.455   .     S
C777   C908    1.402   .     A
C777   C910    1.402   .     A
C778   C881    1.455   .     S
C778   C909    1.402   .     A
C778   C906    1.402   .     A
C779   C873    1.455   .     S
C779   C905    1.402   .     A
C779   C912    1.402   .     A
C780   C904    1.402   .     A
C780   C911    1.402   .     A
C780   C875    1.455   .     S
C781   C876    1.455   .     S
C781   C903    1.402   .     A
C781   C914    1.402   .     A
C782   C913    1.402   .     A
C782   C877    1.455   .     S
C782   C902    1.402   .     A
C783   C878    1.455   .     S
C783   C901    1.402   .     A
C783   C916    1.402   .     A
C784   H996    1.082   .     S
C784   C846    1.399   .     S
C785   C879    1.455   .     S
C785   C900    1.402   .     A
C785   C915    1.402   .     A
C786   C899    1.402   .     A
C786   C919    1.402   .     A
C786   C889    1.455   .     S
C787   C898    1.402   .     A
C787   C917    1.402   .     A
C787   C890    1.455   .     S
C788   C897    1.402   .     A
C788   C882    1.455   .     S
C788   C921    1.402   .     A
C789   C895    1.402   .     A
C789   C920    1.402   .     A
C789   C883    1.455   .     S
C790   C894    1.402   .     A
C790   C923    1.402   .     A
C790   C884    1.455   .     S
C791   C893    1.402   .     A
C791   C922    1.402   .     A
C791   C886    1.455   .     S
C792   C887    1.455   .     S
C792   C925    1.402   .     A
C792   C892    1.402   .     A
C793   C924    1.402   .     A
C793   C891    1.402   .     A
C793   C888    1.455   .     S
C794   C796    1.402   .     A
C794   C926    1.416   .     A
C794   C1144   1.416   1_455 S
C795   H997    1.082   .     S
C795   C843    1.398   .     S
C796   C1307   1.415   1_455 S
C797   C798    1.403   .     A
C799   C800    1.403   1_556 S
C800   C799    1.403   1_554 S
C801   C1155   1.415   1_455 A
C801   C802    1.402   1_556 S
C802   C1151   1.416   1_455 A
C802   C801    1.402   1_554 S
C803   C804    1.521   .     S
C803   O1105   1.416   .     S
C803   H1003   1.115   .     S
C803   H1001   1.111   .     S
C804   H1005   1.111   .     S
C804   H1004   1.111   .     S
C804   H1006   1.111   .     S
C805   C807    1.522   .     S
C805   H1008   1.116   .     S
C805   O1106   1.415   .     S
C805   H1007   1.109   .     S
C806   C84     1.397   1_565 A
C806   H998    1.082   .     S
C807   H1010   1.111   .     S
C807   H1011   1.111   .     S
C807   H1009   1.110   .     S
C808   H1012   1.108   .     S
C808   C809    1.521   .     S
C808   H1014   1.116   .     S
C808   O1107   1.415   .     S
C809   H1015   1.111   .     S
C809   H1017   1.111   .     S
C809   H1016   1.110   .     S
C810   O1108   1.416   .     S
C810   H1018   1.110   .     S
C810   C811    1.520   .     S
C810   H1019   1.115   .     S
C811   H1022   1.111   .     S
C811   H1020   1.111   .     S
C811   H1021   1.108   .     S
C812   H1023   1.111   .     S
C812   C813    1.521   .     S
C812   O1109   1.416   .     S
C812   H1025   1.115   .     S
C813   H1027   1.111   .     S
C813   H1026   1.111   .     S
C813   H1028   1.111   .     S
C814   H1029   1.109   .     S
C814   C815    1.522   .     S
C814   O1110   1.415   .     S
C814   H1030   1.116   .     S
C815   H1032   1.111   .     S
C815   H1033   1.111   .     S
C815   H1031   1.110   .     S
C816   H1034   1.108   .     S
C816   H1036   1.116   .     S
C816   C818    1.521   .     S
C816   O1111   1.415   .     S
C817   H999    1.081   .     S
C817   C845    1.397   .     S
C818   H1039   1.111   .     S
C818   H1037   1.111   .     S
C818   H1038   1.110   .     S
C819   H1040   1.110   .     S
C819   O1113   1.416   .     S
C819   H1041   1.115   .     S
C819   C820    1.520   .     S
C820   H1043   1.108   .     S
C820   H1042   1.110   .     S
C820   H1044   1.111   .     S
C821   C822    1.520   .     S
C821   H1045   1.110   .     S
C821   H1047   1.115   .     S
C821   O354    1.416   1_565 S
C822   H1048   1.110   .     S
C822   H1050   1.111   .     S
C822   H1049   1.108   .     S
C823   H1051   1.108   .     S
C823   H1052   1.116   .     S
C823   C824    1.521   .     S
C824   H1053   1.110   .     S
C824   H1054   1.110   .     S
C825   O1116   1.415   .     S
C825   H1056   1.109   .     S
C825   H931    1.116   .     S
C825   C826    1.522   .     S
C826   H934    1.111   .     S
C826   H932    1.110   .     S
C826   H933    1.111   .     S
C827   H936    1.115   .     S
C827   H935    1.111   .     S
C827   O1117   1.416   .     S
C827   C829    1.521   .     S
C828   H1000   1.082   .     S
C828   C1226   1.399   .     A
C829   H938    1.111   .     S
C829   H937    1.111   .     S
C829   H939    1.111   .     S
C830   H942    1.115   .     S
C830   H940    1.110   .     S
C830   C831    1.520   .     S
C831   H943    1.110   .     S
C831   H945    1.111   .     S
C831   H944    1.108   .     S
C832   C833    1.521   .     S
C832   H947    1.116   .     S
C832   H946    1.108   .     S
C832   O359    1.415   1_565 S
C833   H948    1.111   .     S
C833   H949    1.110   .     S
C833   H190    1.111   1_565 S
C834   O1120   1.415   .     S
C834   H953    1.116   .     S
C834   C835    1.522   .     S
C834   H951    1.109   .     S
C835   H956    1.111   .     S
C835   H954    1.110   .     S
C835   H955    1.111   .     S
C836   H957    1.111   .     S
C836   O1121   1.416   .     S
C836   H958    1.115   .     S
C836   C837    1.521   .     S
C837   H961    1.111   .     S
C837   H960    1.111   .     S
C837   H959    1.111   .     S
C838   C874    1.399   .     A
C838   C1141   1.399   1_455 S
C838   C867    1.464   .     S
C839   C868    1.462   .     S
C839   C1265   1.397   1_455 A
C839   C841    1.396   .     S
C840   C865    1.461   .     S
C840   C852    1.397   .     S
C841   H985    1.081   .     S
C842   C866    1.463   .     S
C842   C907    1.398   .     S
C843   C871    1.463   .     S
C844   C872    1.461   .     S
C845   C1153   1.397   1_455 A
C845   C869    1.462   .     S
C846   C870    1.464   .     S
C846   C1208   1.399   1_455 A
C847   C853    1.403   .     A
C847   O1105   1.385   .     S
C847   C926    1.414   .     A
C848   O1106   1.387   .     S
C848   C851    1.403   .     A
C848   C927    1.411   .     A
C849   C855    1.403   .     A
C849   C928    1.412   .     A
C849   O1107   1.386   .     S
C850   C854    1.403   .     A
C850   O1108   1.384   .     S
C851   O1109   1.385   .     S
C852   H986    1.082   .     S
C853   O1110   1.387   .     S
C854   O1111   1.386   .     S
C855   O1113   1.384   .     S
C856   O1114   1.384   .     S
C856   C861    1.403   1_556 S
C857   O1115   1.386   .     S
C857   C860    1.403   1_554 S
C858   O1116   1.387   .     S
C858   C864    1.403   1_556 S
C859   O1117   1.385   .     S
C859   C862    1.403   1_554 S
C860   O1118   1.384   .     S
C860   C857    1.403   1_556 S
C861   O1119   1.386   .     S
C861   C856    1.403   1_554 S
C862   O1120   1.387   .     S
C862   C859    1.403   1_556 S
C863   H987    1.082   .     S
C863   C82     1.398   1_565 A
C864   O1121   1.385   .     S
C864   C858    1.403   1_554 S
C865   O1124   1.281   .     S
C866   O1112   1.281   .     S
C867   O1439   1.282   1_455 A
C867   O1122   1.282   .     S
C868   O1503   1.281   1_455 A
C868   O1060   1.281   .     S
C869   O1065   1.281   .     A
C869   O1061   1.281   .     S
C870   O1062   1.282   .     A
C870   O1066   1.282   .     S
C871   O1063   1.281   .     S
C871   O1067   1.281   .     S
C872   O1064   1.281   .     A
C872   O1069   1.281   .     A
C873   O1070   1.282   .     A
C873   O1098   1.282   .     A
C874   C926    1.398   .     A
C874   H988    1.082   .     S
C875   O1071   1.282   .     A
C875   O1099   1.282   .     A
C876   O1096   1.282   .     A
C876   O1072   1.282   .     A
C877   O1097   1.282   .     A
C877   O1073   1.282   .     A
C878   O1074   1.282   .     A
C878   O1103   1.282   .     A
C879   O1104   1.282   .     A
C879   O1075   1.282   .     A
C880   O1076   1.282   .     A
C880   O1100   1.282   .     A
C881   O1077   1.282   .     A
C881   O1102   1.282   .     A
C882   O1089   1.282   .     A
C882   O1078   1.282   .     A
C883   O1091   1.282   .     A
C883   O1080   1.282   .     A
C884   O1081   1.282   .     A
C884   O1087   1.282   .     A
C885   C1219   1.397   .     A
C885   C927    1.397   .     A
C885   H989    1.081   .     S
C886   O1082   1.282   .     A
C886   O1088   1.282   .     A
C887   O1083   1.282   .     A
C887   O1094   1.282   .     A
C888   O1095   1.282   .     A
C888   O1084   1.282   .     A
C889   O1092   1.282   .     A
C889   O1085   1.282   .     A
C890   O1093   1.282   .     A
C890   O1086   1.282   .     A
C891   H929    1.083   .     S
C891   C908    1.386   .     A
C892   H969    1.083   .     S
C892   C906    1.386   .     A
C893   C905    1.386   .     A
C893   H980    1.083   .     S
C894   C904    1.386   .     A
C894   H991    1.083   .     S
C895   C903    1.386   .     A
C895   H1002   1.083   .     S
C896   H990    1.082   .     S
C896   C80     1.397   1_565 A
C896   C928    1.397   .     A
C897   C902    1.386   .     A
C897   H1013   1.083   .     S
C898   C901    1.386   .     A
C898   H1024   1.083   .     S
C899   C900    1.386   .     A
C899   H1035   1.083   .     S
C900   H1046   1.083   .     S
C901   H930    1.083   .     S
C902   H941    1.083   .     S
C903   H952    1.083   .     S
C904   H962    1.083   .     S
C905   H963    1.083   .     S
C906   H964    1.083   .     S
C907   H992    1.082   .     S
C908   H965    1.083   .     S
C909   H966    1.083   .     S
C909   C925    1.386   .     A
C910   C924    1.386   .     A
C910   H967    1.083   .     S
C911   H968    1.083   .     S
C911   C923    1.386   .     A
C912   H970    1.083   .     S
C912   C922    1.386   .     A
C913   C921    1.386   .     A
C913   H971    1.083   .     S
C914   H972    1.083   .     S
C914   C920    1.386   .     A
C915   C919    1.386   .     A
C915   H973    1.083   .     S
C916   C917    1.386   .     A
C916   H974    1.083   .     S
C917   H975    1.083   .     S
C918   H993    1.082   .     S
C918   C83     1.398   1_565 A
C919   H976    1.083   .     S
C920   H977    1.083   .     S
C921   H978    1.083   .     S
C922   H979    1.083   .     S
C923   H981    1.083   .     S
C924   H982    1.083   .     S
C925   H983    1.083   .     S
C927   C1176   1.415   .     S
C928   C37     1.415   1_565 A
H1055  C64     1.111   1_565 S
O1057  Zn1128  1.948   .     S
O1057  Zn1136  1.948   .     S
O1057  Zn1125  1.948   .     S
O1058  C106    1.281   1_565 A
O1058  Zn1127  1.950   .     S
O1059  Zn1130  1.950   .     S
O1059  C1247   1.282   .     A
O1060  Zn1129  1.950   .     S
O1061  Zn1139  1.950   .     S
O1062  Zn1138  1.950   .     S
O1063  Zn1133  1.950   .     S
O1064  Zn1125  1.950   .     S
O1065  Zn1135  1.950   .     S
O1066  Zn1134  1.950   .     S
O1067  Zn1137  1.950   .     S
O1068  Zn1131  1.948   .     S
O1068  Zn1133  1.948   .     S
O1068  Zn1137  1.948   .     S
O1069  Zn1136  1.950   .     S
O1070  Zn1128  1.936   .     S
O1071  Zn1127  1.936   .     S
O1072  Zn1130  1.936   .     S
O1073  Zn1129  1.936   .     S
O1074  Zn1132  1.936   .     S
O1075  Zn1131  1.936   .     S
O1076  Zn1126  1.936   .     S
O1077  Zn1140  1.936   .     S
O1078  Zn1127  1.936   .     S
O1079  Zn1126  1.948   .     S
O1079  Zn1134  1.948   .     S
O1079  Zn1510  1.948   1_455 S
O1079  Zn1138  1.948   .     S
O1080  Zn1128  1.936   .     S
O1081  Zn1140  1.936   .     S
O1082  Zn1126  1.936   .     S
O1083  Zn1131  1.936   .     S
O1084  Zn1132  1.936   .     S
O1085  Zn1129  1.936   .     S
O1086  Zn1130  1.936   .     S
O1087  Zn1515  1.936   .     S
O1088  Zn1134  1.936   .     S
O1089  Zn377   1.936   1_565 S
O1090  Zn1520  1.948   1_455 S
O1090  Zn1129  1.948   .     S
O1090  Zn1135  1.948   .     S
O1090  Zn1139  1.948   .     S
O1091  Zn1136  1.936   .     S
O1092  Zn1139  1.936   .     S
O1093  Zn1518  1.936   .     S
O1094  Zn1133  1.936   .     S
O1095  Zn365   1.936   1_565 S
O1096  Zn1514  1.936   .     S
O1097  Zn1135  1.936   .     S
O1098  Zn1125  1.936   .     S
O1099  Zn373   1.936   1_565 S
O1100  Zn1138  1.936   .     S
O1101  C105    1.281   1_565 A
O1101  Zn1132  1.950   .     S
O1102  Zn1519  1.936   .     S
O1103  Zn376   1.936   1_565 S
O1104  Zn1137  1.936   .     S
O1112  Zn1131  1.950   .     S
O1115  C63     1.415   1_565 S
O1118  C70     1.416   1_565 S
O1122  Zn1126  1.950   .     S
O1123  Zn1140  1.950   .     S
O1123  C1248   1.281   .     A
O1124  Zn1128  1.950   .     S
Zn1127 O308    1.948   1_565 S
Zn1130 O1459   1.948   .     S
Zn1132 O297    1.948   1_565 S
Zn1134 O1476   1.936   1_455 S
Zn1135 O1467   1.936   1_455 S
Zn1138 O1473   1.936   1_455 S
Zn1139 O1482   1.936   1_455 S
Zn1140 O1470   1.948   .     S
C1141  H1364   1.082   .     S
C1141  C1144   1.398   .     A
C1141  C838    1.399   1_655 S
C1142  C1154   1.397   .     A
C1142  H1374   1.082   .     S
C1142  C1224   1.397   .     S
C1143  C1287   1.398   .     A
C1143  C1230   1.413   .     A
C1143  C1178   1.416   .     S
C1144  C1231   1.414   .     A
C1144  C794    1.416   1_655 S
C1145  C1176   1.415   .     A
C1145  C1221   1.397   .     A
C1145  C1233   1.411   .     A
C1146  C1234   1.412   .     A
C1146  C1232   1.397   .     A
C1146  C1177   1.415   .     S
C1147  C1243   1.398   .     A
C1147  C418    1.416   1_565 A
C1147  C1235   1.413   .     A
C1148  C1175   1.398   .     A
C1148  C1236   1.413   .     A
C1148  C1179   1.416   .     S
C1149  C1186   1.397   .     A
C1149  C1237   1.412   .     A
C1149  C420    1.415   1_565 A
C1150  C1238   1.411   .     A
C1150  C1197   1.397   .     A
C1150  C1181   1.415   .     S
C1151  C1239   1.414   .     A
C1151  C1208   1.398   .     A
C1151  C802    1.416   1_655 A
C1152  C419    1.416   1_565 A
C1152  C1240   1.413   .     A
C1152  C1298   1.398   .     A
C1153  C845    1.397   1_655 A
C1153  C1155   1.397   .     A
C1153  H1375   1.081   .     S
C1154  C1241   1.412   .     A
C1154  C1180   1.415   .     S
C1155  C801    1.415   1_655 A
C1155  C1242   1.411   .     A
C1156  C1244   1.414   .     A
C1156  C1164   1.398   .     A
C1156  C1182   1.416   .     S
C1157  C1260   1.455   .     S
C1157  C1288   1.402   .     A
C1157  C1290   1.402   .     A
C1158  C1261   1.455   .     S
C1158  C1289   1.402   .     A
C1158  C1286   1.402   .     A
C1159  C1253   1.455   .     S
C1159  C1285   1.402   .     A
C1159  C1292   1.402   .     A
C1160  C1284   1.402   .     A
C1160  C1291   1.402   .     A
C1160  C1255   1.455   .     S
C1161  C1256   1.455   .     S
C1161  C1283   1.402   .     A
C1161  C1294   1.402   .     A
C1162  C1293   1.402   .     A
C1162  C1257   1.455   .     S
C1162  C1282   1.402   .     A
C1163  C1258   1.455   .     S
C1163  C1281   1.402   .     A
C1163  C1296   1.402   .     A
C1164  H1376   1.082   .     S
C1164  C1226   1.399   .     S
C1165  C1259   1.455   .     S
C1165  C1280   1.402   .     A
C1165  C1295   1.402   .     A
C1166  C1279   1.402   .     A
C1166  C1299   1.402   .     A
C1166  C1269   1.455   .     S
C1167  C1278   1.402   .     A
C1167  C1297   1.402   .     A
C1167  C1270   1.455   .     S
C1168  C1277   1.402   .     A
C1168  C1262   1.455   .     S
C1168  C1301   1.402   .     A
C1169  C1275   1.402   .     A
C1169  C1300   1.402   .     A
C1169  C1263   1.455   .     S
C1170  C1274   1.402   .     A
C1170  C1303   1.402   .     A
C1170  C1264   1.455   .     S
C1171  C1273   1.402   .     A
C1171  C1302   1.402   .     A
C1171  C1266   1.455   .     S
C1172  C1267   1.455   .     S
C1172  C1305   1.402   .     A
C1172  C1272   1.402   .     A
C1173  C1304   1.402   .     A
C1173  C1271   1.402   .     A
C1173  C1268   1.455   .     S
C1174  C1176   1.402   .     A
C1174  C1306   1.416   .     A
C1175  H1377   1.082   .     S
C1175  C1223   1.398   .     S
C1177  C1178   1.403   .     A
C1179  C1180   1.403   1_556 S
C1180  C1179   1.403   1_554 S
C1181  C1182   1.402   1_556 S
C1182  C1181   1.402   1_554 S
C1183  C1184   1.521   .     S
C1183  O1485   1.416   .     S
C1183  H1383   1.115   .     S
C1183  H1381   1.111   .     S
C1184  H1385   1.111   .     S
C1184  H1384   1.111   .     S
C1184  H1386   1.111   .     S
C1185  C1187   1.522   .     S
C1185  H1388   1.116   .     S
C1185  O1486   1.415   .     S
C1185  H1387   1.109   .     S
C1186  C464    1.397   1_565 A
C1186  H1378   1.082   .     S
C1187  H1390   1.111   .     S
C1187  H1391   1.111   .     S
C1187  H1389   1.110   .     S
C1188  H1392   1.108   .     S
C1188  C1189   1.521   .     S
C1188  H1394   1.116   .     S
C1188  O1487   1.415   .     S
C1189  H1395   1.111   .     S
C1189  H1397   1.111   .     S
C1189  H1396   1.110   .     S
C1190  O1488   1.416   .     S
C1190  H1398   1.110   .     S
C1190  C1191   1.520   .     S
C1190  H1399   1.115   .     S
C1191  H1402   1.111   .     S
C1191  H1400   1.111   .     S
C1191  H1401   1.108   .     S
C1192  H1403   1.111   .     S
C1192  C1193   1.521   .     S
C1192  O1489   1.416   .     S
C1192  H1405   1.115   .     S
C1193  H1407   1.111   .     S
C1193  H1406   1.111   .     S
C1193  H1408   1.111   .     S
C1194  H1409   1.109   .     S
C1194  C1195   1.522   .     S
C1194  O1490   1.415   .     S
C1194  H1410   1.116   .     S
C1195  H1412   1.111   .     S
C1195  H1413   1.111   .     S
C1195  H1411   1.110   .     S
C1196  H1414   1.108   .     S
C1196  H1416   1.116   .     S
C1196  C1198   1.521   .     S
C1196  O1491   1.415   .     S
C1197  H1379   1.081   .     S
C1197  C1225   1.397   .     S
C1198  H1419   1.111   .     S
C1198  H1417   1.111   .     S
C1198  H1418   1.110   .     S
C1199  H1420   1.110   .     S
C1199  O1493   1.416   .     S
C1199  H1421   1.115   .     S
C1199  C1200   1.520   .     S
C1200  H1423   1.108   .     S
C1200  H1422   1.110   .     S
C1200  H1424   1.111   .     S
C1201  C1202   1.520   .     S
C1201  H1425   1.110   .     S
C1201  H1427   1.115   .     S
C1201  O734    1.416   1_565 S
C1202  H1428   1.110   .     S
C1202  H1430   1.111   .     S
C1202  H1429   1.108   .     S
C1203  H1431   1.108   .     S
C1203  H1432   1.116   .     S
C1203  C1204   1.521   .     S
C1204  H1433   1.110   .     S
C1204  H1434   1.110   .     S
C1205  O1496   1.415   .     S
C1205  H1436   1.109   .     S
C1205  H1311   1.116   .     S
C1205  C1206   1.522   .     S
C1206  H1314   1.111   .     S
C1206  H1312   1.110   .     S
C1206  H1313   1.111   .     S
C1207  H1316   1.115   .     S
C1207  H1315   1.111   .     S
C1207  O1497   1.416   .     S
C1207  C1209   1.521   .     S
C1208  H1380   1.082   .     S
C1208  C846    1.399   1_655 A
C1209  H1318   1.111   .     S
C1209  H1317   1.111   .     S
C1209  H1319   1.111   .     S
C1210  H1322   1.115   .     S
C1210  H1320   1.110   .     S
C1210  C1211   1.520   .     S
C1211  H1323   1.110   .     S
C1211  H1325   1.111   .     S
C1211  H1324   1.108   .     S
C1212  C1213   1.521   .     S
C1212  H1327   1.116   .     S
C1212  H1326   1.108   .     S
C1212  O739    1.415   1_565 S
C1213  H1328   1.111   .     S
C1213  H1329   1.110   .     S
C1213  H570    1.111   1_565 S
C1214  O1500   1.415   .     S
C1214  H1333   1.116   .     S
C1214  C1215   1.522   .     S
C1214  H1331   1.109   .     S
C1215  H1336   1.111   .     S
C1215  H1334   1.110   .     S
C1215  H1335   1.111   .     S
C1216  H1337   1.111   .     S
C1216  O1501   1.416   .     S
C1216  H1338   1.115   .     S
C1216  C1217   1.521   .     S
C1217  H1341   1.111   .     S
C1217  H1340   1.111   .     S
C1217  H1339   1.111   .     S
C1218  C1254   1.399   .     A
C1218  C1247   1.464   .     S
C1219  C1248   1.462   .     S
C1219  C1221   1.396   .     S
C1220  C1245   1.461   .     S
C1220  C1232   1.397   .     S
C1221  H1365   1.081   .     S
C1222  C1246   1.463   .     S
C1222  C1287   1.398   .     S
C1223  C1251   1.463   .     S
C1224  C1252   1.461   .     S
C1225  C1249   1.462   .     S
C1226  C1250   1.464   .     S
C1227  C1233   1.403   .     A
C1227  O1485   1.385   .     S
C1227  C1306   1.414   .     A
C1228  O1486   1.387   .     S
C1228  C1231   1.403   .     A
C1228  C1307   1.411   .     A
C1229  C1235   1.403   .     A
C1229  C1308   1.412   .     A
C1229  O1487   1.386   .     S
C1230  C1234   1.403   .     A
C1230  O1488   1.384   .     S
C1231  O1489   1.385   .     S
C1232  H1366   1.082   .     S
C1233  O1490   1.387   .     S
C1234  O1491   1.386   .     S
C1235  O1493   1.384   .     S
C1236  O1494   1.384   .     S
C1236  C1241   1.403   1_556 S
C1237  O1495   1.386   .     S
C1237  C1240   1.403   1_554 S
C1238  O1496   1.387   .     S
C1238  C1244   1.403   1_556 S
C1239  O1497   1.385   .     S
C1239  C1242   1.403   1_554 S
C1240  O1498   1.384   .     S
C1240  C1237   1.403   1_556 S
C1241  O1499   1.386   .     S
C1241  C1236   1.403   1_554 S
C1242  O1500   1.387   .     S
C1242  C1239   1.403   1_556 S
C1243  H1367   1.082   .     S
C1243  C462    1.398   1_565 A
C1244  O1501   1.385   .     S
C1244  C1238   1.403   1_554 S
C1245  O1504   1.281   .     S
C1246  O1492   1.281   .     S
C1247  O1502   1.282   .     S
C1248  O1440   1.281   .     S
C1249  O1445   1.281   .     A
C1249  O1441   1.281   .     S
C1250  O1442   1.282   .     A
C1250  O1446   1.282   .     S
C1251  O1443   1.281   .     S
C1251  O1447   1.281   .     S
C1252  O1444   1.281   .     A
C1252  O1449   1.281   .     A
C1253  O1450   1.282   .     A
C1253  O1478   1.282   .     A
C1254  C1306   1.398   .     A
C1254  H1368   1.082   .     S
C1255  O1451   1.282   .     A
C1255  O1479   1.282   .     A
C1256  O1476   1.282   .     A
C1256  O1452   1.282   .     A
C1257  O1477   1.282   .     A
C1257  O1453   1.282   .     A
C1258  O1454   1.282   .     A
C1258  O1483   1.282   .     A
C1259  O1484   1.282   .     A
C1259  O1455   1.282   .     A
C1260  O1456   1.282   .     A
C1260  O1480   1.282   .     A
C1261  O1457   1.282   .     A
C1261  O1482   1.282   .     A
C1262  O1469   1.282   .     A
C1262  O1458   1.282   .     A
C1263  O1471   1.282   .     A
C1263  O1460   1.282   .     A
C1264  O1461   1.282   .     A
C1264  O1467   1.282   .     A
C1265  C839    1.397   1_655 A
C1265  C1307   1.397   .     A
C1265  H1369   1.081   .     S
C1266  O1462   1.282   .     A
C1266  O1468   1.282   .     A
C1267  O1463   1.282   .     A
C1267  O1474   1.282   .     A
C1268  O1475   1.282   .     A
C1268  O1464   1.282   .     A
C1269  O1472   1.282   .     A
C1269  O1465   1.282   .     A
C1270  O1473   1.282   .     A
C1270  O1466   1.282   .     A
C1271  H1309   1.083   .     S
C1271  C1288   1.386   .     A
C1272  H1349   1.083   .     S
C1272  C1286   1.386   .     A
C1273  C1285   1.386   .     A
C1273  H1360   1.083   .     S
C1274  C1284   1.386   .     A
C1274  H1371   1.083   .     S
C1275  C1283   1.386   .     A
C1275  H1382   1.083   .     S
C1276  H1370   1.082   .     S
C1276  C460    1.397   1_565 A
C1276  C1308   1.397   .     A
C1277  C1282   1.386   .     A
C1277  H1393   1.083   .     S
C1278  C1281   1.386   .     A
C1278  H1404   1.083   .     S
C1279  C1280   1.386   .     A
C1279  H1415   1.083   .     S
C1280  H1426   1.083   .     S
C1281  H1310   1.083   .     S
C1282  H1321   1.083   .     S
C1283  H1332   1.083   .     S
C1284  H1342   1.083   .     S
C1285  H1343   1.083   .     S
C1286  H1344   1.083   .     S
C1287  H1372   1.082   .     S
C1288  H1345   1.083   .     S
C1289  H1346   1.083   .     S
C1289  C1305   1.386   .     A
C1290  C1304   1.386   .     A
C1290  H1347   1.083   .     S
C1291  H1348   1.083   .     S
C1291  C1303   1.386   .     A
C1292  H1350   1.083   .     S
C1292  C1302   1.386   .     A
C1293  C1301   1.386   .     A
C1293  H1351   1.083   .     S
C1294  H1352   1.083   .     S
C1294  C1300   1.386   .     A
C1295  C1299   1.386   .     A
C1295  H1353   1.083   .     S
C1296  C1297   1.386   .     A
C1296  H1354   1.083   .     S
C1297  H1355   1.083   .     S
C1298  H1373   1.082   .     S
C1298  C463    1.398   1_565 A
C1299  H1356   1.083   .     S
C1300  H1357   1.083   .     S
C1301  H1358   1.083   .     S
C1302  H1359   1.083   .     S
C1303  H1361   1.083   .     S
C1304  H1362   1.083   .     S
C1305  H1363   1.083   .     S
C1307  C796    1.415   1_655 S
C1308  C417    1.415   1_565 A
H1435  C444    1.111   1_565 S
O1437  Zn1508  1.948   .     S
O1437  Zn1516  1.948   .     S
O1437  Zn1505  1.948   .     S
O1438  C486    1.281   1_565 A
O1438  Zn1507  1.950   .     S
O1439  Zn1510  1.950   .     S
O1439  C867    1.282   1_655 A
O1440  Zn1509  1.950   .     S
O1441  Zn1519  1.950   .     S
O1442  Zn1518  1.950   .     S
O1443  Zn1513  1.950   .     S
O1444  Zn1505  1.950   .     S
O1445  Zn1515  1.950   .     S
O1446  Zn1514  1.950   .     S
O1447  Zn1517  1.950   .     S
O1448  Zn1511  1.948   .     S
O1448  Zn1513  1.948   .     S
O1448  Zn1517  1.948   .     S
O1449  Zn1516  1.950   .     S
O1450  Zn1508  1.936   .     S
O1451  Zn1507  1.936   .     S
O1452  Zn1510  1.936   .     S
O1453  Zn1509  1.936   .     S
O1454  Zn1512  1.936   .     S
O1455  Zn1511  1.936   .     S
O1456  Zn1506  1.936   .     S
O1457  Zn1520  1.936   .     S
O1458  Zn1507  1.936   .     S
O1459  Zn1506  1.948   .     S
O1459  Zn1514  1.948   .     S
O1459  Zn1518  1.948   .     S
O1460  Zn1508  1.936   .     S
O1461  Zn1520  1.936   .     S
O1462  Zn1506  1.936   .     S
O1463  Zn1511  1.936   .     S
O1464  Zn1512  1.936   .     S
O1465  Zn1509  1.936   .     S
O1466  Zn1510  1.936   .     S
O1467  Zn1135  1.936   1_655 S
O1468  Zn1514  1.936   .     S
O1469  Zn757   1.936   1_565 S
O1470  Zn1509  1.948   .     S
O1470  Zn1515  1.948   .     S
O1470  Zn1519  1.948   .     S
O1471  Zn1516  1.936   .     S
O1472  Zn1519  1.936   .     S
O1473  Zn1138  1.936   1_655 S
O1474  Zn1513  1.936   .     S
O1475  Zn745   1.936   1_565 S
O1476  Zn1134  1.936   1_655 S
O1477  Zn1515  1.936   .     S
O1478  Zn1505  1.936   .     S
O1479  Zn753   1.936   1_565 S
O1480  Zn1518  1.936   .     S
O1481  C485    1.281   1_565 A
O1481  Zn1512  1.950   .     S
O1482  Zn1139  1.936   1_655 S
O1483  Zn756   1.936   1_565 S
O1484  Zn1517  1.936   .     S
O1492  Zn1511  1.950   .     S
O1495  C443    1.415   1_565 S
O1498  C450    1.416   1_565 S
O1502  Zn1506  1.950   .     S
O1503  Zn1520  1.950   .     S
O1503  C868    1.281   1_655 A
O1504  Zn1508  1.950   .     S
Zn1507 O688    1.948   1_565 S
Zn1510 O1079   1.948   1_655 S
Zn1512 O677    1.948   1_565 S
Zn1520 O1090   1.948   1_655 S
