data_str_m1_o10_o18_pcu_sym.67
_audit_creation_date              2020-01-03
_audit_creation_method            'Materials Studio'
_symmetry_space_group_name_H-M    'P1'
_symmetry_Int_Tables_number       1
_symmetry_cell_setting            triclinic
loop_
_symmetry_equiv_pos_as_xyz
  x,y,z
_cell_length_a                    32.7142
_cell_length_b                    32.5318
_cell_length_c                    35.6639
_cell_angle_alpha                 97.6577
_cell_angle_beta                  73.4110
_cell_angle_gamma                 98.1196
loop_
_atom_site_label
_atom_site_type_symbol
_atom_site_fract_x
_atom_site_fract_y
_atom_site_fract_z
_atom_site_U_iso_or_equiv
_atom_site_adp_type
_atom_site_occupancy
C1     C     0.05298   0.16042   0.25826   0.00000  Uiso   1.00
C2     C     0.19625   0.12865   0.46116   0.00000  Uiso   1.00
C3     C     0.21446   0.10652   0.48167   0.00000  Uiso   1.00
C4     C     0.28089   0.17323   0.24161   0.00000  Uiso   1.00
C5     C     0.20555   0.11389   0.02226   0.00000  Uiso   1.00
C6     C     0.17739   0.14386   0.04275   0.00000  Uiso   1.00
C7     C     0.22570   0.09269   0.04258   0.00000  Uiso   1.00
C8     C     0.21991   0.10263   0.08280   0.00000  Uiso   1.00
C9     C     0.17676   0.15699   0.08206   0.00000  Uiso   1.00
C10    C     0.32631   0.17428   0.23908   0.00000  Uiso   1.00
C11    C     0.00736   0.15651   0.26453   0.00000  Uiso   1.00
C12    C     0.11817   0.23181   0.41886   0.00000  Uiso   1.00
C13    C     0.17954   0.32165   0.23483   0.00000  Uiso   1.00
C14    C     0.15366   0.01241   0.26226   0.00000  Uiso   1.00
C15    C     0.15532   0.05634   0.25979   0.00000  Uiso   1.00
C16    C     0.17643   0.27749   0.24060   0.00000  Uiso   1.00
C17    C     0.18830   0.14506   0.14426   0.00000  Uiso   1.00
C18    C     0.14584   0.18785   0.35607   0.00000  Uiso   1.00
C19    C     0.13795   0.19685   0.39884   0.00000  Uiso   1.00
C20    C     0.19656   0.13569   0.10212   0.00000  Uiso   1.00
C21    C     0.11113   0.24008   0.45968   0.00000  Uiso   1.00
C22    C     0.05187   0.21712   0.03865   0.00000  Uiso   1.00
C23    C     0.15292   0.17144   0.41933   0.00000  Uiso   1.00
C24    C     0.01833   0.17888   0.03943   0.00000  Uiso   1.00
C25    C     0.30626   0.19177   0.05422   0.00000  Uiso   1.00
C26    C     0.31231   0.13448   0.29989   0.00000  Uiso   1.00
C27    C     0.00336   0.11906   0.32549   0.00000  Uiso   1.00
C28    C     0.30572   0.09782   0.35995   0.00000  Uiso   1.00
C29    C     0.21087   0.00468   0.19898   0.00000  Uiso   1.00
C30    C     0.10034   0.28343   0.47844   0.00000  Uiso   1.00
C31    C     0.13404   0.31800   0.45957   0.00000  Uiso   1.00
C32    C     0.12294   0.02762   0.47976   0.00000  Uiso   1.00
C33    C     0.09105   0.17321   0.08338   0.00000  Uiso   1.00
C34    C     0.14592   0.17856   0.46027   0.00000  Uiso   1.00
C35    C     0.11886   0.20931   0.48109   0.00000  Uiso   1.00
C36    C     0.16469   0.15567   0.48095   0.00000  Uiso   1.00
C37    C     0.15283   0.16124   0.02268   0.00000  Uiso   1.00
C38    C     0.11539   0.18159   0.04249   0.00000  Uiso   1.00
C39    C     0.09772   0.20524   0.02135   0.00000  Uiso   1.00
H40    H     0.24603   0.06870   0.02734   0.00000  Uiso   1.00
H41    H     0.30018   0.20610   0.08511   0.00000  Uiso   1.00
H42    H     0.30138   0.21426   0.03545   0.00000  Uiso   1.00
H43    H     0.28291   0.16388   0.05298   0.00000  Uiso   1.00
H44    H     0.02278   0.16285   0.00920   0.00000  Uiso   1.00
H45    H     0.02173   0.15628   0.05872   0.00000  Uiso   1.00
H46    H     0.04796   0.23409   0.06832   0.00000  Uiso   1.00
H47    H     0.04349   0.23829   0.02104   0.00000  Uiso   1.00
H48    H     0.28391   0.12009   0.37902   0.00000  Uiso   1.00
H49    H     0.28635   0.07046   0.34908   0.00000  Uiso   1.00
H50    H     0.32415   0.08694   0.37780   0.00000  Uiso   1.00
H51    H     0.01580   0.19016   0.21541   0.00000  Uiso   1.00
H52    H     0.02537   0.09635   0.30749   0.00000  Uiso   1.00
H53    H     0.02257   0.14584   0.33746   0.00000  Uiso   1.00
H54    H     0.29036   0.15657   0.31918   0.00000  Uiso   1.00
H55    H     0.29329   0.10680   0.28898   0.00000  Uiso   1.00
H56    H     0.25036   0.05296   0.17383   0.00000  Uiso   1.00
H57    H     0.09003   0.03249   0.47969   0.00000  Uiso   1.00
H58    H     0.12517   0.03094   0.01055   0.00000  Uiso   1.00
H59    H     0.14577   0.05194   0.46357   0.00000  Uiso   1.00
H60    H     0.16615   0.31305   0.46186   0.00000  Uiso   1.00
H61    H     0.13570   0.31755   0.42798   0.00000  Uiso   1.00
H62    H     0.13221   0.00014   0.28863   0.00000  Uiso   1.00
H63    H     0.06847   0.28823   0.47544   0.00000  Uiso   1.00
H64    H     0.09912   0.28687   0.01014   0.00000  Uiso   1.00
H65    H     0.06353   0.19647   0.13879   0.00000  Uiso   1.00
H66    H     0.16123   0.18389   0.09763   0.00000  Uiso   1.00
H67    H     0.23465   0.08551   0.09859   0.00000  Uiso   1.00
H68    H     0.23725   0.08495   0.46544   0.00000  Uiso   1.00
H69    H     0.10951   0.25340   0.40252   0.00000  Uiso   1.00
H70    H     0.16830   0.14501   0.40279   0.00000  Uiso   1.00
H71    H     0.20794   0.12384   0.42965   0.00000  Uiso   1.00
O72    O     0.16667   0.16667   0.25000   0.00000  Uiso   1.00
O73    O     0.15693   0.12393   0.16625   0.00000  Uiso   1.00
O74    O     0.12687   0.20646   0.33749   0.00000  Uiso   1.00
O75    O     0.21088   0.17493   0.15877   0.00000  Uiso   1.00
O76    O     0.17198   0.16135   0.33749   0.00000  Uiso   1.00
O77    O     0.22027   0.31497   0.16849   0.00000  Uiso   1.00
O78    O     0.22999   0.04595   0.20003   0.00000  Uiso   1.00
O79    O     0.08174   0.13722   0.09188   0.00000  Uiso   1.00
O80    O     0.07970   0.20631   0.11221   0.00000  Uiso   1.00
O81    O     0.17849   0.08101   0.27821   0.00000  Uiso   1.00
O82    O     0.14581   0.26136   0.26767   0.00000  Uiso   1.00
O83    O     0.07452   0.13251   0.23607   0.00000  Uiso   1.00
O84    O     0.26785   0.19179   0.21806   0.00000  Uiso   1.00
O85    O     0.06990   0.18960   0.27820   0.00000  Uiso   1.00
O86    O     0.25440   0.15277   0.26768   0.00000  Uiso   1.00
O87    O     0.13800   0.06903   0.23607   0.00000  Uiso   1.00
O88    O     0.20437   0.25527   0.21806   0.00000  Uiso   1.00
Zn89   Zn    0.19244   0.14090   0.28278   0.00000  Uiso   1.00
Zn90   Zn    0.13459   0.12378   0.22258   0.00000  Uiso   1.00
Zn91   Zn    0.21166   0.19664   0.21188   0.00000  Uiso   1.00
Zn92   Zn    0.12798   0.20535   0.28277   0.00000  Uiso   1.00
C93    C     0.38632   0.16042   0.25826   0.00000  Uiso   1.00
C94    C     0.52958   0.12865   0.46116   0.00000  Uiso   1.00
C95    C     0.54780   0.10652   0.48167   0.00000  Uiso   1.00
C96    C     0.61422   0.17323   0.24161   0.00000  Uiso   1.00
C97    C     0.53888   0.11389   0.02226   0.00000  Uiso   1.00
C98    C     0.51073   0.14386   0.04275   0.00000  Uiso   1.00
C99    C     0.55903   0.09269   0.04258   0.00000  Uiso   1.00
C100   C     0.55324   0.10263   0.08280   0.00000  Uiso   1.00
C101   C     0.51009   0.15699   0.08206   0.00000  Uiso   1.00
C102   C     0.65964   0.17428   0.23908   0.00000  Uiso   1.00
C103   C     0.34069   0.15651   0.26453   0.00000  Uiso   1.00
C104   C     0.45151   0.23181   0.41886   0.00000  Uiso   1.00
C105   C     0.51288   0.32165   0.23483   0.00000  Uiso   1.00
C106   C     0.48700   0.01241   0.26226   0.00000  Uiso   1.00
C107   C     0.48865   0.05634   0.25979   0.00000  Uiso   1.00
C108   C     0.50977   0.27749   0.24060   0.00000  Uiso   1.00
C109   C     0.52163   0.14506   0.14426   0.00000  Uiso   1.00
C110   C     0.47917   0.18785   0.35607   0.00000  Uiso   1.00
C111   C     0.47128   0.19685   0.39884   0.00000  Uiso   1.00
C112   C     0.52989   0.13569   0.10212   0.00000  Uiso   1.00
C113   C     0.44446   0.24008   0.45968   0.00000  Uiso   1.00
C114   C     0.38520   0.21712   0.03865   0.00000  Uiso   1.00
C115   C     0.48625   0.17144   0.41933   0.00000  Uiso   1.00
C116   C     0.35166   0.17888   0.03943   0.00000  Uiso   1.00
C117   C     0.63960   0.19177   0.05422   0.00000  Uiso   1.00
C118   C     0.64564   0.13448   0.29989   0.00000  Uiso   1.00
C119   C     0.33670   0.11906   0.32549   0.00000  Uiso   1.00
C120   C     0.63906   0.09782   0.35995   0.00000  Uiso   1.00
C121   C     0.54420   0.00468   0.19898   0.00000  Uiso   1.00
C122   C     0.43367   0.28343   0.47844   0.00000  Uiso   1.00
C123   C     0.46737   0.31800   0.45957   0.00000  Uiso   1.00
C124   C     0.45627   0.02762   0.47976   0.00000  Uiso   1.00
C125   C     0.42438   0.17321   0.08338   0.00000  Uiso   1.00
C126   C     0.47926   0.17856   0.46027   0.00000  Uiso   1.00
C127   C     0.45219   0.20931   0.48109   0.00000  Uiso   1.00
C128   C     0.49802   0.15567   0.48095   0.00000  Uiso   1.00
C129   C     0.48617   0.16124   0.02268   0.00000  Uiso   1.00
C130   C     0.44872   0.18159   0.04249   0.00000  Uiso   1.00
C131   C     0.43105   0.20524   0.02135   0.00000  Uiso   1.00
H132   H     0.57937   0.06870   0.02734   0.00000  Uiso   1.00
H133   H     0.63351   0.20610   0.08511   0.00000  Uiso   1.00
H134   H     0.63471   0.21426   0.03545   0.00000  Uiso   1.00
H135   H     0.61625   0.16388   0.05298   0.00000  Uiso   1.00
H136   H     0.35612   0.16285   0.00920   0.00000  Uiso   1.00
H137   H     0.35506   0.15628   0.05872   0.00000  Uiso   1.00
H138   H     0.38129   0.23409   0.06832   0.00000  Uiso   1.00
H139   H     0.37682   0.23829   0.02104   0.00000  Uiso   1.00
H140   H     0.61725   0.12009   0.37902   0.00000  Uiso   1.00
H141   H     0.61968   0.07046   0.34908   0.00000  Uiso   1.00
H142   H     0.65748   0.08694   0.37780   0.00000  Uiso   1.00
H143   H     0.34913   0.19016   0.21541   0.00000  Uiso   1.00
H144   H     0.35870   0.09635   0.30749   0.00000  Uiso   1.00
H145   H     0.35590   0.14584   0.33746   0.00000  Uiso   1.00
H146   H     0.62369   0.15657   0.31918   0.00000  Uiso   1.00
H147   H     0.62662   0.10680   0.28898   0.00000  Uiso   1.00
H148   H     0.58370   0.05296   0.17383   0.00000  Uiso   1.00
H149   H     0.42336   0.03249   0.47969   0.00000  Uiso   1.00
H150   H     0.45850   0.03094   0.01055   0.00000  Uiso   1.00
H151   H     0.47911   0.05194   0.46357   0.00000  Uiso   1.00
H152   H     0.49949   0.31305   0.46186   0.00000  Uiso   1.00
H153   H     0.46903   0.31755   0.42798   0.00000  Uiso   1.00
H154   H     0.46554   0.00014   0.28863   0.00000  Uiso   1.00
H155   H     0.40181   0.28823   0.47544   0.00000  Uiso   1.00
H156   H     0.43245   0.28687   0.01014   0.00000  Uiso   1.00
H157   H     0.39686   0.19647   0.13879   0.00000  Uiso   1.00
H158   H     0.49456   0.18389   0.09763   0.00000  Uiso   1.00
H159   H     0.56798   0.08551   0.09859   0.00000  Uiso   1.00
H160   H     0.57058   0.08495   0.46544   0.00000  Uiso   1.00
H161   H     0.44284   0.25340   0.40252   0.00000  Uiso   1.00
H162   H     0.50164   0.14501   0.40279   0.00000  Uiso   1.00
H163   H     0.54127   0.12384   0.42965   0.00000  Uiso   1.00
O164   O     0.50000   0.16667   0.25000   0.00000  Uiso   1.00
O165   O     0.49027   0.12393   0.16625   0.00000  Uiso   1.00
O166   O     0.46020   0.20646   0.33749   0.00000  Uiso   1.00
O167   O     0.54421   0.17493   0.15877   0.00000  Uiso   1.00
O168   O     0.50532   0.16135   0.33749   0.00000  Uiso   1.00
O169   O     0.55360   0.31497   0.16849   0.00000  Uiso   1.00
O170   O     0.56332   0.04595   0.20003   0.00000  Uiso   1.00
O171   O     0.41508   0.13722   0.09188   0.00000  Uiso   1.00
O172   O     0.41303   0.20631   0.11221   0.00000  Uiso   1.00
O173   O     0.51182   0.08101   0.27821   0.00000  Uiso   1.00
O174   O     0.47914   0.26136   0.26767   0.00000  Uiso   1.00
O175   O     0.40785   0.13251   0.23607   0.00000  Uiso   1.00
O176   O     0.60119   0.19179   0.21806   0.00000  Uiso   1.00
O177   O     0.40323   0.18960   0.27820   0.00000  Uiso   1.00
O178   O     0.58773   0.15277   0.26768   0.00000  Uiso   1.00
O179   O     0.47133   0.06903   0.23607   0.00000  Uiso   1.00
O180   O     0.53771   0.25527   0.21806   0.00000  Uiso   1.00
Zn181  Zn    0.52577   0.14090   0.28278   0.00000  Uiso   1.00
Zn182  Zn    0.46792   0.12378   0.22258   0.00000  Uiso   1.00
Zn183  Zn    0.54500   0.19664   0.21188   0.00000  Uiso   1.00
Zn184  Zn    0.46131   0.20535   0.28277   0.00000  Uiso   1.00
C185   C     0.71965   0.16042   0.25826   0.00000  Uiso   1.00
C186   C     0.86292   0.12865   0.46116   0.00000  Uiso   1.00
C187   C     0.88113   0.10652   0.48167   0.00000  Uiso   1.00
C188   C     0.94755   0.17323   0.24161   0.00000  Uiso   1.00
C189   C     0.87221   0.11389   0.02226   0.00000  Uiso   1.00
C190   C     0.84406   0.14386   0.04275   0.00000  Uiso   1.00
C191   C     0.89236   0.09269   0.04258   0.00000  Uiso   1.00
C192   C     0.88658   0.10263   0.08280   0.00000  Uiso   1.00
C193   C     0.84342   0.15699   0.08206   0.00000  Uiso   1.00
C194   C     0.99297   0.17428   0.23908   0.00000  Uiso   1.00
C195   C     0.67403   0.15651   0.26453   0.00000  Uiso   1.00
C196   C     0.78484   0.23181   0.41886   0.00000  Uiso   1.00
C197   C     0.84621   0.32165   0.23483   0.00000  Uiso   1.00
C198   C     0.82033   0.01241   0.26226   0.00000  Uiso   1.00
C199   C     0.82199   0.05634   0.25979   0.00000  Uiso   1.00
C200   C     0.84310   0.27749   0.24060   0.00000  Uiso   1.00
C201   C     0.85496   0.14506   0.14426   0.00000  Uiso   1.00
C202   C     0.81251   0.18785   0.35607   0.00000  Uiso   1.00
C203   C     0.80461   0.19685   0.39884   0.00000  Uiso   1.00
C204   C     0.86323   0.13569   0.10212   0.00000  Uiso   1.00
C205   C     0.77779   0.24008   0.45968   0.00000  Uiso   1.00
C206   C     0.71854   0.21712   0.03865   0.00000  Uiso   1.00
C207   C     0.81959   0.17144   0.41933   0.00000  Uiso   1.00
C208   C     0.68499   0.17888   0.03943   0.00000  Uiso   1.00
C209   C     0.97293   0.19177   0.05422   0.00000  Uiso   1.00
C210   C     0.97897   0.13448   0.29989   0.00000  Uiso   1.00
C211   C     0.67003   0.11906   0.32549   0.00000  Uiso   1.00
C212   C     0.97239   0.09782   0.35995   0.00000  Uiso   1.00
C213   C     0.87754   0.00468   0.19898   0.00000  Uiso   1.00
C214   C     0.76701   0.28343   0.47844   0.00000  Uiso   1.00
C215   C     0.80071   0.31800   0.45957   0.00000  Uiso   1.00
C216   C     0.78961   0.02762   0.47976   0.00000  Uiso   1.00
C217   C     0.75771   0.17321   0.08338   0.00000  Uiso   1.00
C218   C     0.81259   0.17856   0.46027   0.00000  Uiso   1.00
C219   C     0.78553   0.20931   0.48109   0.00000  Uiso   1.00
C220   C     0.83135   0.15567   0.48095   0.00000  Uiso   1.00
C221   C     0.81950   0.16124   0.02268   0.00000  Uiso   1.00
C222   C     0.78206   0.18159   0.04249   0.00000  Uiso   1.00
C223   C     0.76438   0.20524   0.02135   0.00000  Uiso   1.00
H224   H     0.91270   0.06870   0.02734   0.00000  Uiso   1.00
H225   H     0.96684   0.20610   0.08511   0.00000  Uiso   1.00
H226   H     0.96804   0.21426   0.03545   0.00000  Uiso   1.00
H227   H     0.94958   0.16388   0.05298   0.00000  Uiso   1.00
H228   H     0.68945   0.16285   0.00920   0.00000  Uiso   1.00
H229   H     0.68840   0.15628   0.05872   0.00000  Uiso   1.00
H230   H     0.71463   0.23409   0.06832   0.00000  Uiso   1.00
H231   H     0.71015   0.23829   0.02104   0.00000  Uiso   1.00
H232   H     0.95058   0.12009   0.37902   0.00000  Uiso   1.00
H233   H     0.95301   0.07046   0.34908   0.00000  Uiso   1.00
H234   H     0.99081   0.08694   0.37780   0.00000  Uiso   1.00
H235   H     0.68247   0.19016   0.21541   0.00000  Uiso   1.00
H236   H     0.69204   0.09635   0.30749   0.00000  Uiso   1.00
H237   H     0.68923   0.14584   0.33746   0.00000  Uiso   1.00
H238   H     0.95703   0.15657   0.31918   0.00000  Uiso   1.00
H239   H     0.95996   0.10680   0.28898   0.00000  Uiso   1.00
H240   H     0.91703   0.05296   0.17383   0.00000  Uiso   1.00
H241   H     0.75670   0.03249   0.47969   0.00000  Uiso   1.00
H242   H     0.79183   0.03094   0.01055   0.00000  Uiso   1.00
H243   H     0.81244   0.05194   0.46357   0.00000  Uiso   1.00
H244   H     0.83282   0.31305   0.46186   0.00000  Uiso   1.00
H245   H     0.80236   0.31755   0.42798   0.00000  Uiso   1.00
H246   H     0.79887   0.00014   0.28863   0.00000  Uiso   1.00
H247   H     0.73514   0.28823   0.47544   0.00000  Uiso   1.00
H248   H     0.76579   0.28687   0.01014   0.00000  Uiso   1.00
H249   H     0.73019   0.19647   0.13879   0.00000  Uiso   1.00
H250   H     0.82790   0.18389   0.09763   0.00000  Uiso   1.00
H251   H     0.90131   0.08551   0.09859   0.00000  Uiso   1.00
H252   H     0.90391   0.08495   0.46544   0.00000  Uiso   1.00
H253   H     0.77618   0.25340   0.40252   0.00000  Uiso   1.00
H254   H     0.83497   0.14501   0.40279   0.00000  Uiso   1.00
H255   H     0.87461   0.12384   0.42965   0.00000  Uiso   1.00
O256   O     0.83333   0.16667   0.25000   0.00000  Uiso   1.00
O257   O     0.82360   0.12393   0.16625   0.00000  Uiso   1.00
O258   O     0.79354   0.20646   0.33749   0.00000  Uiso   1.00
O259   O     0.87755   0.17493   0.15877   0.00000  Uiso   1.00
O260   O     0.83865   0.16135   0.33749   0.00000  Uiso   1.00
O261   O     0.88694   0.31497   0.16849   0.00000  Uiso   1.00
O262   O     0.89665   0.04595   0.20003   0.00000  Uiso   1.00
O263   O     0.74841   0.13722   0.09188   0.00000  Uiso   1.00
O264   O     0.74636   0.20631   0.11221   0.00000  Uiso   1.00
O265   O     0.84515   0.08101   0.27821   0.00000  Uiso   1.00
O266   O     0.81247   0.26136   0.26767   0.00000  Uiso   1.00
O267   O     0.74119   0.13251   0.23607   0.00000  Uiso   1.00
O268   O     0.93452   0.19179   0.21806   0.00000  Uiso   1.00
O269   O     0.73656   0.18960   0.27820   0.00000  Uiso   1.00
O270   O     0.92106   0.15277   0.26768   0.00000  Uiso   1.00
O271   O     0.80467   0.06903   0.23607   0.00000  Uiso   1.00
O272   O     0.87104   0.25527   0.21806   0.00000  Uiso   1.00
Zn273  Zn    0.85910   0.14090   0.28278   0.00000  Uiso   1.00
Zn274  Zn    0.80125   0.12378   0.22258   0.00000  Uiso   1.00
Zn275  Zn    0.87833   0.19664   0.21188   0.00000  Uiso   1.00
Zn276  Zn    0.79465   0.20535   0.28277   0.00000  Uiso   1.00
C277   C     0.05298   0.49376   0.25826   0.00000  Uiso   1.00
C278   C     0.19625   0.46198   0.46116   0.00000  Uiso   1.00
C279   C     0.21446   0.43985   0.48167   0.00000  Uiso   1.00
C280   C     0.28089   0.50656   0.24161   0.00000  Uiso   1.00
C281   C     0.20555   0.44722   0.02226   0.00000  Uiso   1.00
C282   C     0.17739   0.47719   0.04275   0.00000  Uiso   1.00
C283   C     0.22570   0.42603   0.04258   0.00000  Uiso   1.00
C284   C     0.21991   0.43596   0.08280   0.00000  Uiso   1.00
C285   C     0.17676   0.49032   0.08206   0.00000  Uiso   1.00
C286   C     0.32631   0.50761   0.23908   0.00000  Uiso   1.00
C287   C     0.00736   0.48984   0.26453   0.00000  Uiso   1.00
C288   C     0.11817   0.56514   0.41886   0.00000  Uiso   1.00
C289   C     0.17954   0.65498   0.23483   0.00000  Uiso   1.00
C290   C     0.15366   0.34574   0.26226   0.00000  Uiso   1.00
C291   C     0.15532   0.38967   0.25979   0.00000  Uiso   1.00
C292   C     0.17643   0.61083   0.24060   0.00000  Uiso   1.00
C293   C     0.18830   0.47839   0.14426   0.00000  Uiso   1.00
C294   C     0.14584   0.52118   0.35607   0.00000  Uiso   1.00
C295   C     0.13795   0.53018   0.39884   0.00000  Uiso   1.00
C296   C     0.19656   0.46902   0.10212   0.00000  Uiso   1.00
C297   C     0.11113   0.57342   0.45968   0.00000  Uiso   1.00
C298   C     0.05187   0.55046   0.03865   0.00000  Uiso   1.00
C299   C     0.15292   0.50477   0.41933   0.00000  Uiso   1.00
C300   C     0.01833   0.51221   0.03943   0.00000  Uiso   1.00
C301   C     0.30626   0.52510   0.05422   0.00000  Uiso   1.00
C302   C     0.31231   0.46782   0.29989   0.00000  Uiso   1.00
C303   C     0.00336   0.45239   0.32549   0.00000  Uiso   1.00
C304   C     0.30572   0.43116   0.35995   0.00000  Uiso   1.00
C305   C     0.21087   0.33801   0.19898   0.00000  Uiso   1.00
C306   C     0.10034   0.61677   0.47844   0.00000  Uiso   1.00
C307   C     0.13404   0.65133   0.45957   0.00000  Uiso   1.00
C308   C     0.12294   0.36095   0.47976   0.00000  Uiso   1.00
C309   C     0.09105   0.50654   0.08338   0.00000  Uiso   1.00
C310   C     0.14592   0.51189   0.46027   0.00000  Uiso   1.00
C311   C     0.11886   0.54264   0.48109   0.00000  Uiso   1.00
C312   C     0.16469   0.48900   0.48095   0.00000  Uiso   1.00
C313   C     0.15283   0.49457   0.02268   0.00000  Uiso   1.00
C314   C     0.11539   0.51493   0.04249   0.00000  Uiso   1.00
C315   C     0.09772   0.53857   0.02135   0.00000  Uiso   1.00
H316   H     0.24603   0.40204   0.02734   0.00000  Uiso   1.00
H317   H     0.30018   0.53944   0.08511   0.00000  Uiso   1.00
H318   H     0.30138   0.54760   0.03545   0.00000  Uiso   1.00
H319   H     0.28291   0.49722   0.05298   0.00000  Uiso   1.00
H320   H     0.02278   0.49618   0.00920   0.00000  Uiso   1.00
H321   H     0.02173   0.48961   0.05872   0.00000  Uiso   1.00
H322   H     0.04796   0.56743   0.06832   0.00000  Uiso   1.00
H323   H     0.04349   0.57162   0.02104   0.00000  Uiso   1.00
H324   H     0.28391   0.45342   0.37902   0.00000  Uiso   1.00
H325   H     0.28635   0.40379   0.34908   0.00000  Uiso   1.00
H326   H     0.32415   0.42028   0.37780   0.00000  Uiso   1.00
H327   H     0.01580   0.52349   0.21541   0.00000  Uiso   1.00
H328   H     0.02537   0.42968   0.30749   0.00000  Uiso   1.00
H329   H     0.02257   0.47917   0.33746   0.00000  Uiso   1.00
H330   H     0.29036   0.48990   0.31918   0.00000  Uiso   1.00
H331   H     0.29329   0.44013   0.28898   0.00000  Uiso   1.00
H332   H     0.25036   0.38630   0.17383   0.00000  Uiso   1.00
H333   H     0.09003   0.36582   0.47969   0.00000  Uiso   1.00
H334   H     0.12517   0.36427   0.01055   0.00000  Uiso   1.00
H335   H     0.14577   0.38527   0.46357   0.00000  Uiso   1.00
H336   H     0.16615   0.64638   0.46186   0.00000  Uiso   1.00
H337   H     0.13570   0.65088   0.42798   0.00000  Uiso   1.00
H338   H     0.13221   0.33348   0.28863   0.00000  Uiso   1.00
H339   H     0.06847   0.62157   0.47544   0.00000  Uiso   1.00
H340   H     0.09912   0.62021   0.01014   0.00000  Uiso   1.00
H341   H     0.06353   0.52981   0.13879   0.00000  Uiso   1.00
H342   H     0.16123   0.51722   0.09763   0.00000  Uiso   1.00
H343   H     0.23465   0.41884   0.09859   0.00000  Uiso   1.00
H344   H     0.23725   0.41828   0.46544   0.00000  Uiso   1.00
H345   H     0.10951   0.58673   0.40252   0.00000  Uiso   1.00
H346   H     0.16830   0.47834   0.40279   0.00000  Uiso   1.00
H347   H     0.20794   0.45718   0.42965   0.00000  Uiso   1.00
O348   O     0.16667   0.50000   0.25000   0.00000  Uiso   1.00
O349   O     0.15693   0.45726   0.16625   0.00000  Uiso   1.00
O350   O     0.12687   0.53979   0.33749   0.00000  Uiso   1.00
O351   O     0.21088   0.50826   0.15877   0.00000  Uiso   1.00
O352   O     0.17198   0.49468   0.33749   0.00000  Uiso   1.00
O353   O     0.22027   0.64830   0.16849   0.00000  Uiso   1.00
O354   O     0.22999   0.37929   0.20003   0.00000  Uiso   1.00
O355   O     0.08174   0.47055   0.09188   0.00000  Uiso   1.00
O356   O     0.07970   0.53964   0.11221   0.00000  Uiso   1.00
O357   O     0.17849   0.41434   0.27821   0.00000  Uiso   1.00
O358   O     0.14581   0.59469   0.26767   0.00000  Uiso   1.00
O359   O     0.07452   0.46584   0.23607   0.00000  Uiso   1.00
O360   O     0.26785   0.52512   0.21806   0.00000  Uiso   1.00
O361   O     0.06990   0.52293   0.27820   0.00000  Uiso   1.00
O362   O     0.25440   0.48610   0.26768   0.00000  Uiso   1.00
O363   O     0.13800   0.40236   0.23607   0.00000  Uiso   1.00
O364   O     0.20437   0.58860   0.21806   0.00000  Uiso   1.00
Zn365  Zn    0.19244   0.47423   0.28278   0.00000  Uiso   1.00
Zn366  Zn    0.13459   0.45711   0.22258   0.00000  Uiso   1.00
Zn367  Zn    0.21166   0.52997   0.21188   0.00000  Uiso   1.00
Zn368  Zn    0.12798   0.53868   0.28277   0.00000  Uiso   1.00
C369   C     0.38632   0.49376   0.25826   0.00000  Uiso   1.00
C370   C     0.52958   0.46198   0.46116   0.00000  Uiso   1.00
C371   C     0.54780   0.43985   0.48167   0.00000  Uiso   1.00
C372   C     0.61422   0.50656   0.24161   0.00000  Uiso   1.00
C373   C     0.53888   0.44722   0.02226   0.00000  Uiso   1.00
C374   C     0.51073   0.47719   0.04275   0.00000  Uiso   1.00
C375   C     0.55903   0.42603   0.04258   0.00000  Uiso   1.00
C376   C     0.55324   0.43596   0.08280   0.00000  Uiso   1.00
C377   C     0.51009   0.49032   0.08206   0.00000  Uiso   1.00
C378   C     0.65964   0.50761   0.23908   0.00000  Uiso   1.00
C379   C     0.34069   0.48984   0.26453   0.00000  Uiso   1.00
C380   C     0.45151   0.56514   0.41886   0.00000  Uiso   1.00
C381   C     0.51288   0.65498   0.23483   0.00000  Uiso   1.00
C382   C     0.48700   0.34574   0.26226   0.00000  Uiso   1.00
C383   C     0.48865   0.38967   0.25979   0.00000  Uiso   1.00
C384   C     0.50977   0.61083   0.24060   0.00000  Uiso   1.00
C385   C     0.52163   0.47839   0.14426   0.00000  Uiso   1.00
C386   C     0.47917   0.52118   0.35607   0.00000  Uiso   1.00
C387   C     0.47128   0.53018   0.39884   0.00000  Uiso   1.00
C388   C     0.52989   0.46902   0.10212   0.00000  Uiso   1.00
C389   C     0.44446   0.57342   0.45968   0.00000  Uiso   1.00
C390   C     0.38520   0.55046   0.03865   0.00000  Uiso   1.00
C391   C     0.48625   0.50477   0.41933   0.00000  Uiso   1.00
C392   C     0.35166   0.51221   0.03943   0.00000  Uiso   1.00
C393   C     0.63960   0.52510   0.05422   0.00000  Uiso   1.00
C394   C     0.64564   0.46782   0.29989   0.00000  Uiso   1.00
C395   C     0.33670   0.45239   0.32549   0.00000  Uiso   1.00
C396   C     0.63906   0.43116   0.35995   0.00000  Uiso   1.00
C397   C     0.54420   0.33801   0.19898   0.00000  Uiso   1.00
C398   C     0.43367   0.61677   0.47844   0.00000  Uiso   1.00
C399   C     0.46737   0.65133   0.45957   0.00000  Uiso   1.00
C400   C     0.45627   0.36095   0.47976   0.00000  Uiso   1.00
C401   C     0.42438   0.50654   0.08338   0.00000  Uiso   1.00
C402   C     0.47926   0.51189   0.46027   0.00000  Uiso   1.00
C403   C     0.45219   0.54264   0.48109   0.00000  Uiso   1.00
C404   C     0.49802   0.48900   0.48095   0.00000  Uiso   1.00
C405   C     0.48617   0.49457   0.02268   0.00000  Uiso   1.00
C406   C     0.44872   0.51493   0.04249   0.00000  Uiso   1.00
C407   C     0.43105   0.53857   0.02135   0.00000  Uiso   1.00
H408   H     0.57937   0.40204   0.02734   0.00000  Uiso   1.00
H409   H     0.63351   0.53944   0.08511   0.00000  Uiso   1.00
H410   H     0.63471   0.54760   0.03545   0.00000  Uiso   1.00
H411   H     0.61625   0.49722   0.05298   0.00000  Uiso   1.00
H412   H     0.35612   0.49618   0.00920   0.00000  Uiso   1.00
H413   H     0.35506   0.48961   0.05872   0.00000  Uiso   1.00
H414   H     0.38129   0.56743   0.06832   0.00000  Uiso   1.00
H415   H     0.37682   0.57162   0.02104   0.00000  Uiso   1.00
H416   H     0.61725   0.45342   0.37902   0.00000  Uiso   1.00
H417   H     0.61968   0.40379   0.34908   0.00000  Uiso   1.00
H418   H     0.65748   0.42028   0.37780   0.00000  Uiso   1.00
H419   H     0.34913   0.52349   0.21541   0.00000  Uiso   1.00
H420   H     0.35870   0.42968   0.30749   0.00000  Uiso   1.00
H421   H     0.35590   0.47917   0.33746   0.00000  Uiso   1.00
H422   H     0.62369   0.48990   0.31918   0.00000  Uiso   1.00
H423   H     0.62662   0.44013   0.28898   0.00000  Uiso   1.00
H424   H     0.58370   0.38630   0.17383   0.00000  Uiso   1.00
H425   H     0.42336   0.36582   0.47969   0.00000  Uiso   1.00
H426   H     0.45850   0.36427   0.01055   0.00000  Uiso   1.00
H427   H     0.47911   0.38527   0.46357   0.00000  Uiso   1.00
H428   H     0.49949   0.64638   0.46186   0.00000  Uiso   1.00
H429   H     0.46903   0.65088   0.42798   0.00000  Uiso   1.00
H430   H     0.46554   0.33348   0.28863   0.00000  Uiso   1.00
H431   H     0.40181   0.62157   0.47544   0.00000  Uiso   1.00
H432   H     0.43245   0.62021   0.01014   0.00000  Uiso   1.00
H433   H     0.39686   0.52981   0.13879   0.00000  Uiso   1.00
H434   H     0.49456   0.51722   0.09763   0.00000  Uiso   1.00
H435   H     0.56798   0.41884   0.09859   0.00000  Uiso   1.00
H436   H     0.57058   0.41828   0.46544   0.00000  Uiso   1.00
H437   H     0.44284   0.58673   0.40252   0.00000  Uiso   1.00
H438   H     0.50164   0.47834   0.40279   0.00000  Uiso   1.00
H439   H     0.54127   0.45718   0.42965   0.00000  Uiso   1.00
O440   O     0.50000   0.50000   0.25000   0.00000  Uiso   1.00
O441   O     0.49027   0.45726   0.16625   0.00000  Uiso   1.00
O442   O     0.46020   0.53979   0.33749   0.00000  Uiso   1.00
O443   O     0.54421   0.50826   0.15877   0.00000  Uiso   1.00
O444   O     0.50532   0.49468   0.33749   0.00000  Uiso   1.00
O445   O     0.55360   0.64830   0.16849   0.00000  Uiso   1.00
O446   O     0.56332   0.37929   0.20003   0.00000  Uiso   1.00
O447   O     0.41508   0.47055   0.09188   0.00000  Uiso   1.00
O448   O     0.41303   0.53964   0.11221   0.00000  Uiso   1.00
O449   O     0.51182   0.41434   0.27821   0.00000  Uiso   1.00
O450   O     0.47914   0.59469   0.26767   0.00000  Uiso   1.00
O451   O     0.40785   0.46584   0.23607   0.00000  Uiso   1.00
O452   O     0.60119   0.52512   0.21806   0.00000  Uiso   1.00
O453   O     0.40323   0.52293   0.27820   0.00000  Uiso   1.00
O454   O     0.58773   0.48610   0.26768   0.00000  Uiso   1.00
O455   O     0.47133   0.40236   0.23607   0.00000  Uiso   1.00
O456   O     0.53771   0.58860   0.21806   0.00000  Uiso   1.00
Zn457  Zn    0.52577   0.47423   0.28278   0.00000  Uiso   1.00
Zn458  Zn    0.46792   0.45711   0.22258   0.00000  Uiso   1.00
Zn459  Zn    0.54500   0.52997   0.21188   0.00000  Uiso   1.00
Zn460  Zn    0.46131   0.53868   0.28277   0.00000  Uiso   1.00
C461   C     0.71965   0.49376   0.25826   0.00000  Uiso   1.00
C462   C     0.86292   0.46198   0.46116   0.00000  Uiso   1.00
C463   C     0.88113   0.43985   0.48167   0.00000  Uiso   1.00
C464   C     0.94755   0.50656   0.24161   0.00000  Uiso   1.00
C465   C     0.87221   0.44722   0.02226   0.00000  Uiso   1.00
C466   C     0.84406   0.47719   0.04275   0.00000  Uiso   1.00
C467   C     0.89236   0.42603   0.04258   0.00000  Uiso   1.00
C468   C     0.88658   0.43596   0.08280   0.00000  Uiso   1.00
C469   C     0.84342   0.49032   0.08206   0.00000  Uiso   1.00
C470   C     0.99297   0.50761   0.23908   0.00000  Uiso   1.00
C471   C     0.67403   0.48984   0.26453   0.00000  Uiso   1.00
C472   C     0.78484   0.56514   0.41886   0.00000  Uiso   1.00
C473   C     0.84621   0.65498   0.23483   0.00000  Uiso   1.00
C474   C     0.82033   0.34574   0.26226   0.00000  Uiso   1.00
C475   C     0.82199   0.38967   0.25979   0.00000  Uiso   1.00
C476   C     0.84310   0.61083   0.24060   0.00000  Uiso   1.00
C477   C     0.85496   0.47839   0.14426   0.00000  Uiso   1.00
C478   C     0.81251   0.52118   0.35607   0.00000  Uiso   1.00
C479   C     0.80461   0.53018   0.39884   0.00000  Uiso   1.00
C480   C     0.86323   0.46902   0.10212   0.00000  Uiso   1.00
C481   C     0.77779   0.57342   0.45968   0.00000  Uiso   1.00
C482   C     0.71854   0.55046   0.03865   0.00000  Uiso   1.00
C483   C     0.81959   0.50477   0.41933   0.00000  Uiso   1.00
C484   C     0.68499   0.51221   0.03943   0.00000  Uiso   1.00
C485   C     0.97293   0.52510   0.05422   0.00000  Uiso   1.00
C486   C     0.97897   0.46782   0.29989   0.00000  Uiso   1.00
C487   C     0.67003   0.45239   0.32549   0.00000  Uiso   1.00
C488   C     0.97239   0.43116   0.35995   0.00000  Uiso   1.00
C489   C     0.87754   0.33801   0.19898   0.00000  Uiso   1.00
C490   C     0.76701   0.61677   0.47844   0.00000  Uiso   1.00
C491   C     0.80071   0.65133   0.45957   0.00000  Uiso   1.00
C492   C     0.78961   0.36095   0.47976   0.00000  Uiso   1.00
C493   C     0.75771   0.50654   0.08338   0.00000  Uiso   1.00
C494   C     0.81259   0.51189   0.46027   0.00000  Uiso   1.00
C495   C     0.78553   0.54264   0.48109   0.00000  Uiso   1.00
C496   C     0.83135   0.48900   0.48095   0.00000  Uiso   1.00
C497   C     0.81950   0.49457   0.02268   0.00000  Uiso   1.00
C498   C     0.78206   0.51493   0.04249   0.00000  Uiso   1.00
C499   C     0.76438   0.53857   0.02135   0.00000  Uiso   1.00
H500   H     0.91270   0.40204   0.02734   0.00000  Uiso   1.00
H501   H     0.96684   0.53944   0.08511   0.00000  Uiso   1.00
H502   H     0.96804   0.54760   0.03545   0.00000  Uiso   1.00
H503   H     0.94958   0.49722   0.05298   0.00000  Uiso   1.00
H504   H     0.68945   0.49618   0.00920   0.00000  Uiso   1.00
H505   H     0.68840   0.48961   0.05872   0.00000  Uiso   1.00
H506   H     0.71463   0.56743   0.06832   0.00000  Uiso   1.00
H507   H     0.71015   0.57162   0.02104   0.00000  Uiso   1.00
H508   H     0.95058   0.45342   0.37902   0.00000  Uiso   1.00
H509   H     0.95301   0.40379   0.34908   0.00000  Uiso   1.00
H510   H     0.99081   0.42028   0.37780   0.00000  Uiso   1.00
H511   H     0.68247   0.52349   0.21541   0.00000  Uiso   1.00
H512   H     0.69204   0.42968   0.30749   0.00000  Uiso   1.00
H513   H     0.68923   0.47917   0.33746   0.00000  Uiso   1.00
H514   H     0.95703   0.48990   0.31918   0.00000  Uiso   1.00
H515   H     0.95996   0.44013   0.28898   0.00000  Uiso   1.00
H516   H     0.91703   0.38630   0.17383   0.00000  Uiso   1.00
H517   H     0.75670   0.36582   0.47969   0.00000  Uiso   1.00
H518   H     0.79183   0.36427   0.01055   0.00000  Uiso   1.00
H519   H     0.81244   0.38527   0.46357   0.00000  Uiso   1.00
H520   H     0.83282   0.64638   0.46186   0.00000  Uiso   1.00
H521   H     0.80236   0.65088   0.42798   0.00000  Uiso   1.00
H522   H     0.79887   0.33348   0.28863   0.00000  Uiso   1.00
H523   H     0.73514   0.62157   0.47544   0.00000  Uiso   1.00
H524   H     0.76579   0.62021   0.01014   0.00000  Uiso   1.00
H525   H     0.73019   0.52981   0.13879   0.00000  Uiso   1.00
H526   H     0.82790   0.51722   0.09763   0.00000  Uiso   1.00
H527   H     0.90131   0.41884   0.09859   0.00000  Uiso   1.00
H528   H     0.90391   0.41828   0.46544   0.00000  Uiso   1.00
H529   H     0.77618   0.58673   0.40252   0.00000  Uiso   1.00
H530   H     0.83497   0.47834   0.40279   0.00000  Uiso   1.00
H531   H     0.87461   0.45718   0.42965   0.00000  Uiso   1.00
O532   O     0.83333   0.50000   0.25000   0.00000  Uiso   1.00
O533   O     0.82360   0.45726   0.16625   0.00000  Uiso   1.00
O534   O     0.79354   0.53979   0.33749   0.00000  Uiso   1.00
O535   O     0.87755   0.50826   0.15877   0.00000  Uiso   1.00
O536   O     0.83865   0.49468   0.33749   0.00000  Uiso   1.00
O537   O     0.88694   0.64830   0.16849   0.00000  Uiso   1.00
O538   O     0.89665   0.37929   0.20003   0.00000  Uiso   1.00
O539   O     0.74841   0.47055   0.09188   0.00000  Uiso   1.00
O540   O     0.74636   0.53964   0.11221   0.00000  Uiso   1.00
O541   O     0.84515   0.41434   0.27821   0.00000  Uiso   1.00
O542   O     0.81247   0.59469   0.26767   0.00000  Uiso   1.00
O543   O     0.74119   0.46584   0.23607   0.00000  Uiso   1.00
O544   O     0.93452   0.52512   0.21806   0.00000  Uiso   1.00
O545   O     0.73656   0.52293   0.27820   0.00000  Uiso   1.00
O546   O     0.92106   0.48610   0.26768   0.00000  Uiso   1.00
O547   O     0.80467   0.40236   0.23607   0.00000  Uiso   1.00
O548   O     0.87104   0.58860   0.21806   0.00000  Uiso   1.00
Zn549  Zn    0.85910   0.47423   0.28278   0.00000  Uiso   1.00
Zn550  Zn    0.80125   0.45711   0.22258   0.00000  Uiso   1.00
Zn551  Zn    0.87833   0.52997   0.21188   0.00000  Uiso   1.00
Zn552  Zn    0.79465   0.53868   0.28277   0.00000  Uiso   1.00
C553   C     0.05298   0.82709   0.25826   0.00000  Uiso   1.00
C554   C     0.19625   0.79532   0.46116   0.00000  Uiso   1.00
C555   C     0.21446   0.77318   0.48167   0.00000  Uiso   1.00
C556   C     0.28089   0.83989   0.24161   0.00000  Uiso   1.00
C557   C     0.20555   0.78056   0.02226   0.00000  Uiso   1.00
C558   C     0.17739   0.81053   0.04275   0.00000  Uiso   1.00
C559   C     0.22570   0.75936   0.04258   0.00000  Uiso   1.00
C560   C     0.21991   0.76929   0.08280   0.00000  Uiso   1.00
C561   C     0.17676   0.82365   0.08206   0.00000  Uiso   1.00
C562   C     0.32631   0.84095   0.23908   0.00000  Uiso   1.00
C563   C     0.00736   0.82318   0.26453   0.00000  Uiso   1.00
C564   C     0.11817   0.89847   0.41886   0.00000  Uiso   1.00
C565   C     0.17954   0.98831   0.23483   0.00000  Uiso   1.00
C566   C     0.15366   0.67908   0.26226   0.00000  Uiso   1.00
C567   C     0.15532   0.72300   0.25979   0.00000  Uiso   1.00
C568   C     0.17643   0.94416   0.24060   0.00000  Uiso   1.00
C569   C     0.18830   0.81173   0.14426   0.00000  Uiso   1.00
C570   C     0.14584   0.85452   0.35607   0.00000  Uiso   1.00
C571   C     0.13795   0.86351   0.39884   0.00000  Uiso   1.00
C572   C     0.19656   0.80235   0.10212   0.00000  Uiso   1.00
C573   C     0.11113   0.90675   0.45968   0.00000  Uiso   1.00
C574   C     0.05187   0.88379   0.03865   0.00000  Uiso   1.00
C575   C     0.15292   0.83811   0.41933   0.00000  Uiso   1.00
C576   C     0.01833   0.84554   0.03943   0.00000  Uiso   1.00
C577   C     0.30626   0.85843   0.05422   0.00000  Uiso   1.00
C578   C     0.31231   0.80115   0.29989   0.00000  Uiso   1.00
C579   C     0.00336   0.78572   0.32549   0.00000  Uiso   1.00
C580   C     0.30572   0.76449   0.35995   0.00000  Uiso   1.00
C581   C     0.21087   0.67135   0.19898   0.00000  Uiso   1.00
C582   C     0.10034   0.95010   0.47844   0.00000  Uiso   1.00
C583   C     0.13404   0.98466   0.45957   0.00000  Uiso   1.00
C584   C     0.12294   0.69428   0.47976   0.00000  Uiso   1.00
C585   C     0.09105   0.83987   0.08338   0.00000  Uiso   1.00
C586   C     0.14592   0.84523   0.46027   0.00000  Uiso   1.00
C587   C     0.11886   0.87597   0.48109   0.00000  Uiso   1.00
C588   C     0.16469   0.82234   0.48095   0.00000  Uiso   1.00
C589   C     0.15283   0.82790   0.02268   0.00000  Uiso   1.00
C590   C     0.11539   0.84826   0.04249   0.00000  Uiso   1.00
C591   C     0.09772   0.87191   0.02135   0.00000  Uiso   1.00
H592   H     0.24603   0.73537   0.02734   0.00000  Uiso   1.00
H593   H     0.30018   0.87277   0.08511   0.00000  Uiso   1.00
H594   H     0.30138   0.88093   0.03545   0.00000  Uiso   1.00
H595   H     0.28291   0.83055   0.05298   0.00000  Uiso   1.00
H596   H     0.02278   0.82952   0.00920   0.00000  Uiso   1.00
H597   H     0.02173   0.82294   0.05872   0.00000  Uiso   1.00
H598   H     0.04796   0.90076   0.06832   0.00000  Uiso   1.00
H599   H     0.04349   0.90495   0.02104   0.00000  Uiso   1.00
H600   H     0.28391   0.78676   0.37902   0.00000  Uiso   1.00
H601   H     0.28635   0.73712   0.34908   0.00000  Uiso   1.00
H602   H     0.32415   0.75361   0.37780   0.00000  Uiso   1.00
H603   H     0.01580   0.85682   0.21541   0.00000  Uiso   1.00
H604   H     0.02537   0.76301   0.30749   0.00000  Uiso   1.00
H605   H     0.02257   0.81250   0.33746   0.00000  Uiso   1.00
H606   H     0.29036   0.82324   0.31918   0.00000  Uiso   1.00
H607   H     0.29329   0.77346   0.28898   0.00000  Uiso   1.00
H608   H     0.25036   0.71963   0.17383   0.00000  Uiso   1.00
H609   H     0.09003   0.69915   0.47969   0.00000  Uiso   1.00
H610   H     0.12517   0.69761   0.01055   0.00000  Uiso   1.00
H611   H     0.14577   0.71861   0.46357   0.00000  Uiso   1.00
H612   H     0.16615   0.97972   0.46186   0.00000  Uiso   1.00
H613   H     0.13570   0.98421   0.42798   0.00000  Uiso   1.00
H614   H     0.13221   0.66681   0.28863   0.00000  Uiso   1.00
H615   H     0.06847   0.95490   0.47544   0.00000  Uiso   1.00
H616   H     0.09912   0.95354   0.01014   0.00000  Uiso   1.00
H617   H     0.06353   0.86314   0.13879   0.00000  Uiso   1.00
H618   H     0.16123   0.85055   0.09763   0.00000  Uiso   1.00
H619   H     0.23465   0.75217   0.09859   0.00000  Uiso   1.00
H620   H     0.23725   0.75162   0.46544   0.00000  Uiso   1.00
H621   H     0.10951   0.92007   0.40252   0.00000  Uiso   1.00
H622   H     0.16830   0.81168   0.40279   0.00000  Uiso   1.00
H623   H     0.20794   0.79051   0.42965   0.00000  Uiso   1.00
O624   O     0.16667   0.83333   0.25000   0.00000  Uiso   1.00
O625   O     0.15693   0.79060   0.16625   0.00000  Uiso   1.00
O626   O     0.12687   0.87313   0.33749   0.00000  Uiso   1.00
O627   O     0.21088   0.84159   0.15877   0.00000  Uiso   1.00
O628   O     0.17198   0.82802   0.33749   0.00000  Uiso   1.00
O629   O     0.22027   0.98164   0.16849   0.00000  Uiso   1.00
O630   O     0.22999   0.71262   0.20003   0.00000  Uiso   1.00
O631   O     0.08174   0.80388   0.09188   0.00000  Uiso   1.00
O632   O     0.07970   0.87297   0.11221   0.00000  Uiso   1.00
O633   O     0.17849   0.74768   0.27821   0.00000  Uiso   1.00
O634   O     0.14581   0.92803   0.26767   0.00000  Uiso   1.00
O635   O     0.07452   0.79917   0.23607   0.00000  Uiso   1.00
O636   O     0.26785   0.85845   0.21806   0.00000  Uiso   1.00
O637   O     0.06990   0.85627   0.27820   0.00000  Uiso   1.00
O638   O     0.25440   0.81944   0.26768   0.00000  Uiso   1.00
O639   O     0.13800   0.73570   0.23607   0.00000  Uiso   1.00
O640   O     0.20437   0.92193   0.21806   0.00000  Uiso   1.00
Zn641  Zn    0.19244   0.80756   0.28278   0.00000  Uiso   1.00
Zn642  Zn    0.13459   0.79044   0.22258   0.00000  Uiso   1.00
Zn643  Zn    0.21166   0.86331   0.21188   0.00000  Uiso   1.00
Zn644  Zn    0.12798   0.87202   0.28277   0.00000  Uiso   1.00
C645   C     0.38632   0.82709   0.25826   0.00000  Uiso   1.00
C646   C     0.52958   0.79532   0.46116   0.00000  Uiso   1.00
C647   C     0.54780   0.77318   0.48167   0.00000  Uiso   1.00
C648   C     0.61422   0.83989   0.24161   0.00000  Uiso   1.00
C649   C     0.53888   0.78056   0.02226   0.00000  Uiso   1.00
C650   C     0.51073   0.81053   0.04275   0.00000  Uiso   1.00
C651   C     0.55903   0.75936   0.04258   0.00000  Uiso   1.00
C652   C     0.55324   0.76929   0.08280   0.00000  Uiso   1.00
C653   C     0.51009   0.82365   0.08206   0.00000  Uiso   1.00
C654   C     0.65964   0.84095   0.23908   0.00000  Uiso   1.00
C655   C     0.34069   0.82318   0.26453   0.00000  Uiso   1.00
C656   C     0.45151   0.89847   0.41886   0.00000  Uiso   1.00
C657   C     0.51288   0.98831   0.23483   0.00000  Uiso   1.00
C658   C     0.48700   0.67908   0.26226   0.00000  Uiso   1.00
C659   C     0.48865   0.72300   0.25979   0.00000  Uiso   1.00
C660   C     0.50977   0.94416   0.24060   0.00000  Uiso   1.00
C661   C     0.52163   0.81173   0.14426   0.00000  Uiso   1.00
C662   C     0.47917   0.85452   0.35607   0.00000  Uiso   1.00
C663   C     0.47128   0.86351   0.39884   0.00000  Uiso   1.00
C664   C     0.52989   0.80235   0.10212   0.00000  Uiso   1.00
C665   C     0.44446   0.90675   0.45968   0.00000  Uiso   1.00
C666   C     0.38520   0.88379   0.03865   0.00000  Uiso   1.00
C667   C     0.48625   0.83811   0.41933   0.00000  Uiso   1.00
C668   C     0.35166   0.84554   0.03943   0.00000  Uiso   1.00
C669   C     0.63960   0.85843   0.05422   0.00000  Uiso   1.00
C670   C     0.64564   0.80115   0.29989   0.00000  Uiso   1.00
C671   C     0.33670   0.78572   0.32549   0.00000  Uiso   1.00
C672   C     0.63906   0.76449   0.35995   0.00000  Uiso   1.00
C673   C     0.54420   0.67135   0.19898   0.00000  Uiso   1.00
C674   C     0.43367   0.95010   0.47844   0.00000  Uiso   1.00
C675   C     0.46737   0.98466   0.45957   0.00000  Uiso   1.00
C676   C     0.45627   0.69428   0.47976   0.00000  Uiso   1.00
C677   C     0.42438   0.83987   0.08338   0.00000  Uiso   1.00
C678   C     0.47926   0.84523   0.46027   0.00000  Uiso   1.00
C679   C     0.45219   0.87597   0.48109   0.00000  Uiso   1.00
C680   C     0.49802   0.82234   0.48095   0.00000  Uiso   1.00
C681   C     0.48617   0.82790   0.02268   0.00000  Uiso   1.00
C682   C     0.44872   0.84826   0.04249   0.00000  Uiso   1.00
C683   C     0.43105   0.87191   0.02135   0.00000  Uiso   1.00
H684   H     0.57937   0.73537   0.02734   0.00000  Uiso   1.00
H685   H     0.63351   0.87277   0.08511   0.00000  Uiso   1.00
H686   H     0.63471   0.88093   0.03545   0.00000  Uiso   1.00
H687   H     0.61625   0.83055   0.05298   0.00000  Uiso   1.00
H688   H     0.35612   0.82952   0.00920   0.00000  Uiso   1.00
H689   H     0.35506   0.82294   0.05872   0.00000  Uiso   1.00
H690   H     0.38129   0.90076   0.06832   0.00000  Uiso   1.00
H691   H     0.37682   0.90495   0.02104   0.00000  Uiso   1.00
H692   H     0.61725   0.78676   0.37902   0.00000  Uiso   1.00
H693   H     0.61968   0.73712   0.34908   0.00000  Uiso   1.00
H694   H     0.65748   0.75361   0.37780   0.00000  Uiso   1.00
H695   H     0.34913   0.85682   0.21541   0.00000  Uiso   1.00
H696   H     0.35870   0.76301   0.30749   0.00000  Uiso   1.00
H697   H     0.35590   0.81250   0.33746   0.00000  Uiso   1.00
H698   H     0.62369   0.82324   0.31918   0.00000  Uiso   1.00
H699   H     0.62662   0.77346   0.28898   0.00000  Uiso   1.00
H700   H     0.58370   0.71963   0.17383   0.00000  Uiso   1.00
H701   H     0.42336   0.69915   0.47969   0.00000  Uiso   1.00
H702   H     0.45850   0.69761   0.01055   0.00000  Uiso   1.00
H703   H     0.47911   0.71861   0.46357   0.00000  Uiso   1.00
H704   H     0.49949   0.97972   0.46186   0.00000  Uiso   1.00
H705   H     0.46903   0.98421   0.42798   0.00000  Uiso   1.00
H706   H     0.46554   0.66681   0.28863   0.00000  Uiso   1.00
H707   H     0.40181   0.95490   0.47544   0.00000  Uiso   1.00
H708   H     0.43245   0.95354   0.01014   0.00000  Uiso   1.00
H709   H     0.39686   0.86314   0.13879   0.00000  Uiso   1.00
H710   H     0.49456   0.85055   0.09763   0.00000  Uiso   1.00
H711   H     0.56798   0.75217   0.09859   0.00000  Uiso   1.00
H712   H     0.57058   0.75162   0.46544   0.00000  Uiso   1.00
H713   H     0.44284   0.92007   0.40252   0.00000  Uiso   1.00
H714   H     0.50164   0.81168   0.40279   0.00000  Uiso   1.00
H715   H     0.54127   0.79051   0.42965   0.00000  Uiso   1.00
O716   O     0.50000   0.83333   0.25000   0.00000  Uiso   1.00
O717   O     0.49027   0.79060   0.16625   0.00000  Uiso   1.00
O718   O     0.46020   0.87313   0.33749   0.00000  Uiso   1.00
O719   O     0.54421   0.84159   0.15877   0.00000  Uiso   1.00
O720   O     0.50532   0.82802   0.33749   0.00000  Uiso   1.00
O721   O     0.55360   0.98164   0.16849   0.00000  Uiso   1.00
O722   O     0.56332   0.71262   0.20003   0.00000  Uiso   1.00
O723   O     0.41508   0.80388   0.09188   0.00000  Uiso   1.00
O724   O     0.41303   0.87297   0.11221   0.00000  Uiso   1.00
O725   O     0.51182   0.74768   0.27821   0.00000  Uiso   1.00
O726   O     0.47914   0.92803   0.26767   0.00000  Uiso   1.00
O727   O     0.40785   0.79917   0.23607   0.00000  Uiso   1.00
O728   O     0.60119   0.85845   0.21806   0.00000  Uiso   1.00
O729   O     0.40323   0.85627   0.27820   0.00000  Uiso   1.00
O730   O     0.58773   0.81944   0.26768   0.00000  Uiso   1.00
O731   O     0.47133   0.73570   0.23607   0.00000  Uiso   1.00
O732   O     0.53771   0.92193   0.21806   0.00000  Uiso   1.00
Zn733  Zn    0.52577   0.80756   0.28278   0.00000  Uiso   1.00
Zn734  Zn    0.46792   0.79044   0.22258   0.00000  Uiso   1.00
Zn735  Zn    0.54500   0.86331   0.21188   0.00000  Uiso   1.00
Zn736  Zn    0.46131   0.87202   0.28277   0.00000  Uiso   1.00
C737   C     0.71965   0.82709   0.25826   0.00000  Uiso   1.00
C738   C     0.86292   0.79532   0.46116   0.00000  Uiso   1.00
C739   C     0.88113   0.77318   0.48167   0.00000  Uiso   1.00
C740   C     0.94755   0.83989   0.24161   0.00000  Uiso   1.00
C741   C     0.87221   0.78056   0.02226   0.00000  Uiso   1.00
C742   C     0.84406   0.81053   0.04275   0.00000  Uiso   1.00
C743   C     0.89236   0.75936   0.04258   0.00000  Uiso   1.00
C744   C     0.88658   0.76929   0.08280   0.00000  Uiso   1.00
C745   C     0.84342   0.82365   0.08206   0.00000  Uiso   1.00
C746   C     0.99297   0.84095   0.23908   0.00000  Uiso   1.00
C747   C     0.67403   0.82318   0.26453   0.00000  Uiso   1.00
C748   C     0.78484   0.89847   0.41886   0.00000  Uiso   1.00
C749   C     0.84621   0.98831   0.23483   0.00000  Uiso   1.00
C750   C     0.82033   0.67908   0.26226   0.00000  Uiso   1.00
C751   C     0.82199   0.72300   0.25979   0.00000  Uiso   1.00
C752   C     0.84310   0.94416   0.24060   0.00000  Uiso   1.00
C753   C     0.85496   0.81173   0.14426   0.00000  Uiso   1.00
C754   C     0.81251   0.85452   0.35607   0.00000  Uiso   1.00
C755   C     0.80461   0.86351   0.39884   0.00000  Uiso   1.00
C756   C     0.86323   0.80235   0.10212   0.00000  Uiso   1.00
C757   C     0.77779   0.90675   0.45968   0.00000  Uiso   1.00
C758   C     0.71854   0.88379   0.03865   0.00000  Uiso   1.00
C759   C     0.81959   0.83811   0.41933   0.00000  Uiso   1.00
C760   C     0.68499   0.84554   0.03943   0.00000  Uiso   1.00
C761   C     0.97293   0.85843   0.05422   0.00000  Uiso   1.00
C762   C     0.97897   0.80115   0.29989   0.00000  Uiso   1.00
C763   C     0.67003   0.78572   0.32549   0.00000  Uiso   1.00
C764   C     0.97239   0.76449   0.35995   0.00000  Uiso   1.00
C765   C     0.87754   0.67135   0.19898   0.00000  Uiso   1.00
C766   C     0.76701   0.95010   0.47844   0.00000  Uiso   1.00
C767   C     0.80071   0.98466   0.45957   0.00000  Uiso   1.00
C768   C     0.78961   0.69428   0.47976   0.00000  Uiso   1.00
C769   C     0.75771   0.83987   0.08338   0.00000  Uiso   1.00
C770   C     0.81259   0.84523   0.46027   0.00000  Uiso   1.00
C771   C     0.78553   0.87597   0.48109   0.00000  Uiso   1.00
C772   C     0.83135   0.82234   0.48095   0.00000  Uiso   1.00
C773   C     0.81950   0.82790   0.02268   0.00000  Uiso   1.00
C774   C     0.78206   0.84826   0.04249   0.00000  Uiso   1.00
C775   C     0.76438   0.87191   0.02135   0.00000  Uiso   1.00
H776   H     0.91270   0.73537   0.02734   0.00000  Uiso   1.00
H777   H     0.96684   0.87277   0.08511   0.00000  Uiso   1.00
H778   H     0.96804   0.88093   0.03545   0.00000  Uiso   1.00
H779   H     0.94958   0.83055   0.05298   0.00000  Uiso   1.00
H780   H     0.68945   0.82952   0.00920   0.00000  Uiso   1.00
H781   H     0.68840   0.82294   0.05872   0.00000  Uiso   1.00
H782   H     0.71463   0.90076   0.06832   0.00000  Uiso   1.00
H783   H     0.71015   0.90495   0.02104   0.00000  Uiso   1.00
H784   H     0.95058   0.78676   0.37902   0.00000  Uiso   1.00
H785   H     0.95301   0.73712   0.34908   0.00000  Uiso   1.00
H786   H     0.99081   0.75361   0.37780   0.00000  Uiso   1.00
H787   H     0.68247   0.85682   0.21541   0.00000  Uiso   1.00
H788   H     0.69204   0.76301   0.30749   0.00000  Uiso   1.00
H789   H     0.68923   0.81250   0.33746   0.00000  Uiso   1.00
H790   H     0.95703   0.82324   0.31918   0.00000  Uiso   1.00
H791   H     0.95996   0.77346   0.28898   0.00000  Uiso   1.00
H792   H     0.91703   0.71963   0.17383   0.00000  Uiso   1.00
H793   H     0.75670   0.69915   0.47969   0.00000  Uiso   1.00
H794   H     0.79183   0.69761   0.01055   0.00000  Uiso   1.00
H795   H     0.81244   0.71861   0.46357   0.00000  Uiso   1.00
H796   H     0.83282   0.97972   0.46186   0.00000  Uiso   1.00
H797   H     0.80236   0.98421   0.42798   0.00000  Uiso   1.00
H798   H     0.79887   0.66681   0.28863   0.00000  Uiso   1.00
H799   H     0.73514   0.95490   0.47544   0.00000  Uiso   1.00
H800   H     0.76579   0.95354   0.01014   0.00000  Uiso   1.00
H801   H     0.73019   0.86314   0.13879   0.00000  Uiso   1.00
H802   H     0.82790   0.85055   0.09763   0.00000  Uiso   1.00
H803   H     0.90131   0.75217   0.09859   0.00000  Uiso   1.00
H804   H     0.90391   0.75162   0.46544   0.00000  Uiso   1.00
H805   H     0.77618   0.92007   0.40252   0.00000  Uiso   1.00
H806   H     0.83497   0.81168   0.40279   0.00000  Uiso   1.00
H807   H     0.87461   0.79051   0.42965   0.00000  Uiso   1.00
O808   O     0.83333   0.83333   0.25000   0.00000  Uiso   1.00
O809   O     0.82360   0.79060   0.16625   0.00000  Uiso   1.00
O810   O     0.79354   0.87313   0.33749   0.00000  Uiso   1.00
O811   O     0.87755   0.84159   0.15877   0.00000  Uiso   1.00
O812   O     0.83865   0.82802   0.33749   0.00000  Uiso   1.00
O813   O     0.88694   0.98164   0.16849   0.00000  Uiso   1.00
O814   O     0.89665   0.71262   0.20003   0.00000  Uiso   1.00
O815   O     0.74841   0.80388   0.09188   0.00000  Uiso   1.00
O816   O     0.74636   0.87297   0.11221   0.00000  Uiso   1.00
O817   O     0.84515   0.74768   0.27821   0.00000  Uiso   1.00
O818   O     0.81247   0.92803   0.26767   0.00000  Uiso   1.00
O819   O     0.74119   0.79917   0.23607   0.00000  Uiso   1.00
O820   O     0.93452   0.85845   0.21806   0.00000  Uiso   1.00
O821   O     0.73656   0.85627   0.27820   0.00000  Uiso   1.00
O822   O     0.92106   0.81944   0.26768   0.00000  Uiso   1.00
O823   O     0.80467   0.73570   0.23607   0.00000  Uiso   1.00
O824   O     0.87104   0.92193   0.21806   0.00000  Uiso   1.00
Zn825  Zn    0.85910   0.80756   0.28278   0.00000  Uiso   1.00
Zn826  Zn    0.80125   0.79044   0.22258   0.00000  Uiso   1.00
Zn827  Zn    0.87833   0.86331   0.21188   0.00000  Uiso   1.00
Zn828  Zn    0.79465   0.87202   0.28277   0.00000  Uiso   1.00
C829   C     0.05298   0.16042   0.75826   0.00000  Uiso   1.00
C830   C     0.19625   0.12865   0.96116   0.00000  Uiso   1.00
C831   C     0.21446   0.10652   0.98167   0.00000  Uiso   1.00
C832   C     0.28089   0.17323   0.74161   0.00000  Uiso   1.00
C833   C     0.20555   0.11389   0.52226   0.00000  Uiso   1.00
C834   C     0.17739   0.14386   0.54275   0.00000  Uiso   1.00
C835   C     0.22570   0.09269   0.54258   0.00000  Uiso   1.00
C836   C     0.21991   0.10263   0.58280   0.00000  Uiso   1.00
C837   C     0.17676   0.15699   0.58206   0.00000  Uiso   1.00
C838   C     0.32631   0.17428   0.73908   0.00000  Uiso   1.00
C839   C     0.00736   0.15651   0.76453   0.00000  Uiso   1.00
C840   C     0.11817   0.23181   0.91886   0.00000  Uiso   1.00
C841   C     0.17954   0.32165   0.73483   0.00000  Uiso   1.00
C842   C     0.15366   0.01241   0.76226   0.00000  Uiso   1.00
C843   C     0.15532   0.05634   0.75979   0.00000  Uiso   1.00
C844   C     0.17643   0.27749   0.74060   0.00000  Uiso   1.00
C845   C     0.18830   0.14506   0.64426   0.00000  Uiso   1.00
C846   C     0.14584   0.18785   0.85607   0.00000  Uiso   1.00
C847   C     0.13795   0.19685   0.89884   0.00000  Uiso   1.00
C848   C     0.19656   0.13569   0.60212   0.00000  Uiso   1.00
C849   C     0.11113   0.24008   0.95968   0.00000  Uiso   1.00
C850   C     0.05187   0.21712   0.53865   0.00000  Uiso   1.00
C851   C     0.15292   0.17144   0.91933   0.00000  Uiso   1.00
C852   C     0.01833   0.17888   0.53943   0.00000  Uiso   1.00
C853   C     0.30626   0.19177   0.55422   0.00000  Uiso   1.00
C854   C     0.31231   0.13448   0.79989   0.00000  Uiso   1.00
C855   C     0.00336   0.11906   0.82549   0.00000  Uiso   1.00
C856   C     0.30572   0.09782   0.85995   0.00000  Uiso   1.00
C857   C     0.21087   0.00468   0.69898   0.00000  Uiso   1.00
C858   C     0.10034   0.28343   0.97844   0.00000  Uiso   1.00
C859   C     0.13404   0.31800   0.95957   0.00000  Uiso   1.00
C860   C     0.12294   0.02762   0.97976   0.00000  Uiso   1.00
C861   C     0.09105   0.17321   0.58338   0.00000  Uiso   1.00
C862   C     0.14592   0.17856   0.96027   0.00000  Uiso   1.00
C863   C     0.11886   0.20931   0.98109   0.00000  Uiso   1.00
C864   C     0.16469   0.15567   0.98095   0.00000  Uiso   1.00
C865   C     0.15283   0.16124   0.52268   0.00000  Uiso   1.00
C866   C     0.11539   0.18159   0.54249   0.00000  Uiso   1.00
C867   C     0.09772   0.20524   0.52135   0.00000  Uiso   1.00
H868   H     0.24603   0.06870   0.52734   0.00000  Uiso   1.00
H869   H     0.30018   0.20610   0.58511   0.00000  Uiso   1.00
H870   H     0.30138   0.21426   0.53545   0.00000  Uiso   1.00
H871   H     0.28291   0.16388   0.55298   0.00000  Uiso   1.00
H872   H     0.02278   0.16285   0.50920   0.00000  Uiso   1.00
H873   H     0.02173   0.15628   0.55872   0.00000  Uiso   1.00
H874   H     0.04796   0.23409   0.56832   0.00000  Uiso   1.00
H875   H     0.04349   0.23829   0.52104   0.00000  Uiso   1.00
H876   H     0.28391   0.12009   0.87902   0.00000  Uiso   1.00
H877   H     0.28635   0.07046   0.84908   0.00000  Uiso   1.00
H878   H     0.32415   0.08694   0.87780   0.00000  Uiso   1.00
H879   H     0.01580   0.19016   0.71541   0.00000  Uiso   1.00
H880   H     0.02537   0.09635   0.80749   0.00000  Uiso   1.00
H881   H     0.02257   0.14584   0.83746   0.00000  Uiso   1.00
H882   H     0.29036   0.15657   0.81918   0.00000  Uiso   1.00
H883   H     0.29329   0.10680   0.78898   0.00000  Uiso   1.00
H884   H     0.25036   0.05296   0.67383   0.00000  Uiso   1.00
H885   H     0.09003   0.03249   0.97969   0.00000  Uiso   1.00
H886   H     0.12517   0.03094   0.51055   0.00000  Uiso   1.00
H887   H     0.14577   0.05194   0.96357   0.00000  Uiso   1.00
H888   H     0.16615   0.31305   0.96186   0.00000  Uiso   1.00
H889   H     0.13570   0.31755   0.92798   0.00000  Uiso   1.00
H890   H     0.13221   0.00014   0.78863   0.00000  Uiso   1.00
H891   H     0.06847   0.28823   0.97544   0.00000  Uiso   1.00
H892   H     0.09912   0.28687   0.51014   0.00000  Uiso   1.00
H893   H     0.06353   0.19647   0.63879   0.00000  Uiso   1.00
H894   H     0.16123   0.18389   0.59763   0.00000  Uiso   1.00
H895   H     0.23465   0.08551   0.59859   0.00000  Uiso   1.00
H896   H     0.23725   0.08495   0.96544   0.00000  Uiso   1.00
H897   H     0.10951   0.25340   0.90252   0.00000  Uiso   1.00
H898   H     0.16830   0.14501   0.90279   0.00000  Uiso   1.00
H899   H     0.20794   0.12384   0.92965   0.00000  Uiso   1.00
O900   O     0.16667   0.16667   0.75000   0.00000  Uiso   1.00
O901   O     0.15693   0.12393   0.66625   0.00000  Uiso   1.00
O902   O     0.12687   0.20646   0.83749   0.00000  Uiso   1.00
O903   O     0.21088   0.17493   0.65877   0.00000  Uiso   1.00
O904   O     0.17198   0.16135   0.83749   0.00000  Uiso   1.00
O905   O     0.22027   0.31497   0.66849   0.00000  Uiso   1.00
O906   O     0.22999   0.04595   0.70003   0.00000  Uiso   1.00
O907   O     0.08174   0.13722   0.59188   0.00000  Uiso   1.00
O908   O     0.07970   0.20631   0.61221   0.00000  Uiso   1.00
O909   O     0.17849   0.08101   0.77821   0.00000  Uiso   1.00
O910   O     0.14581   0.26136   0.76767   0.00000  Uiso   1.00
O911   O     0.07452   0.13251   0.73607   0.00000  Uiso   1.00
O912   O     0.26785   0.19179   0.71806   0.00000  Uiso   1.00
O913   O     0.06990   0.18960   0.77820   0.00000  Uiso   1.00
O914   O     0.25440   0.15277   0.76768   0.00000  Uiso   1.00
O915   O     0.13800   0.06903   0.73607   0.00000  Uiso   1.00
O916   O     0.20437   0.25527   0.71806   0.00000  Uiso   1.00
Zn917  Zn    0.19244   0.14090   0.78278   0.00000  Uiso   1.00
Zn918  Zn    0.13459   0.12378   0.72258   0.00000  Uiso   1.00
Zn919  Zn    0.21166   0.19664   0.71188   0.00000  Uiso   1.00
Zn920  Zn    0.12798   0.20535   0.78277   0.00000  Uiso   1.00
C921   C     0.38632   0.16042   0.75826   0.00000  Uiso   1.00
C922   C     0.52958   0.12865   0.96116   0.00000  Uiso   1.00
C923   C     0.54780   0.10652   0.98167   0.00000  Uiso   1.00
C924   C     0.61422   0.17323   0.74161   0.00000  Uiso   1.00
C925   C     0.53888   0.11389   0.52226   0.00000  Uiso   1.00
C926   C     0.51073   0.14386   0.54275   0.00000  Uiso   1.00
C927   C     0.55903   0.09269   0.54258   0.00000  Uiso   1.00
C928   C     0.55324   0.10263   0.58280   0.00000  Uiso   1.00
C929   C     0.51009   0.15699   0.58206   0.00000  Uiso   1.00
C930   C     0.65964   0.17428   0.73908   0.00000  Uiso   1.00
C931   C     0.34069   0.15651   0.76453   0.00000  Uiso   1.00
C932   C     0.45151   0.23181   0.91886   0.00000  Uiso   1.00
C933   C     0.51288   0.32165   0.73483   0.00000  Uiso   1.00
C934   C     0.48700   0.01241   0.76226   0.00000  Uiso   1.00
C935   C     0.48865   0.05634   0.75979   0.00000  Uiso   1.00
C936   C     0.50977   0.27749   0.74060   0.00000  Uiso   1.00
C937   C     0.52163   0.14506   0.64426   0.00000  Uiso   1.00
C938   C     0.47917   0.18785   0.85607   0.00000  Uiso   1.00
C939   C     0.47128   0.19685   0.89884   0.00000  Uiso   1.00
C940   C     0.52989   0.13569   0.60212   0.00000  Uiso   1.00
C941   C     0.44446   0.24008   0.95968   0.00000  Uiso   1.00
C942   C     0.38520   0.21712   0.53865   0.00000  Uiso   1.00
C943   C     0.48625   0.17144   0.91933   0.00000  Uiso   1.00
C944   C     0.35166   0.17888   0.53943   0.00000  Uiso   1.00
C945   C     0.63960   0.19177   0.55422   0.00000  Uiso   1.00
C946   C     0.64564   0.13448   0.79989   0.00000  Uiso   1.00
C947   C     0.33670   0.11906   0.82549   0.00000  Uiso   1.00
C948   C     0.63906   0.09782   0.85995   0.00000  Uiso   1.00
C949   C     0.54420   0.00468   0.69898   0.00000  Uiso   1.00
C950   C     0.43367   0.28343   0.97844   0.00000  Uiso   1.00
C951   C     0.46737   0.31800   0.95957   0.00000  Uiso   1.00
C952   C     0.45627   0.02762   0.97976   0.00000  Uiso   1.00
C953   C     0.42438   0.17321   0.58338   0.00000  Uiso   1.00
C954   C     0.47926   0.17856   0.96027   0.00000  Uiso   1.00
C955   C     0.45219   0.20931   0.98109   0.00000  Uiso   1.00
C956   C     0.49802   0.15567   0.98095   0.00000  Uiso   1.00
C957   C     0.48617   0.16124   0.52268   0.00000  Uiso   1.00
C958   C     0.44872   0.18159   0.54249   0.00000  Uiso   1.00
C959   C     0.43105   0.20524   0.52135   0.00000  Uiso   1.00
H960   H     0.57937   0.06870   0.52734   0.00000  Uiso   1.00
H961   H     0.63351   0.20610   0.58511   0.00000  Uiso   1.00
H962   H     0.63471   0.21426   0.53545   0.00000  Uiso   1.00
H963   H     0.61625   0.16388   0.55298   0.00000  Uiso   1.00
H964   H     0.35612   0.16285   0.50920   0.00000  Uiso   1.00
H965   H     0.35506   0.15628   0.55872   0.00000  Uiso   1.00
H966   H     0.38129   0.23409   0.56832   0.00000  Uiso   1.00
H967   H     0.37682   0.23829   0.52104   0.00000  Uiso   1.00
H968   H     0.61725   0.12009   0.87902   0.00000  Uiso   1.00
H969   H     0.61968   0.07046   0.84908   0.00000  Uiso   1.00
H970   H     0.65748   0.08694   0.87780   0.00000  Uiso   1.00
H971   H     0.34913   0.19016   0.71541   0.00000  Uiso   1.00
H972   H     0.35870   0.09635   0.80749   0.00000  Uiso   1.00
H973   H     0.35590   0.14584   0.83746   0.00000  Uiso   1.00
H974   H     0.62369   0.15657   0.81918   0.00000  Uiso   1.00
H975   H     0.62662   0.10680   0.78898   0.00000  Uiso   1.00
H976   H     0.58370   0.05296   0.67383   0.00000  Uiso   1.00
H977   H     0.42336   0.03249   0.97969   0.00000  Uiso   1.00
H978   H     0.45850   0.03094   0.51055   0.00000  Uiso   1.00
H979   H     0.47911   0.05194   0.96357   0.00000  Uiso   1.00
H980   H     0.49949   0.31305   0.96186   0.00000  Uiso   1.00
H981   H     0.46903   0.31755   0.92798   0.00000  Uiso   1.00
H982   H     0.46554   0.00014   0.78863   0.00000  Uiso   1.00
H983   H     0.40181   0.28823   0.97544   0.00000  Uiso   1.00
H984   H     0.43245   0.28687   0.51014   0.00000  Uiso   1.00
H985   H     0.39686   0.19647   0.63879   0.00000  Uiso   1.00
H986   H     0.49456   0.18389   0.59763   0.00000  Uiso   1.00
H987   H     0.56798   0.08551   0.59859   0.00000  Uiso   1.00
H988   H     0.57058   0.08495   0.96544   0.00000  Uiso   1.00
H989   H     0.44284   0.25340   0.90252   0.00000  Uiso   1.00
H990   H     0.50164   0.14501   0.90279   0.00000  Uiso   1.00
H991   H     0.54127   0.12384   0.92965   0.00000  Uiso   1.00
O992   O     0.50000   0.16667   0.75000   0.00000  Uiso   1.00
O993   O     0.49027   0.12393   0.66625   0.00000  Uiso   1.00
O994   O     0.46020   0.20646   0.83749   0.00000  Uiso   1.00
O995   O     0.54421   0.17493   0.65877   0.00000  Uiso   1.00
O996   O     0.50532   0.16135   0.83749   0.00000  Uiso   1.00
O997   O     0.55360   0.31497   0.66849   0.00000  Uiso   1.00
O998   O     0.56332   0.04595   0.70003   0.00000  Uiso   1.00
O999   O     0.41508   0.13722   0.59188   0.00000  Uiso   1.00
O1000  O     0.41303   0.20631   0.61221   0.00000  Uiso   1.00
O1001  O     0.51182   0.08101   0.77821   0.00000  Uiso   1.00
O1002  O     0.47914   0.26136   0.76767   0.00000  Uiso   1.00
O1003  O     0.40785   0.13251   0.73607   0.00000  Uiso   1.00
O1004  O     0.60119   0.19179   0.71806   0.00000  Uiso   1.00
O1005  O     0.40323   0.18960   0.77820   0.00000  Uiso   1.00
O1006  O     0.58773   0.15277   0.76768   0.00000  Uiso   1.00
O1007  O     0.47133   0.06903   0.73607   0.00000  Uiso   1.00
O1008  O     0.53771   0.25527   0.71806   0.00000  Uiso   1.00
Zn1009 Zn    0.52577   0.14090   0.78278   0.00000  Uiso   1.00
Zn1010 Zn    0.46792   0.12378   0.72258   0.00000  Uiso   1.00
Zn1011 Zn    0.54500   0.19664   0.71188   0.00000  Uiso   1.00
Zn1012 Zn    0.46131   0.20535   0.78277   0.00000  Uiso   1.00
C1013  C     0.71965   0.16042   0.75826   0.00000  Uiso   1.00
C1014  C     0.86292   0.12865   0.96116   0.00000  Uiso   1.00
C1015  C     0.88113   0.10652   0.98167   0.00000  Uiso   1.00
C1016  C     0.94755   0.17323   0.74161   0.00000  Uiso   1.00
C1017  C     0.87221   0.11389   0.52226   0.00000  Uiso   1.00
C1018  C     0.84406   0.14386   0.54275   0.00000  Uiso   1.00
C1019  C     0.89236   0.09269   0.54258   0.00000  Uiso   1.00
C1020  C     0.88658   0.10263   0.58280   0.00000  Uiso   1.00
C1021  C     0.84342   0.15699   0.58206   0.00000  Uiso   1.00
C1022  C     0.99297   0.17428   0.73908   0.00000  Uiso   1.00
C1023  C     0.67403   0.15651   0.76453   0.00000  Uiso   1.00
C1024  C     0.78484   0.23181   0.91886   0.00000  Uiso   1.00
C1025  C     0.84621   0.32165   0.73483   0.00000  Uiso   1.00
C1026  C     0.82033   0.01241   0.76226   0.00000  Uiso   1.00
C1027  C     0.82199   0.05634   0.75979   0.00000  Uiso   1.00
C1028  C     0.84310   0.27749   0.74060   0.00000  Uiso   1.00
C1029  C     0.85496   0.14506   0.64426   0.00000  Uiso   1.00
C1030  C     0.81251   0.18785   0.85607   0.00000  Uiso   1.00
C1031  C     0.80461   0.19685   0.89884   0.00000  Uiso   1.00
C1032  C     0.86323   0.13569   0.60212   0.00000  Uiso   1.00
C1033  C     0.77779   0.24008   0.95968   0.00000  Uiso   1.00
C1034  C     0.71854   0.21712   0.53865   0.00000  Uiso   1.00
C1035  C     0.81959   0.17144   0.91933   0.00000  Uiso   1.00
C1036  C     0.68499   0.17888   0.53943   0.00000  Uiso   1.00
C1037  C     0.97293   0.19177   0.55422   0.00000  Uiso   1.00
C1038  C     0.97897   0.13448   0.79989   0.00000  Uiso   1.00
C1039  C     0.67003   0.11906   0.82549   0.00000  Uiso   1.00
C1040  C     0.97239   0.09782   0.85995   0.00000  Uiso   1.00
C1041  C     0.87754   0.00468   0.69898   0.00000  Uiso   1.00
C1042  C     0.76701   0.28343   0.97844   0.00000  Uiso   1.00
C1043  C     0.80071   0.31800   0.95957   0.00000  Uiso   1.00
C1044  C     0.78961   0.02762   0.97976   0.00000  Uiso   1.00
C1045  C     0.75771   0.17321   0.58338   0.00000  Uiso   1.00
C1046  C     0.81259   0.17856   0.96027   0.00000  Uiso   1.00
C1047  C     0.78553   0.20931   0.98109   0.00000  Uiso   1.00
C1048  C     0.83135   0.15567   0.98095   0.00000  Uiso   1.00
C1049  C     0.81950   0.16124   0.52268   0.00000  Uiso   1.00
C1050  C     0.78206   0.18159   0.54249   0.00000  Uiso   1.00
C1051  C     0.76438   0.20524   0.52135   0.00000  Uiso   1.00
H1052  H     0.91270   0.06870   0.52734   0.00000  Uiso   1.00
H1053  H     0.96684   0.20610   0.58511   0.00000  Uiso   1.00
H1054  H     0.96804   0.21426   0.53545   0.00000  Uiso   1.00
H1055  H     0.94958   0.16388   0.55298   0.00000  Uiso   1.00
H1056  H     0.68945   0.16285   0.50920   0.00000  Uiso   1.00
H1057  H     0.68840   0.15628   0.55872   0.00000  Uiso   1.00
H1058  H     0.71463   0.23409   0.56832   0.00000  Uiso   1.00
H1059  H     0.71015   0.23829   0.52104   0.00000  Uiso   1.00
H1060  H     0.95058   0.12009   0.87902   0.00000  Uiso   1.00
H1061  H     0.95301   0.07046   0.84908   0.00000  Uiso   1.00
H1062  H     0.99081   0.08694   0.87780   0.00000  Uiso   1.00
H1063  H     0.68247   0.19016   0.71541   0.00000  Uiso   1.00
H1064  H     0.69204   0.09635   0.80749   0.00000  Uiso   1.00
H1065  H     0.68923   0.14584   0.83746   0.00000  Uiso   1.00
H1066  H     0.95703   0.15657   0.81918   0.00000  Uiso   1.00
H1067  H     0.95996   0.10680   0.78898   0.00000  Uiso   1.00
H1068  H     0.91703   0.05296   0.67383   0.00000  Uiso   1.00
H1069  H     0.75670   0.03249   0.97969   0.00000  Uiso   1.00
H1070  H     0.79183   0.03094   0.51055   0.00000  Uiso   1.00
H1071  H     0.81244   0.05194   0.96357   0.00000  Uiso   1.00
H1072  H     0.83282   0.31305   0.96186   0.00000  Uiso   1.00
H1073  H     0.80236   0.31755   0.92798   0.00000  Uiso   1.00
H1074  H     0.79887   0.00014   0.78863   0.00000  Uiso   1.00
H1075  H     0.73514   0.28823   0.97544   0.00000  Uiso   1.00
H1076  H     0.76579   0.28687   0.51014   0.00000  Uiso   1.00
H1077  H     0.73019   0.19647   0.63879   0.00000  Uiso   1.00
H1078  H     0.82790   0.18389   0.59763   0.00000  Uiso   1.00
H1079  H     0.90131   0.08551   0.59859   0.00000  Uiso   1.00
H1080  H     0.90391   0.08495   0.96544   0.00000  Uiso   1.00
H1081  H     0.77618   0.25340   0.90252   0.00000  Uiso   1.00
H1082  H     0.83497   0.14501   0.90279   0.00000  Uiso   1.00
H1083  H     0.87461   0.12384   0.92965   0.00000  Uiso   1.00
O1084  O     0.83333   0.16667   0.75000   0.00000  Uiso   1.00
O1085  O     0.82360   0.12393   0.66625   0.00000  Uiso   1.00
O1086  O     0.79354   0.20646   0.83749   0.00000  Uiso   1.00
O1087  O     0.87755   0.17493   0.65877   0.00000  Uiso   1.00
O1088  O     0.83865   0.16135   0.83749   0.00000  Uiso   1.00
O1089  O     0.88694   0.31497   0.66849   0.00000  Uiso   1.00
O1090  O     0.89665   0.04595   0.70003   0.00000  Uiso   1.00
O1091  O     0.74841   0.13722   0.59188   0.00000  Uiso   1.00
O1092  O     0.74636   0.20631   0.61221   0.00000  Uiso   1.00
O1093  O     0.84515   0.08101   0.77821   0.00000  Uiso   1.00
O1094  O     0.81247   0.26136   0.76767   0.00000  Uiso   1.00
O1095  O     0.74119   0.13251   0.73607   0.00000  Uiso   1.00
O1096  O     0.93452   0.19179   0.71806   0.00000  Uiso   1.00
O1097  O     0.73656   0.18960   0.77820   0.00000  Uiso   1.00
O1098  O     0.92106   0.15277   0.76768   0.00000  Uiso   1.00
O1099  O     0.80467   0.06903   0.73607   0.00000  Uiso   1.00
O1100  O     0.87104   0.25527   0.71806   0.00000  Uiso   1.00
Zn1101 Zn    0.85910   0.14090   0.78278   0.00000  Uiso   1.00
Zn1102 Zn    0.80125   0.12378   0.72258   0.00000  Uiso   1.00
Zn1103 Zn    0.87833   0.19664   0.71188   0.00000  Uiso   1.00
Zn1104 Zn    0.79465   0.20535   0.78277   0.00000  Uiso   1.00
C1105  C     0.05298   0.49376   0.75826   0.00000  Uiso   1.00
C1106  C     0.19625   0.46198   0.96116   0.00000  Uiso   1.00
C1107  C     0.21446   0.43985   0.98167   0.00000  Uiso   1.00
C1108  C     0.28089   0.50656   0.74161   0.00000  Uiso   1.00
C1109  C     0.20555   0.44722   0.52226   0.00000  Uiso   1.00
C1110  C     0.17739   0.47719   0.54275   0.00000  Uiso   1.00
C1111  C     0.22570   0.42603   0.54258   0.00000  Uiso   1.00
C1112  C     0.21991   0.43596   0.58280   0.00000  Uiso   1.00
C1113  C     0.17676   0.49032   0.58206   0.00000  Uiso   1.00
C1114  C     0.32631   0.50761   0.73908   0.00000  Uiso   1.00
C1115  C     0.00736   0.48984   0.76453   0.00000  Uiso   1.00
C1116  C     0.11817   0.56514   0.91886   0.00000  Uiso   1.00
C1117  C     0.17954   0.65498   0.73483   0.00000  Uiso   1.00
C1118  C     0.15366   0.34574   0.76226   0.00000  Uiso   1.00
C1119  C     0.15532   0.38967   0.75979   0.00000  Uiso   1.00
C1120  C     0.17643   0.61083   0.74060   0.00000  Uiso   1.00
C1121  C     0.18830   0.47839   0.64426   0.00000  Uiso   1.00
C1122  C     0.14584   0.52118   0.85607   0.00000  Uiso   1.00
C1123  C     0.13795   0.53018   0.89884   0.00000  Uiso   1.00
C1124  C     0.19656   0.46902   0.60212   0.00000  Uiso   1.00
C1125  C     0.11113   0.57342   0.95968   0.00000  Uiso   1.00
C1126  C     0.05187   0.55046   0.53865   0.00000  Uiso   1.00
C1127  C     0.15292   0.50477   0.91933   0.00000  Uiso   1.00
C1128  C     0.01833   0.51221   0.53943   0.00000  Uiso   1.00
C1129  C     0.30626   0.52510   0.55422   0.00000  Uiso   1.00
C1130  C     0.31231   0.46782   0.79989   0.00000  Uiso   1.00
C1131  C     0.00336   0.45239   0.82549   0.00000  Uiso   1.00
C1132  C     0.30572   0.43116   0.85995   0.00000  Uiso   1.00
C1133  C     0.21087   0.33801   0.69898   0.00000  Uiso   1.00
C1134  C     0.10034   0.61677   0.97844   0.00000  Uiso   1.00
C1135  C     0.13404   0.65133   0.95957   0.00000  Uiso   1.00
C1136  C     0.12294   0.36095   0.97976   0.00000  Uiso   1.00
C1137  C     0.09105   0.50654   0.58338   0.00000  Uiso   1.00
C1138  C     0.14592   0.51189   0.96027   0.00000  Uiso   1.00
C1139  C     0.11886   0.54264   0.98109   0.00000  Uiso   1.00
C1140  C     0.16469   0.48900   0.98095   0.00000  Uiso   1.00
C1141  C     0.15283   0.49457   0.52268   0.00000  Uiso   1.00
C1142  C     0.11539   0.51493   0.54249   0.00000  Uiso   1.00
C1143  C     0.09772   0.53857   0.52135   0.00000  Uiso   1.00
H1144  H     0.24603   0.40204   0.52734   0.00000  Uiso   1.00
H1145  H     0.30018   0.53944   0.58511   0.00000  Uiso   1.00
H1146  H     0.30138   0.54760   0.53545   0.00000  Uiso   1.00
H1147  H     0.28291   0.49722   0.55298   0.00000  Uiso   1.00
H1148  H     0.02278   0.49618   0.50920   0.00000  Uiso   1.00
H1149  H     0.02173   0.48961   0.55872   0.00000  Uiso   1.00
H1150  H     0.04796   0.56743   0.56832   0.00000  Uiso   1.00
H1151  H     0.04349   0.57162   0.52104   0.00000  Uiso   1.00
H1152  H     0.28391   0.45342   0.87902   0.00000  Uiso   1.00
H1153  H     0.28635   0.40379   0.84908   0.00000  Uiso   1.00
H1154  H     0.32415   0.42028   0.87780   0.00000  Uiso   1.00
H1155  H     0.01580   0.52349   0.71541   0.00000  Uiso   1.00
H1156  H     0.02537   0.42968   0.80749   0.00000  Uiso   1.00
H1157  H     0.02257   0.47917   0.83746   0.00000  Uiso   1.00
H1158  H     0.29036   0.48990   0.81918   0.00000  Uiso   1.00
H1159  H     0.29329   0.44013   0.78898   0.00000  Uiso   1.00
H1160  H     0.25036   0.38630   0.67383   0.00000  Uiso   1.00
H1161  H     0.09003   0.36582   0.97969   0.00000  Uiso   1.00
H1162  H     0.12517   0.36427   0.51055   0.00000  Uiso   1.00
H1163  H     0.14577   0.38527   0.96357   0.00000  Uiso   1.00
H1164  H     0.16615   0.64638   0.96186   0.00000  Uiso   1.00
H1165  H     0.13570   0.65088   0.92798   0.00000  Uiso   1.00
H1166  H     0.13221   0.33348   0.78863   0.00000  Uiso   1.00
H1167  H     0.06847   0.62157   0.97544   0.00000  Uiso   1.00
H1168  H     0.09912   0.62021   0.51014   0.00000  Uiso   1.00
H1169  H     0.06353   0.52981   0.63879   0.00000  Uiso   1.00
H1170  H     0.16123   0.51722   0.59763   0.00000  Uiso   1.00
H1171  H     0.23465   0.41884   0.59859   0.00000  Uiso   1.00
H1172  H     0.23725   0.41828   0.96544   0.00000  Uiso   1.00
H1173  H     0.10951   0.58673   0.90252   0.00000  Uiso   1.00
H1174  H     0.16830   0.47834   0.90279   0.00000  Uiso   1.00
H1175  H     0.20794   0.45718   0.92965   0.00000  Uiso   1.00
O1176  O     0.16667   0.50000   0.75000   0.00000  Uiso   1.00
O1177  O     0.15693   0.45726   0.66625   0.00000  Uiso   1.00
O1178  O     0.12687   0.53979   0.83749   0.00000  Uiso   1.00
O1179  O     0.21088   0.50826   0.65877   0.00000  Uiso   1.00
O1180  O     0.17198   0.49468   0.83749   0.00000  Uiso   1.00
O1181  O     0.22027   0.64830   0.66849   0.00000  Uiso   1.00
O1182  O     0.22999   0.37929   0.70003   0.00000  Uiso   1.00
O1183  O     0.08174   0.47055   0.59188   0.00000  Uiso   1.00
O1184  O     0.07970   0.53964   0.61221   0.00000  Uiso   1.00
O1185  O     0.17849   0.41434   0.77821   0.00000  Uiso   1.00
O1186  O     0.14581   0.59469   0.76767   0.00000  Uiso   1.00
O1187  O     0.07452   0.46584   0.73607   0.00000  Uiso   1.00
O1188  O     0.26785   0.52512   0.71806   0.00000  Uiso   1.00
O1189  O     0.06990   0.52293   0.77820   0.00000  Uiso   1.00
O1190  O     0.25440   0.48610   0.76768   0.00000  Uiso   1.00
O1191  O     0.13800   0.40236   0.73607   0.00000  Uiso   1.00
O1192  O     0.20437   0.58860   0.71806   0.00000  Uiso   1.00
Zn1193 Zn    0.19244   0.47423   0.78278   0.00000  Uiso   1.00
Zn1194 Zn    0.13459   0.45711   0.72258   0.00000  Uiso   1.00
Zn1195 Zn    0.21166   0.52997   0.71188   0.00000  Uiso   1.00
Zn1196 Zn    0.12798   0.53868   0.78277   0.00000  Uiso   1.00
C1197  C     0.38632   0.49376   0.75826   0.00000  Uiso   1.00
C1198  C     0.52958   0.46198   0.96116   0.00000  Uiso   1.00
C1199  C     0.54780   0.43985   0.98167   0.00000  Uiso   1.00
C1200  C     0.61422   0.50656   0.74161   0.00000  Uiso   1.00
C1201  C     0.53888   0.44722   0.52226   0.00000  Uiso   1.00
C1202  C     0.51073   0.47719   0.54275   0.00000  Uiso   1.00
C1203  C     0.55903   0.42603   0.54258   0.00000  Uiso   1.00
C1204  C     0.55324   0.43596   0.58280   0.00000  Uiso   1.00
C1205  C     0.51009   0.49032   0.58206   0.00000  Uiso   1.00
C1206  C     0.65964   0.50761   0.73908   0.00000  Uiso   1.00
C1207  C     0.34069   0.48984   0.76453   0.00000  Uiso   1.00
C1208  C     0.45151   0.56514   0.91886   0.00000  Uiso   1.00
C1209  C     0.51288   0.65498   0.73483   0.00000  Uiso   1.00
C1210  C     0.48700   0.34574   0.76226   0.00000  Uiso   1.00
C1211  C     0.48865   0.38967   0.75979   0.00000  Uiso   1.00
C1212  C     0.50977   0.61083   0.74060   0.00000  Uiso   1.00
C1213  C     0.52163   0.47839   0.64426   0.00000  Uiso   1.00
C1214  C     0.47917   0.52118   0.85607   0.00000  Uiso   1.00
C1215  C     0.47128   0.53018   0.89884   0.00000  Uiso   1.00
C1216  C     0.52989   0.46902   0.60212   0.00000  Uiso   1.00
C1217  C     0.44446   0.57342   0.95968   0.00000  Uiso   1.00
C1218  C     0.38520   0.55046   0.53865   0.00000  Uiso   1.00
C1219  C     0.48625   0.50477   0.91933   0.00000  Uiso   1.00
C1220  C     0.35166   0.51221   0.53943   0.00000  Uiso   1.00
C1221  C     0.63960   0.52510   0.55422   0.00000  Uiso   1.00
C1222  C     0.64564   0.46782   0.79989   0.00000  Uiso   1.00
C1223  C     0.33670   0.45239   0.82549   0.00000  Uiso   1.00
C1224  C     0.63906   0.43116   0.85995   0.00000  Uiso   1.00
C1225  C     0.54420   0.33801   0.69898   0.00000  Uiso   1.00
C1226  C     0.43367   0.61677   0.97844   0.00000  Uiso   1.00
C1227  C     0.46737   0.65133   0.95957   0.00000  Uiso   1.00
C1228  C     0.45627   0.36095   0.97976   0.00000  Uiso   1.00
C1229  C     0.42438   0.50654   0.58338   0.00000  Uiso   1.00
C1230  C     0.47926   0.51189   0.96027   0.00000  Uiso   1.00
C1231  C     0.45219   0.54264   0.98109   0.00000  Uiso   1.00
C1232  C     0.49802   0.48900   0.98095   0.00000  Uiso   1.00
C1233  C     0.48617   0.49457   0.52268   0.00000  Uiso   1.00
C1234  C     0.44872   0.51493   0.54249   0.00000  Uiso   1.00
C1235  C     0.43105   0.53857   0.52135   0.00000  Uiso   1.00
H1236  H     0.57937   0.40204   0.52734   0.00000  Uiso   1.00
H1237  H     0.63351   0.53944   0.58511   0.00000  Uiso   1.00
H1238  H     0.63471   0.54760   0.53545   0.00000  Uiso   1.00
H1239  H     0.61625   0.49722   0.55298   0.00000  Uiso   1.00
H1240  H     0.35612   0.49618   0.50920   0.00000  Uiso   1.00
H1241  H     0.35506   0.48961   0.55872   0.00000  Uiso   1.00
H1242  H     0.38129   0.56743   0.56832   0.00000  Uiso   1.00
H1243  H     0.37682   0.57162   0.52104   0.00000  Uiso   1.00
H1244  H     0.61725   0.45342   0.87902   0.00000  Uiso   1.00
H1245  H     0.61968   0.40379   0.84908   0.00000  Uiso   1.00
H1246  H     0.65748   0.42028   0.87780   0.00000  Uiso   1.00
H1247  H     0.34913   0.52349   0.71541   0.00000  Uiso   1.00
H1248  H     0.35870   0.42968   0.80749   0.00000  Uiso   1.00
H1249  H     0.35590   0.47917   0.83746   0.00000  Uiso   1.00
H1250  H     0.62369   0.48990   0.81918   0.00000  Uiso   1.00
H1251  H     0.62662   0.44013   0.78898   0.00000  Uiso   1.00
H1252  H     0.58370   0.38630   0.67383   0.00000  Uiso   1.00
H1253  H     0.42336   0.36582   0.97969   0.00000  Uiso   1.00
H1254  H     0.45850   0.36427   0.51055   0.00000  Uiso   1.00
H1255  H     0.47911   0.38527   0.96357   0.00000  Uiso   1.00
H1256  H     0.49949   0.64638   0.96186   0.00000  Uiso   1.00
H1257  H     0.46903   0.65088   0.92798   0.00000  Uiso   1.00
H1258  H     0.46554   0.33348   0.78863   0.00000  Uiso   1.00
H1259  H     0.40181   0.62157   0.97544   0.00000  Uiso   1.00
H1260  H     0.43245   0.62021   0.51014   0.00000  Uiso   1.00
H1261  H     0.39686   0.52981   0.63879   0.00000  Uiso   1.00
H1262  H     0.49456   0.51722   0.59763   0.00000  Uiso   1.00
H1263  H     0.56798   0.41884   0.59859   0.00000  Uiso   1.00
H1264  H     0.57058   0.41828   0.96544   0.00000  Uiso   1.00
H1265  H     0.44284   0.58673   0.90252   0.00000  Uiso   1.00
H1266  H     0.50164   0.47834   0.90279   0.00000  Uiso   1.00
H1267  H     0.54127   0.45718   0.92965   0.00000  Uiso   1.00
O1268  O     0.50000   0.50000   0.75000   0.00000  Uiso   1.00
O1269  O     0.49027   0.45726   0.66625   0.00000  Uiso   1.00
O1270  O     0.46020   0.53979   0.83749   0.00000  Uiso   1.00
O1271  O     0.54421   0.50826   0.65877   0.00000  Uiso   1.00
O1272  O     0.50532   0.49468   0.83749   0.00000  Uiso   1.00
O1273  O     0.55360   0.64830   0.66849   0.00000  Uiso   1.00
O1274  O     0.56332   0.37929   0.70003   0.00000  Uiso   1.00
O1275  O     0.41508   0.47055   0.59188   0.00000  Uiso   1.00
O1276  O     0.41303   0.53964   0.61221   0.00000  Uiso   1.00
O1277  O     0.51182   0.41434   0.77821   0.00000  Uiso   1.00
O1278  O     0.47914   0.59469   0.76767   0.00000  Uiso   1.00
O1279  O     0.40785   0.46584   0.73607   0.00000  Uiso   1.00
O1280  O     0.60119   0.52512   0.71806   0.00000  Uiso   1.00
O1281  O     0.40323   0.52293   0.77820   0.00000  Uiso   1.00
O1282  O     0.58773   0.48610   0.76768   0.00000  Uiso   1.00
O1283  O     0.47133   0.40236   0.73607   0.00000  Uiso   1.00
O1284  O     0.53771   0.58860   0.71806   0.00000  Uiso   1.00
Zn1285 Zn    0.52577   0.47423   0.78278   0.00000  Uiso   1.00
Zn1286 Zn    0.46792   0.45711   0.72258   0.00000  Uiso   1.00
Zn1287 Zn    0.54500   0.52997   0.71188   0.00000  Uiso   1.00
Zn1288 Zn    0.46131   0.53868   0.78277   0.00000  Uiso   1.00
C1289  C     0.71965   0.49376   0.75826   0.00000  Uiso   1.00
C1290  C     0.86292   0.46198   0.96116   0.00000  Uiso   1.00
C1291  C     0.88113   0.43985   0.98167   0.00000  Uiso   1.00
C1292  C     0.94755   0.50656   0.74161   0.00000  Uiso   1.00
C1293  C     0.87221   0.44722   0.52226   0.00000  Uiso   1.00
C1294  C     0.84406   0.47719   0.54275   0.00000  Uiso   1.00
C1295  C     0.89236   0.42603   0.54258   0.00000  Uiso   1.00
C1296  C     0.88658   0.43596   0.58280   0.00000  Uiso   1.00
C1297  C     0.84342   0.49032   0.58206   0.00000  Uiso   1.00
C1298  C     0.99297   0.50761   0.73908   0.00000  Uiso   1.00
C1299  C     0.67403   0.48984   0.76453   0.00000  Uiso   1.00
C1300  C     0.78484   0.56514   0.91886   0.00000  Uiso   1.00
C1301  C     0.84621   0.65498   0.73483   0.00000  Uiso   1.00
C1302  C     0.82033   0.34574   0.76226   0.00000  Uiso   1.00
C1303  C     0.82199   0.38967   0.75979   0.00000  Uiso   1.00
C1304  C     0.84310   0.61083   0.74060   0.00000  Uiso   1.00
C1305  C     0.85496   0.47839   0.64426   0.00000  Uiso   1.00
C1306  C     0.81251   0.52118   0.85607   0.00000  Uiso   1.00
C1307  C     0.80461   0.53018   0.89884   0.00000  Uiso   1.00
C1308  C     0.86323   0.46902   0.60212   0.00000  Uiso   1.00
C1309  C     0.77779   0.57342   0.95968   0.00000  Uiso   1.00
C1310  C     0.71854   0.55046   0.53865   0.00000  Uiso   1.00
C1311  C     0.81959   0.50477   0.91933   0.00000  Uiso   1.00
C1312  C     0.68499   0.51221   0.53943   0.00000  Uiso   1.00
C1313  C     0.97293   0.52510   0.55422   0.00000  Uiso   1.00
C1314  C     0.97897   0.46782   0.79989   0.00000  Uiso   1.00
C1315  C     0.67003   0.45239   0.82549   0.00000  Uiso   1.00
C1316  C     0.97239   0.43116   0.85995   0.00000  Uiso   1.00
C1317  C     0.87754   0.33801   0.69898   0.00000  Uiso   1.00
C1318  C     0.76701   0.61677   0.97844   0.00000  Uiso   1.00
C1319  C     0.80071   0.65133   0.95957   0.00000  Uiso   1.00
C1320  C     0.78961   0.36095   0.97976   0.00000  Uiso   1.00
C1321  C     0.75771   0.50654   0.58338   0.00000  Uiso   1.00
C1322  C     0.81259   0.51189   0.96027   0.00000  Uiso   1.00
C1323  C     0.78553   0.54264   0.98109   0.00000  Uiso   1.00
C1324  C     0.83135   0.48900   0.98095   0.00000  Uiso   1.00
C1325  C     0.81950   0.49457   0.52268   0.00000  Uiso   1.00
C1326  C     0.78206   0.51493   0.54249   0.00000  Uiso   1.00
C1327  C     0.76438   0.53857   0.52135   0.00000  Uiso   1.00
H1328  H     0.91270   0.40204   0.52734   0.00000  Uiso   1.00
H1329  H     0.96684   0.53944   0.58511   0.00000  Uiso   1.00
H1330  H     0.96804   0.54760   0.53545   0.00000  Uiso   1.00
H1331  H     0.94958   0.49722   0.55298   0.00000  Uiso   1.00
H1332  H     0.68945   0.49618   0.50920   0.00000  Uiso   1.00
H1333  H     0.68840   0.48961   0.55872   0.00000  Uiso   1.00
H1334  H     0.71463   0.56743   0.56832   0.00000  Uiso   1.00
H1335  H     0.71015   0.57162   0.52104   0.00000  Uiso   1.00
H1336  H     0.95058   0.45342   0.87902   0.00000  Uiso   1.00
H1337  H     0.95301   0.40379   0.84908   0.00000  Uiso   1.00
H1338  H     0.99081   0.42028   0.87780   0.00000  Uiso   1.00
H1339  H     0.68247   0.52349   0.71541   0.00000  Uiso   1.00
H1340  H     0.69204   0.42968   0.80749   0.00000  Uiso   1.00
H1341  H     0.68923   0.47917   0.83746   0.00000  Uiso   1.00
H1342  H     0.95703   0.48990   0.81918   0.00000  Uiso   1.00
H1343  H     0.95996   0.44013   0.78898   0.00000  Uiso   1.00
H1344  H     0.91703   0.38630   0.67383   0.00000  Uiso   1.00
H1345  H     0.75670   0.36582   0.97969   0.00000  Uiso   1.00
H1346  H     0.79183   0.36427   0.51055   0.00000  Uiso   1.00
H1347  H     0.81244   0.38527   0.96357   0.00000  Uiso   1.00
H1348  H     0.83282   0.64638   0.96186   0.00000  Uiso   1.00
H1349  H     0.80236   0.65088   0.92798   0.00000  Uiso   1.00
H1350  H     0.79887   0.33348   0.78863   0.00000  Uiso   1.00
H1351  H     0.73514   0.62157   0.97544   0.00000  Uiso   1.00
H1352  H     0.76579   0.62021   0.51014   0.00000  Uiso   1.00
H1353  H     0.73019   0.52981   0.63879   0.00000  Uiso   1.00
H1354  H     0.82790   0.51722   0.59763   0.00000  Uiso   1.00
H1355  H     0.90131   0.41884   0.59859   0.00000  Uiso   1.00
H1356  H     0.90391   0.41828   0.96544   0.00000  Uiso   1.00
H1357  H     0.77618   0.58673   0.90252   0.00000  Uiso   1.00
H1358  H     0.83497   0.47834   0.90279   0.00000  Uiso   1.00
H1359  H     0.87461   0.45718   0.92965   0.00000  Uiso   1.00
O1360  O     0.83333   0.50000   0.75000   0.00000  Uiso   1.00
O1361  O     0.82360   0.45726   0.66625   0.00000  Uiso   1.00
O1362  O     0.79354   0.53979   0.83749   0.00000  Uiso   1.00
O1363  O     0.87755   0.50826   0.65877   0.00000  Uiso   1.00
O1364  O     0.83865   0.49468   0.83749   0.00000  Uiso   1.00
O1365  O     0.88694   0.64830   0.66849   0.00000  Uiso   1.00
O1366  O     0.89665   0.37929   0.70003   0.00000  Uiso   1.00
O1367  O     0.74841   0.47055   0.59188   0.00000  Uiso   1.00
O1368  O     0.74636   0.53964   0.61221   0.00000  Uiso   1.00
O1369  O     0.84515   0.41434   0.77821   0.00000  Uiso   1.00
O1370  O     0.81247   0.59469   0.76767   0.00000  Uiso   1.00
O1371  O     0.74119   0.46584   0.73607   0.00000  Uiso   1.00
O1372  O     0.93452   0.52512   0.71806   0.00000  Uiso   1.00
O1373  O     0.73656   0.52293   0.77820   0.00000  Uiso   1.00
O1374  O     0.92106   0.48610   0.76768   0.00000  Uiso   1.00
O1375  O     0.80467   0.40236   0.73607   0.00000  Uiso   1.00
O1376  O     0.87104   0.58860   0.71806   0.00000  Uiso   1.00
Zn1377 Zn    0.85910   0.47423   0.78278   0.00000  Uiso   1.00
Zn1378 Zn    0.80125   0.45711   0.72258   0.00000  Uiso   1.00
Zn1379 Zn    0.87833   0.52997   0.71188   0.00000  Uiso   1.00
Zn1380 Zn    0.79465   0.53868   0.78277   0.00000  Uiso   1.00
C1381  C     0.05298   0.82709   0.75826   0.00000  Uiso   1.00
C1382  C     0.19625   0.79532   0.96116   0.00000  Uiso   1.00
C1383  C     0.21446   0.77318   0.98167   0.00000  Uiso   1.00
C1384  C     0.28089   0.83989   0.74161   0.00000  Uiso   1.00
C1385  C     0.20555   0.78056   0.52226   0.00000  Uiso   1.00
C1386  C     0.17739   0.81053   0.54275   0.00000  Uiso   1.00
C1387  C     0.22570   0.75936   0.54258   0.00000  Uiso   1.00
C1388  C     0.21991   0.76929   0.58280   0.00000  Uiso   1.00
C1389  C     0.17676   0.82365   0.58206   0.00000  Uiso   1.00
C1390  C     0.32631   0.84095   0.73908   0.00000  Uiso   1.00
C1391  C     0.00736   0.82318   0.76453   0.00000  Uiso   1.00
C1392  C     0.11817   0.89847   0.91886   0.00000  Uiso   1.00
C1393  C     0.17954   0.98831   0.73483   0.00000  Uiso   1.00
C1394  C     0.15366   0.67908   0.76226   0.00000  Uiso   1.00
C1395  C     0.15532   0.72300   0.75979   0.00000  Uiso   1.00
C1396  C     0.17643   0.94416   0.74060   0.00000  Uiso   1.00
C1397  C     0.18830   0.81173   0.64426   0.00000  Uiso   1.00
C1398  C     0.14584   0.85452   0.85607   0.00000  Uiso   1.00
C1399  C     0.13795   0.86351   0.89884   0.00000  Uiso   1.00
C1400  C     0.19656   0.80235   0.60212   0.00000  Uiso   1.00
C1401  C     0.11113   0.90675   0.95968   0.00000  Uiso   1.00
C1402  C     0.05187   0.88379   0.53865   0.00000  Uiso   1.00
C1403  C     0.15292   0.83811   0.91933   0.00000  Uiso   1.00
C1404  C     0.01833   0.84554   0.53943   0.00000  Uiso   1.00
C1405  C     0.30626   0.85843   0.55422   0.00000  Uiso   1.00
C1406  C     0.31231   0.80115   0.79989   0.00000  Uiso   1.00
C1407  C     0.00336   0.78572   0.82549   0.00000  Uiso   1.00
C1408  C     0.30572   0.76449   0.85995   0.00000  Uiso   1.00
C1409  C     0.21087   0.67135   0.69898   0.00000  Uiso   1.00
C1410  C     0.10034   0.95010   0.97844   0.00000  Uiso   1.00
C1411  C     0.13404   0.98466   0.95957   0.00000  Uiso   1.00
C1412  C     0.12294   0.69428   0.97976   0.00000  Uiso   1.00
C1413  C     0.09105   0.83987   0.58338   0.00000  Uiso   1.00
C1414  C     0.14592   0.84523   0.96027   0.00000  Uiso   1.00
C1415  C     0.11886   0.87597   0.98109   0.00000  Uiso   1.00
C1416  C     0.16469   0.82234   0.98095   0.00000  Uiso   1.00
C1417  C     0.15283   0.82790   0.52268   0.00000  Uiso   1.00
C1418  C     0.11539   0.84826   0.54249   0.00000  Uiso   1.00
C1419  C     0.09772   0.87191   0.52135   0.00000  Uiso   1.00
H1420  H     0.24603   0.73537   0.52734   0.00000  Uiso   1.00
H1421  H     0.30018   0.87277   0.58511   0.00000  Uiso   1.00
H1422  H     0.30138   0.88093   0.53545   0.00000  Uiso   1.00
H1423  H     0.28291   0.83055   0.55298   0.00000  Uiso   1.00
H1424  H     0.02278   0.82952   0.50920   0.00000  Uiso   1.00
H1425  H     0.02173   0.82294   0.55872   0.00000  Uiso   1.00
H1426  H     0.04796   0.90076   0.56832   0.00000  Uiso   1.00
H1427  H     0.04349   0.90495   0.52104   0.00000  Uiso   1.00
H1428  H     0.28391   0.78676   0.87902   0.00000  Uiso   1.00
H1429  H     0.28635   0.73712   0.84908   0.00000  Uiso   1.00
H1430  H     0.32415   0.75361   0.87780   0.00000  Uiso   1.00
H1431  H     0.01580   0.85682   0.71541   0.00000  Uiso   1.00
H1432  H     0.02537   0.76301   0.80749   0.00000  Uiso   1.00
H1433  H     0.02257   0.81250   0.83746   0.00000  Uiso   1.00
H1434  H     0.29036   0.82324   0.81918   0.00000  Uiso   1.00
H1435  H     0.29329   0.77346   0.78898   0.00000  Uiso   1.00
H1436  H     0.25036   0.71963   0.67383   0.00000  Uiso   1.00
H1437  H     0.09003   0.69915   0.97969   0.00000  Uiso   1.00
H1438  H     0.12517   0.69761   0.51055   0.00000  Uiso   1.00
H1439  H     0.14577   0.71861   0.96357   0.00000  Uiso   1.00
H1440  H     0.16615   0.97972   0.96186   0.00000  Uiso   1.00
H1441  H     0.13570   0.98421   0.92798   0.00000  Uiso   1.00
H1442  H     0.13221   0.66681   0.78863   0.00000  Uiso   1.00
H1443  H     0.06847   0.95490   0.97544   0.00000  Uiso   1.00
H1444  H     0.09912   0.95354   0.51014   0.00000  Uiso   1.00
H1445  H     0.06353   0.86314   0.63879   0.00000  Uiso   1.00
H1446  H     0.16123   0.85055   0.59763   0.00000  Uiso   1.00
H1447  H     0.23465   0.75217   0.59859   0.00000  Uiso   1.00
H1448  H     0.23725   0.75162   0.96544   0.00000  Uiso   1.00
H1449  H     0.10951   0.92007   0.90252   0.00000  Uiso   1.00
H1450  H     0.16830   0.81168   0.90279   0.00000  Uiso   1.00
H1451  H     0.20794   0.79051   0.92965   0.00000  Uiso   1.00
O1452  O     0.16667   0.83333   0.75000   0.00000  Uiso   1.00
O1453  O     0.15693   0.79060   0.66625   0.00000  Uiso   1.00
O1454  O     0.12687   0.87313   0.83749   0.00000  Uiso   1.00
O1455  O     0.21088   0.84159   0.65877   0.00000  Uiso   1.00
O1456  O     0.17198   0.82802   0.83749   0.00000  Uiso   1.00
O1457  O     0.22027   0.98164   0.66849   0.00000  Uiso   1.00
O1458  O     0.22999   0.71262   0.70003   0.00000  Uiso   1.00
O1459  O     0.08174   0.80388   0.59188   0.00000  Uiso   1.00
O1460  O     0.07970   0.87297   0.61221   0.00000  Uiso   1.00
O1461  O     0.17849   0.74768   0.77821   0.00000  Uiso   1.00
O1462  O     0.14581   0.92803   0.76767   0.00000  Uiso   1.00
O1463  O     0.07452   0.79917   0.73607   0.00000  Uiso   1.00
O1464  O     0.26785   0.85845   0.71806   0.00000  Uiso   1.00
O1465  O     0.06990   0.85627   0.77820   0.00000  Uiso   1.00
O1466  O     0.25440   0.81944   0.76768   0.00000  Uiso   1.00
O1467  O     0.13800   0.73570   0.73607   0.00000  Uiso   1.00
O1468  O     0.20437   0.92193   0.71806   0.00000  Uiso   1.00
Zn1469 Zn    0.19244   0.80756   0.78278   0.00000  Uiso   1.00
Zn1470 Zn    0.13459   0.79044   0.72258   0.00000  Uiso   1.00
Zn1471 Zn    0.21166   0.86331   0.71188   0.00000  Uiso   1.00
Zn1472 Zn    0.12798   0.87202   0.78277   0.00000  Uiso   1.00
C1473  C     0.38632   0.82709   0.75826   0.00000  Uiso   1.00
C1474  C     0.52958   0.79532   0.96116   0.00000  Uiso   1.00
C1475  C     0.54780   0.77318   0.98167   0.00000  Uiso   1.00
C1476  C     0.61422   0.83989   0.74161   0.00000  Uiso   1.00
C1477  C     0.53888   0.78056   0.52226   0.00000  Uiso   1.00
C1478  C     0.51073   0.81053   0.54275   0.00000  Uiso   1.00
C1479  C     0.55903   0.75936   0.54258   0.00000  Uiso   1.00
C1480  C     0.55324   0.76929   0.58280   0.00000  Uiso   1.00
C1481  C     0.51009   0.82365   0.58206   0.00000  Uiso   1.00
C1482  C     0.65964   0.84095   0.73908   0.00000  Uiso   1.00
C1483  C     0.34069   0.82318   0.76453   0.00000  Uiso   1.00
C1484  C     0.45151   0.89847   0.91886   0.00000  Uiso   1.00
C1485  C     0.51288   0.98831   0.73483   0.00000  Uiso   1.00
C1486  C     0.48700   0.67908   0.76226   0.00000  Uiso   1.00
C1487  C     0.48865   0.72300   0.75979   0.00000  Uiso   1.00
C1488  C     0.50977   0.94416   0.74060   0.00000  Uiso   1.00
C1489  C     0.52163   0.81173   0.64426   0.00000  Uiso   1.00
C1490  C     0.47917   0.85452   0.85607   0.00000  Uiso   1.00
C1491  C     0.47128   0.86351   0.89884   0.00000  Uiso   1.00
C1492  C     0.52989   0.80235   0.60212   0.00000  Uiso   1.00
C1493  C     0.44446   0.90675   0.95968   0.00000  Uiso   1.00
C1494  C     0.38520   0.88379   0.53865   0.00000  Uiso   1.00
C1495  C     0.48625   0.83811   0.91933   0.00000  Uiso   1.00
C1496  C     0.35166   0.84554   0.53943   0.00000  Uiso   1.00
C1497  C     0.63960   0.85843   0.55422   0.00000  Uiso   1.00
C1498  C     0.64564   0.80115   0.79989   0.00000  Uiso   1.00
C1499  C     0.33670   0.78572   0.82549   0.00000  Uiso   1.00
C1500  C     0.63906   0.76449   0.85995   0.00000  Uiso   1.00
C1501  C     0.54420   0.67135   0.69898   0.00000  Uiso   1.00
C1502  C     0.43367   0.95010   0.97844   0.00000  Uiso   1.00
C1503  C     0.46737   0.98466   0.95957   0.00000  Uiso   1.00
C1504  C     0.45627   0.69428   0.97976   0.00000  Uiso   1.00
C1505  C     0.42438   0.83987   0.58338   0.00000  Uiso   1.00
C1506  C     0.47926   0.84523   0.96027   0.00000  Uiso   1.00
C1507  C     0.45219   0.87597   0.98109   0.00000  Uiso   1.00
C1508  C     0.49802   0.82234   0.98095   0.00000  Uiso   1.00
C1509  C     0.48617   0.82790   0.52268   0.00000  Uiso   1.00
C1510  C     0.44872   0.84826   0.54249   0.00000  Uiso   1.00
C1511  C     0.43105   0.87191   0.52135   0.00000  Uiso   1.00
H1512  H     0.57937   0.73537   0.52734   0.00000  Uiso   1.00
H1513  H     0.63351   0.87277   0.58511   0.00000  Uiso   1.00
H1514  H     0.63471   0.88093   0.53545   0.00000  Uiso   1.00
H1515  H     0.61625   0.83055   0.55298   0.00000  Uiso   1.00
H1516  H     0.35612   0.82952   0.50920   0.00000  Uiso   1.00
H1517  H     0.35506   0.82294   0.55872   0.00000  Uiso   1.00
H1518  H     0.38129   0.90076   0.56832   0.00000  Uiso   1.00
H1519  H     0.37682   0.90495   0.52104   0.00000  Uiso   1.00
H1520  H     0.61725   0.78676   0.87902   0.00000  Uiso   1.00
H1521  H     0.61968   0.73712   0.84908   0.00000  Uiso   1.00
H1522  H     0.65748   0.75361   0.87780   0.00000  Uiso   1.00
H1523  H     0.34913   0.85682   0.71541   0.00000  Uiso   1.00
H1524  H     0.35870   0.76301   0.80749   0.00000  Uiso   1.00
H1525  H     0.35590   0.81250   0.83746   0.00000  Uiso   1.00
H1526  H     0.62369   0.82324   0.81918   0.00000  Uiso   1.00
H1527  H     0.62662   0.77346   0.78898   0.00000  Uiso   1.00
H1528  H     0.58370   0.71963   0.67383   0.00000  Uiso   1.00
H1529  H     0.42336   0.69915   0.97969   0.00000  Uiso   1.00
H1530  H     0.45850   0.69761   0.51055   0.00000  Uiso   1.00
H1531  H     0.47911   0.71861   0.96357   0.00000  Uiso   1.00
H1532  H     0.49949   0.97972   0.96186   0.00000  Uiso   1.00
H1533  H     0.46903   0.98421   0.92798   0.00000  Uiso   1.00
H1534  H     0.46554   0.66681   0.78863   0.00000  Uiso   1.00
H1535  H     0.40181   0.95490   0.97544   0.00000  Uiso   1.00
H1536  H     0.43245   0.95354   0.51014   0.00000  Uiso   1.00
H1537  H     0.39686   0.86314   0.63879   0.00000  Uiso   1.00
H1538  H     0.49456   0.85055   0.59763   0.00000  Uiso   1.00
H1539  H     0.56798   0.75217   0.59859   0.00000  Uiso   1.00
H1540  H     0.57058   0.75162   0.96544   0.00000  Uiso   1.00
H1541  H     0.44284   0.92007   0.90252   0.00000  Uiso   1.00
H1542  H     0.50164   0.81168   0.90279   0.00000  Uiso   1.00
H1543  H     0.54127   0.79051   0.92965   0.00000  Uiso   1.00
O1544  O     0.50000   0.83333   0.75000   0.00000  Uiso   1.00
O1545  O     0.49027   0.79060   0.66625   0.00000  Uiso   1.00
O1546  O     0.46020   0.87313   0.83749   0.00000  Uiso   1.00
O1547  O     0.54421   0.84159   0.65877   0.00000  Uiso   1.00
O1548  O     0.50532   0.82802   0.83749   0.00000  Uiso   1.00
O1549  O     0.55360   0.98164   0.66849   0.00000  Uiso   1.00
O1550  O     0.56332   0.71262   0.70003   0.00000  Uiso   1.00
O1551  O     0.41508   0.80388   0.59188   0.00000  Uiso   1.00
O1552  O     0.41303   0.87297   0.61221   0.00000  Uiso   1.00
O1553  O     0.51182   0.74768   0.77821   0.00000  Uiso   1.00
O1554  O     0.47914   0.92803   0.76767   0.00000  Uiso   1.00
O1555  O     0.40785   0.79917   0.73607   0.00000  Uiso   1.00
O1556  O     0.60119   0.85845   0.71806   0.00000  Uiso   1.00
O1557  O     0.40323   0.85627   0.77820   0.00000  Uiso   1.00
O1558  O     0.58773   0.81944   0.76768   0.00000  Uiso   1.00
O1559  O     0.47133   0.73570   0.73607   0.00000  Uiso   1.00
O1560  O     0.53771   0.92193   0.71806   0.00000  Uiso   1.00
Zn1561 Zn    0.52577   0.80756   0.78278   0.00000  Uiso   1.00
Zn1562 Zn    0.46792   0.79044   0.72258   0.00000  Uiso   1.00
Zn1563 Zn    0.54500   0.86331   0.71188   0.00000  Uiso   1.00
Zn1564 Zn    0.46131   0.87202   0.78277   0.00000  Uiso   1.00
C1565  C     0.71965   0.82709   0.75826   0.00000  Uiso   1.00
C1566  C     0.86292   0.79532   0.96116   0.00000  Uiso   1.00
C1567  C     0.88113   0.77318   0.98167   0.00000  Uiso   1.00
C1568  C     0.94755   0.83989   0.74161   0.00000  Uiso   1.00
C1569  C     0.87221   0.78056   0.52226   0.00000  Uiso   1.00
C1570  C     0.84406   0.81053   0.54275   0.00000  Uiso   1.00
C1571  C     0.89236   0.75936   0.54258   0.00000  Uiso   1.00
C1572  C     0.88658   0.76929   0.58280   0.00000  Uiso   1.00
C1573  C     0.84342   0.82365   0.58206   0.00000  Uiso   1.00
C1574  C     0.99297   0.84095   0.73908   0.00000  Uiso   1.00
C1575  C     0.67403   0.82318   0.76453   0.00000  Uiso   1.00
C1576  C     0.78484   0.89847   0.91886   0.00000  Uiso   1.00
C1577  C     0.84621   0.98831   0.73483   0.00000  Uiso   1.00
C1578  C     0.82033   0.67908   0.76226   0.00000  Uiso   1.00
C1579  C     0.82199   0.72300   0.75979   0.00000  Uiso   1.00
C1580  C     0.84310   0.94416   0.74060   0.00000  Uiso   1.00
C1581  C     0.85496   0.81173   0.64426   0.00000  Uiso   1.00
C1582  C     0.81251   0.85452   0.85607   0.00000  Uiso   1.00
C1583  C     0.80461   0.86351   0.89884   0.00000  Uiso   1.00
C1584  C     0.86323   0.80235   0.60212   0.00000  Uiso   1.00
C1585  C     0.77779   0.90675   0.95968   0.00000  Uiso   1.00
C1586  C     0.71854   0.88379   0.53865   0.00000  Uiso   1.00
C1587  C     0.81959   0.83811   0.91933   0.00000  Uiso   1.00
C1588  C     0.68499   0.84554   0.53943   0.00000  Uiso   1.00
C1589  C     0.97293   0.85843   0.55422   0.00000  Uiso   1.00
C1590  C     0.97897   0.80115   0.79989   0.00000  Uiso   1.00
C1591  C     0.67003   0.78572   0.82549   0.00000  Uiso   1.00
C1592  C     0.97239   0.76449   0.85995   0.00000  Uiso   1.00
C1593  C     0.87754   0.67135   0.69898   0.00000  Uiso   1.00
C1594  C     0.76701   0.95010   0.97844   0.00000  Uiso   1.00
C1595  C     0.80071   0.98466   0.95957   0.00000  Uiso   1.00
C1596  C     0.78961   0.69428   0.97976   0.00000  Uiso   1.00
C1597  C     0.75771   0.83987   0.58338   0.00000  Uiso   1.00
C1598  C     0.81259   0.84523   0.96027   0.00000  Uiso   1.00
C1599  C     0.78553   0.87597   0.98109   0.00000  Uiso   1.00
C1600  C     0.83135   0.82234   0.98095   0.00000  Uiso   1.00
C1601  C     0.81950   0.82790   0.52268   0.00000  Uiso   1.00
C1602  C     0.78206   0.84826   0.54249   0.00000  Uiso   1.00
C1603  C     0.76438   0.87191   0.52135   0.00000  Uiso   1.00
H1604  H     0.91270   0.73537   0.52734   0.00000  Uiso   1.00
H1605  H     0.96684   0.87277   0.58511   0.00000  Uiso   1.00
H1606  H     0.96804   0.88093   0.53545   0.00000  Uiso   1.00
H1607  H     0.94958   0.83055   0.55298   0.00000  Uiso   1.00
H1608  H     0.68945   0.82952   0.50920   0.00000  Uiso   1.00
H1609  H     0.68840   0.82294   0.55872   0.00000  Uiso   1.00
H1610  H     0.71463   0.90076   0.56832   0.00000  Uiso   1.00
H1611  H     0.71015   0.90495   0.52104   0.00000  Uiso   1.00
H1612  H     0.95058   0.78676   0.87902   0.00000  Uiso   1.00
H1613  H     0.95301   0.73712   0.84908   0.00000  Uiso   1.00
H1614  H     0.99081   0.75361   0.87780   0.00000  Uiso   1.00
H1615  H     0.68247   0.85682   0.71541   0.00000  Uiso   1.00
H1616  H     0.69204   0.76301   0.80749   0.00000  Uiso   1.00
H1617  H     0.68923   0.81250   0.83746   0.00000  Uiso   1.00
H1618  H     0.95703   0.82324   0.81918   0.00000  Uiso   1.00
H1619  H     0.95996   0.77346   0.78898   0.00000  Uiso   1.00
H1620  H     0.91703   0.71963   0.67383   0.00000  Uiso   1.00
H1621  H     0.75670   0.69915   0.97969   0.00000  Uiso   1.00
H1622  H     0.79183   0.69761   0.51055   0.00000  Uiso   1.00
H1623  H     0.81244   0.71861   0.96357   0.00000  Uiso   1.00
H1624  H     0.83282   0.97972   0.96186   0.00000  Uiso   1.00
H1625  H     0.80236   0.98421   0.92798   0.00000  Uiso   1.00
H1626  H     0.79887   0.66681   0.78863   0.00000  Uiso   1.00
H1627  H     0.73514   0.95490   0.97544   0.00000  Uiso   1.00
H1628  H     0.76579   0.95354   0.51014   0.00000  Uiso   1.00
H1629  H     0.73019   0.86314   0.63879   0.00000  Uiso   1.00
H1630  H     0.82790   0.85055   0.59763   0.00000  Uiso   1.00
H1631  H     0.90131   0.75217   0.59859   0.00000  Uiso   1.00
H1632  H     0.90391   0.75162   0.96544   0.00000  Uiso   1.00
H1633  H     0.77618   0.92007   0.90252   0.00000  Uiso   1.00
H1634  H     0.83497   0.81168   0.90279   0.00000  Uiso   1.00
H1635  H     0.87461   0.79051   0.92965   0.00000  Uiso   1.00
O1636  O     0.83333   0.83333   0.75000   0.00000  Uiso   1.00
O1637  O     0.82360   0.79060   0.66625   0.00000  Uiso   1.00
O1638  O     0.79354   0.87313   0.83749   0.00000  Uiso   1.00
O1639  O     0.87755   0.84159   0.65877   0.00000  Uiso   1.00
O1640  O     0.83865   0.82802   0.83749   0.00000  Uiso   1.00
O1641  O     0.88694   0.98164   0.66849   0.00000  Uiso   1.00
O1642  O     0.89665   0.71262   0.70003   0.00000  Uiso   1.00
O1643  O     0.74841   0.80388   0.59188   0.00000  Uiso   1.00
O1644  O     0.74636   0.87297   0.61221   0.00000  Uiso   1.00
O1645  O     0.84515   0.74768   0.77821   0.00000  Uiso   1.00
O1646  O     0.81247   0.92803   0.76767   0.00000  Uiso   1.00
O1647  O     0.74119   0.79917   0.73607   0.00000  Uiso   1.00
O1648  O     0.93452   0.85845   0.71806   0.00000  Uiso   1.00
O1649  O     0.73656   0.85627   0.77820   0.00000  Uiso   1.00
O1650  O     0.92106   0.81944   0.76768   0.00000  Uiso   1.00
O1651  O     0.80467   0.73570   0.73607   0.00000  Uiso   1.00
O1652  O     0.87104   0.92193   0.71806   0.00000  Uiso   1.00
Zn1653 Zn    0.85910   0.80756   0.78278   0.00000  Uiso   1.00
Zn1654 Zn    0.80125   0.79044   0.72258   0.00000  Uiso   1.00
Zn1655 Zn    0.87833   0.86331   0.71188   0.00000  Uiso   1.00
Zn1656 Zn    0.79465   0.87202   0.78277   0.00000  Uiso   1.00
loop_
_geom_bond_atom_site_label_1
_geom_bond_atom_site_label_2
_geom_bond_distance
_geom_bond_site_symmetry_2
_ccdc_geom_bond_type
C1     C11     1.434   .     S
C1     O85     1.269   .     A
C1     O83     1.272   .     A
C2     H71     1.076   .     S
C2     C36     1.418   .     A
C2     C3      1.385   .     A
C3     H68     1.084   .     S
C3     C833    1.387   .     S
C4     O86     1.265   .     A
C4     O84     1.290   .     A
C4     C10     1.458   .     S
C5     C6      1.418   .     A
C5     C7      1.403   .     A
C5     C831    1.387   1_554 S
C6     C9      1.405   .     A
C6     C37     1.429   .     A
C7     C8      1.392   .     A
C7     H40     1.084   .     S
C8     C20     1.396   .     A
C8     H67     1.083   .     S
C9     H66     1.080   .     S
C9     C20     1.391   .     A
C10    C103    1.357   .     S
C10    H143    1.088   .     S
C11    C194    1.357   1_455 S
C11    C210    1.533   1_455 S
C12    H69     1.083   .     S
C12    C21     1.402   .     A
C12    C19     1.396   .     A
C13    C16     1.463   .     S
C13    C290    1.341   .     S
C13    C305    1.499   .     S
C14    H62     1.087   .     S
C14    C15     1.436   .     S
C14    C565    1.341   1_545 S
C15    O81     1.274   .     A
C15    O87     1.281   .     A
C16    O82     1.283   .     A
C16    O88     1.272   .     A
C17    C20     1.447   .     S
C17    O73     1.275   .     A
C17    O75     1.280   .     A
C18    C19     1.468   .     S
C18    O74     1.280   .     A
C18    O76     1.283   .     A
C19    C23     1.392   .     A
C21    C35     1.427   .     A
C21    C30     1.521   .     S
C22    H47     1.100   .     S
C22    H46     1.108   .     S
C22    C24     1.536   .     S
C22    C39     1.533   .     S
C23    H70     1.076   .     S
C23    C34     1.404   .     A
C24    H45     1.108   .     S
C24    H44     1.112   .     S
C24    C209    1.526   1_455 S
C25    H43     1.105   .     S
C25    H41     1.111   .     S
C25    H42     1.111   .     S
C25    C116    1.526   .     S
C26    H55     1.112   .     S
C26    H54     1.112   .     S
C26    C103    1.533   .     S
C26    C119    1.541   .     S
C27    H52     1.112   .     S
C27    H53     1.112   .     S
C27    C210    1.541   1_455 S
C27    C212    1.527   1_455 S
C28    H50     1.110   .     S
C28    H49     1.111   .     S
C28    H48     1.111   .     S
C28    C119    1.527   .     S
C29    O78     1.399   .     S
C29    C565    1.499   1_545 S
C29    O629    1.223   1_545 S
C30    C31     1.536   .     S
C30    H63     1.112   .     S
C30    H892    1.111   .     S
C31    H61     1.110   .     S
C31    H60     1.112   .     S
C31    C308    1.526   .     S
C32    H57     1.111   .     S
C32    H59     1.107   .     S
C32    C583    1.526   1_545 S
C32    H886    1.111   .     S
C33    O79     1.223   .     D
C33    O80     1.398   .     S
C33    C38     1.489   .     S
C34    C35     1.419   .     A
C34    C36     1.418   .     A
C35    C867    1.419   .     S
C36    C865    1.420   .     S
C37    C38     1.431   .     A
C37    C864    1.420   1_554 S
C38    C39     1.423   .     A
C39    C863    1.419   1_554 S
H51    C194    1.088   1_455 S
H56    O78     1.014   .     S
H58    C860    1.111   1_554 S
H64    C858    1.111   1_554 S
H65    O80     1.014   .     S
O72    Zn92    1.940   .     S
O72    Zn91    1.942   .     S
O72    Zn90    1.953   .     S
O72    Zn89    1.950   .     S
O73    Zn90    1.932   .     S
O74    Zn92    1.937   .     S
O75    Zn91    1.937   .     S
O76    Zn89    1.932   .     S
O77    C305    1.223   .     S
O81    Zn89    1.933   .     S
O82    Zn92    1.932   .     S
O83    Zn90    1.938   .     S
O84    Zn91    1.943   .     S
O85    Zn92    1.944   .     S
O86    Zn89    1.939   .     S
O87    Zn90    1.932   .     S
O88    Zn91    1.931   .     S
C93    C103    1.434   .     S
C93    O177    1.269   .     A
C93    O175    1.272   .     A
C94    H163    1.076   .     S
C94    C128    1.418   .     A
C94    C95     1.385   .     A
C95    H160    1.084   .     S
C95    C925    1.387   .     S
C96    O178    1.265   .     A
C96    O176    1.290   .     A
C96    C102    1.458   .     S
C97    C98     1.418   .     A
C97    C99     1.403   .     A
C97    C923    1.387   1_554 S
C98    C101    1.405   .     A
C98    C129    1.429   .     A
C99    C100    1.392   .     A
C99    H132    1.084   .     S
C100   C112    1.396   .     A
C100   H159    1.083   .     S
C101   H158    1.080   .     S
C101   C112    1.391   .     A
C102   C195    1.357   .     S
C102   H235    1.088   .     S
C104   H161    1.083   .     S
C104   C113    1.402   .     A
C104   C111    1.396   .     A
C105   C108    1.463   .     S
C105   C382    1.341   .     S
C105   C397    1.499   .     S
C106   H154    1.087   .     S
C106   C107    1.436   .     S
C106   C657    1.341   1_545 S
C107   O173    1.274   .     A
C107   O179    1.281   .     A
C108   O174    1.283   .     A
C108   O180    1.272   .     A
C109   C112    1.447   .     S
C109   O165    1.275   .     A
C109   O167    1.280   .     A
C110   C111    1.468   .     S
C110   O166    1.280   .     A
C110   O168    1.283   .     A
C111   C115    1.392   .     A
C113   C127    1.427   .     A
C113   C122    1.521   .     S
C114   H139    1.100   .     S
C114   H138    1.108   .     S
C114   C116    1.536   .     S
C114   C131    1.533   .     S
C115   H162    1.076   .     S
C115   C126    1.404   .     A
C116   H137    1.108   .     S
C116   H136    1.112   .     S
C117   H135    1.105   .     S
C117   H133    1.111   .     S
C117   H134    1.111   .     S
C117   C208    1.526   .     S
C118   H147    1.112   .     S
C118   H146    1.112   .     S
C118   C195    1.533   .     S
C118   C211    1.541   .     S
C119   H144    1.112   .     S
C119   H145    1.112   .     S
C120   H142    1.110   .     S
C120   H141    1.111   .     S
C120   H140    1.111   .     S
C120   C211    1.527   .     S
C121   O170    1.399   .     S
C121   C657    1.499   1_545 S
C121   O721    1.223   1_545 S
C122   C123    1.536   .     S
C122   H155    1.112   .     S
C122   H984    1.111   .     S
C123   H153    1.110   .     S
C123   H152    1.112   .     S
C123   C400    1.526   .     S
C124   H149    1.111   .     S
C124   H151    1.107   .     S
C124   C675    1.526   1_545 S
C124   H978    1.111   .     S
C125   O171    1.223   .     D
C125   O172    1.398   .     S
C125   C130    1.489   .     S
C126   C127    1.419   .     A
C126   C128    1.418   .     A
C127   C959    1.419   .     S
C128   C957    1.420   .     S
C129   C130    1.431   .     A
C129   C956    1.420   1_554 S
C130   C131    1.423   .     A
C131   C955    1.419   1_554 S
H148   O170    1.014   .     S
H150   C952    1.111   1_554 S
H156   C950    1.111   1_554 S
H157   O172    1.014   .     S
O164   Zn184   1.940   .     S
O164   Zn183   1.942   .     S
O164   Zn182   1.953   .     S
O164   Zn181   1.950   .     S
O165   Zn182   1.932   .     S
O166   Zn184   1.937   .     S
O167   Zn183   1.937   .     S
O168   Zn181   1.932   .     S
O169   C397    1.223   .     S
O173   Zn181   1.933   .     S
O174   Zn184   1.932   .     S
O175   Zn182   1.938   .     S
O176   Zn183   1.943   .     S
O177   Zn184   1.944   .     S
O178   Zn181   1.939   .     S
O179   Zn182   1.932   .     S
O180   Zn183   1.931   .     S
C185   C195    1.434   .     S
C185   O269    1.269   .     A
C185   O267    1.272   .     A
C186   H255    1.076   .     S
C186   C220    1.418   .     A
C186   C187    1.385   .     A
C187   H252    1.084   .     S
C187   C1017   1.387   .     S
C188   O270    1.265   .     A
C188   O268    1.290   .     A
C188   C194    1.458   .     S
C189   C190    1.418   .     A
C189   C191    1.403   .     A
C189   C1015   1.387   1_554 S
C190   C193    1.405   .     A
C190   C221    1.429   .     A
C191   C192    1.392   .     A
C191   H224    1.084   .     S
C192   C204    1.396   .     A
C192   H251    1.083   .     S
C193   H250    1.080   .     S
C193   C204    1.391   .     A
C194   C11     1.357   1_655 S
C194   H51     1.088   1_655 S
C196   H253    1.083   .     S
C196   C205    1.402   .     A
C196   C203    1.396   .     A
C197   C200    1.463   .     S
C197   C474    1.341   .     S
C197   C489    1.499   .     S
C198   H246    1.087   .     S
C198   C199    1.436   .     S
C198   C749    1.341   1_545 S
C199   O265    1.274   .     A
C199   O271    1.281   .     A
C200   O266    1.283   .     A
C200   O272    1.272   .     A
C201   C204    1.447   .     S
C201   O257    1.275   .     A
C201   O259    1.280   .     A
C202   C203    1.468   .     S
C202   O258    1.280   .     A
C202   O260    1.283   .     A
C203   C207    1.392   .     A
C205   C219    1.427   .     A
C205   C214    1.521   .     S
C206   H231    1.100   .     S
C206   H230    1.108   .     S
C206   C208    1.536   .     S
C206   C223    1.533   .     S
C207   H254    1.076   .     S
C207   C218    1.404   .     A
C208   H229    1.108   .     S
C208   H228    1.112   .     S
C209   H227    1.105   .     S
C209   H225    1.111   .     S
C209   H226    1.111   .     S
C209   C24     1.526   1_655 S
C210   H239    1.112   .     S
C210   H238    1.112   .     S
C210   C11     1.533   1_655 S
C210   C27     1.541   1_655 S
C211   H236    1.112   .     S
C211   H237    1.112   .     S
C212   H234    1.110   .     S
C212   H233    1.111   .     S
C212   H232    1.111   .     S
C212   C27     1.527   1_655 S
C213   O262    1.399   .     S
C213   C749    1.499   1_545 S
C213   O813    1.223   1_545 S
C214   C215    1.536   .     S
C214   H247    1.112   .     S
C214   H1076   1.111   .     S
C215   H245    1.110   .     S
C215   H244    1.112   .     S
C215   C492    1.526   .     S
C216   H241    1.111   .     S
C216   H243    1.107   .     S
C216   C767    1.526   1_545 S
C216   H1070   1.111   .     S
C217   O263    1.223   .     D
C217   O264    1.398   .     S
C217   C222    1.489   .     S
C218   C219    1.419   .     A
C218   C220    1.418   .     A
C219   C1051   1.419   .     S
C220   C1049   1.420   .     S
C221   C222    1.431   .     A
C221   C1048   1.420   1_554 S
C222   C223    1.423   .     A
C223   C1047   1.419   1_554 S
H240   O262    1.014   .     S
H242   C1044   1.111   1_554 S
H248   C1042   1.111   1_554 S
H249   O264    1.014   .     S
O256   Zn276   1.940   .     S
O256   Zn275   1.942   .     S
O256   Zn274   1.953   .     S
O256   Zn273   1.950   .     S
O257   Zn274   1.932   .     S
O258   Zn276   1.937   .     S
O259   Zn275   1.937   .     S
O260   Zn273   1.932   .     S
O261   C489    1.223   .     S
O265   Zn273   1.933   .     S
O266   Zn276   1.932   .     S
O267   Zn274   1.938   .     S
O268   Zn275   1.943   .     S
O269   Zn276   1.944   .     S
O270   Zn273   1.939   .     S
O271   Zn274   1.932   .     S
O272   Zn275   1.931   .     S
C277   C287    1.434   .     S
C277   O361    1.269   .     A
C277   O359    1.272   .     A
C278   H347    1.076   .     S
C278   C312    1.418   .     A
C278   C279    1.385   .     A
C279   H344    1.084   .     S
C279   C1109   1.387   .     S
C280   O362    1.265   .     A
C280   O360    1.290   .     A
C280   C286    1.458   .     S
C281   C282    1.418   .     A
C281   C283    1.403   .     A
C281   C1107   1.387   1_554 S
C282   C285    1.405   .     A
C282   C313    1.429   .     A
C283   C284    1.392   .     A
C283   H316    1.084   .     S
C284   C296    1.396   .     A
C284   H343    1.083   .     S
C285   H342    1.080   .     S
C285   C296    1.391   .     A
C286   C379    1.357   .     S
C286   H419    1.088   .     S
C287   C470    1.357   1_455 S
C287   C486    1.533   1_455 S
C288   H345    1.083   .     S
C288   C297    1.402   .     A
C288   C295    1.396   .     A
C289   C292    1.463   .     S
C289   C566    1.341   .     S
C289   C581    1.499   .     S
C290   H338    1.087   .     S
C290   C291    1.436   .     S
C291   O357    1.274   .     A
C291   O363    1.281   .     A
C292   O358    1.283   .     A
C292   O364    1.272   .     A
C293   C296    1.447   .     S
C293   O349    1.275   .     A
C293   O351    1.280   .     A
C294   C295    1.468   .     S
C294   O350    1.280   .     A
C294   O352    1.283   .     A
C295   C299    1.392   .     A
C297   C311    1.427   .     A
C297   C306    1.521   .     S
C298   H323    1.100   .     S
C298   H322    1.108   .     S
C298   C300    1.536   .     S
C298   C315    1.533   .     S
C299   H346    1.076   .     S
C299   C310    1.404   .     A
C300   H321    1.108   .     S
C300   H320    1.112   .     S
C300   C485    1.526   1_455 S
C301   H319    1.105   .     S
C301   H317    1.111   .     S
C301   H318    1.111   .     S
C301   C392    1.526   .     S
C302   H331    1.112   .     S
C302   H330    1.112   .     S
C302   C379    1.533   .     S
C302   C395    1.541   .     S
C303   H328    1.112   .     S
C303   H329    1.112   .     S
C303   C486    1.541   1_455 S
C303   C488    1.527   1_455 S
C304   H326    1.110   .     S
C304   H325    1.111   .     S
C304   H324    1.111   .     S
C304   C395    1.527   .     S
C305   O354    1.399   .     S
C306   C307    1.536   .     S
C306   H339    1.112   .     S
C306   H1168   1.111   .     S
C307   H337    1.110   .     S
C307   H336    1.112   .     S
C307   C584    1.526   .     S
C308   H333    1.111   .     S
C308   H335    1.107   .     S
C308   H1162   1.111   .     S
C309   O355    1.223   .     D
C309   O356    1.398   .     S
C309   C314    1.489   .     S
C310   C311    1.419   .     A
C310   C312    1.418   .     A
C311   C1143   1.419   .     S
C312   C1141   1.420   .     S
C313   C314    1.431   .     A
C313   C1140   1.420   1_554 S
C314   C315    1.423   .     A
C315   C1139   1.419   1_554 S
H327   C470    1.088   1_455 S
H332   O354    1.014   .     S
H334   C1136   1.111   1_554 S
H340   C1134   1.111   1_554 S
H341   O356    1.014   .     S
O348   Zn368   1.940   .     S
O348   Zn367   1.942   .     S
O348   Zn366   1.953   .     S
O348   Zn365   1.950   .     S
O349   Zn366   1.932   .     S
O350   Zn368   1.937   .     S
O351   Zn367   1.937   .     S
O352   Zn365   1.932   .     S
O353   C581    1.223   .     S
O357   Zn365   1.933   .     S
O358   Zn368   1.932   .     S
O359   Zn366   1.938   .     S
O360   Zn367   1.943   .     S
O361   Zn368   1.944   .     S
O362   Zn365   1.939   .     S
O363   Zn366   1.932   .     S
O364   Zn367   1.931   .     S
C369   C379    1.434   .     S
C369   O453    1.269   .     A
C369   O451    1.272   .     A
C370   H439    1.076   .     S
C370   C404    1.418   .     A
C370   C371    1.385   .     A
C371   H436    1.084   .     S
C371   C1201   1.387   .     S
C372   O454    1.265   .     A
C372   O452    1.290   .     A
C372   C378    1.458   .     S
C373   C374    1.418   .     A
C373   C375    1.403   .     A
C373   C1199   1.387   1_554 S
C374   C377    1.405   .     A
C374   C405    1.429   .     A
C375   C376    1.392   .     A
C375   H408    1.084   .     S
C376   C388    1.396   .     A
C376   H435    1.083   .     S
C377   H434    1.080   .     S
C377   C388    1.391   .     A
C378   C471    1.357   .     S
C378   H511    1.088   .     S
C380   H437    1.083   .     S
C380   C389    1.402   .     A
C380   C387    1.396   .     A
C381   C384    1.463   .     S
C381   C658    1.341   .     S
C381   C673    1.499   .     S
C382   H430    1.087   .     S
C382   C383    1.436   .     S
C383   O449    1.274   .     A
C383   O455    1.281   .     A
C384   O450    1.283   .     A
C384   O456    1.272   .     A
C385   C388    1.447   .     S
C385   O441    1.275   .     A
C385   O443    1.280   .     A
C386   C387    1.468   .     S
C386   O442    1.280   .     A
C386   O444    1.283   .     A
C387   C391    1.392   .     A
C389   C403    1.427   .     A
C389   C398    1.521   .     S
C390   H415    1.100   .     S
C390   H414    1.108   .     S
C390   C392    1.536   .     S
C390   C407    1.533   .     S
C391   H438    1.076   .     S
C391   C402    1.404   .     A
C392   H413    1.108   .     S
C392   H412    1.112   .     S
C393   H411    1.105   .     S
C393   H409    1.111   .     S
C393   H410    1.111   .     S
C393   C484    1.526   .     S
C394   H423    1.112   .     S
C394   H422    1.112   .     S
C394   C471    1.533   .     S
C394   C487    1.541   .     S
C395   H420    1.112   .     S
C395   H421    1.112   .     S
C396   H418    1.110   .     S
C396   H417    1.111   .     S
C396   H416    1.111   .     S
C396   C487    1.527   .     S
C397   O446    1.399   .     S
C398   C399    1.536   .     S
C398   H431    1.112   .     S
C398   H1260   1.111   .     S
C399   H429    1.110   .     S
C399   H428    1.112   .     S
C399   C676    1.526   .     S
C400   H425    1.111   .     S
C400   H427    1.107   .     S
C400   H1254   1.111   .     S
C401   O447    1.223   .     D
C401   O448    1.398   .     S
C401   C406    1.489   .     S
C402   C403    1.419   .     A
C402   C404    1.418   .     A
C403   C1235   1.419   .     S
C404   C1233   1.420   .     S
C405   C406    1.431   .     A
C405   C1232   1.420   1_554 S
C406   C407    1.423   .     A
C407   C1231   1.419   1_554 S
H424   O446    1.014   .     S
H426   C1228   1.111   1_554 S
H432   C1226   1.111   1_554 S
H433   O448    1.014   .     S
O440   Zn460   1.940   .     S
O440   Zn459   1.942   .     S
O440   Zn458   1.953   .     S
O440   Zn457   1.950   .     S
O441   Zn458   1.932   .     S
O442   Zn460   1.937   .     S
O443   Zn459   1.937   .     S
O444   Zn457   1.932   .     S
O445   C673    1.223   .     S
O449   Zn457   1.933   .     S
O450   Zn460   1.932   .     S
O451   Zn458   1.938   .     S
O452   Zn459   1.943   .     S
O453   Zn460   1.944   .     S
O454   Zn457   1.939   .     S
O455   Zn458   1.932   .     S
O456   Zn459   1.931   .     S
C461   C471    1.434   .     S
C461   O545    1.269   .     A
C461   O543    1.272   .     A
C462   H531    1.076   .     S
C462   C496    1.418   .     A
C462   C463    1.385   .     A
C463   H528    1.084   .     S
C463   C1293   1.387   .     S
C464   O546    1.265   .     A
C464   O544    1.290   .     A
C464   C470    1.458   .     S
C465   C466    1.418   .     A
C465   C467    1.403   .     A
C465   C1291   1.387   1_554 S
C466   C469    1.405   .     A
C466   C497    1.429   .     A
C467   C468    1.392   .     A
C467   H500    1.084   .     S
C468   C480    1.396   .     A
C468   H527    1.083   .     S
C469   H526    1.080   .     S
C469   C480    1.391   .     A
C470   C287    1.357   1_655 S
C470   H327    1.088   1_655 S
C472   H529    1.083   .     S
C472   C481    1.402   .     A
C472   C479    1.396   .     A
C473   C476    1.463   .     S
C473   C750    1.341   .     S
C473   C765    1.499   .     S
C474   H522    1.087   .     S
C474   C475    1.436   .     S
C475   O541    1.274   .     A
C475   O547    1.281   .     A
C476   O542    1.283   .     A
C476   O548    1.272   .     A
C477   C480    1.447   .     S
C477   O533    1.275   .     A
C477   O535    1.280   .     A
C478   C479    1.468   .     S
C478   O534    1.280   .     A
C478   O536    1.283   .     A
C479   C483    1.392   .     A
C481   C495    1.427   .     A
C481   C490    1.521   .     S
C482   H507    1.100   .     S
C482   H506    1.108   .     S
C482   C484    1.536   .     S
C482   C499    1.533   .     S
C483   H530    1.076   .     S
C483   C494    1.404   .     A
C484   H505    1.108   .     S
C484   H504    1.112   .     S
C485   H503    1.105   .     S
C485   H501    1.111   .     S
C485   H502    1.111   .     S
C485   C300    1.526   1_655 S
C486   H515    1.112   .     S
C486   H514    1.112   .     S
C486   C287    1.533   1_655 S
C486   C303    1.541   1_655 S
C487   H512    1.112   .     S
C487   H513    1.112   .     S
C488   H510    1.110   .     S
C488   H509    1.111   .     S
C488   H508    1.111   .     S
C488   C303    1.527   1_655 S
C489   O538    1.399   .     S
C490   C491    1.536   .     S
C490   H523    1.112   .     S
C490   H1352   1.111   .     S
C491   H521    1.110   .     S
C491   H520    1.112   .     S
C491   C768    1.526   .     S
C492   H517    1.111   .     S
C492   H519    1.107   .     S
C492   H1346   1.111   .     S
C493   O539    1.223   .     D
C493   O540    1.398   .     S
C493   C498    1.489   .     S
C494   C495    1.419   .     A
C494   C496    1.418   .     A
C495   C1327   1.419   .     S
C496   C1325   1.420   .     S
C497   C498    1.431   .     A
C497   C1324   1.420   1_554 S
C498   C499    1.423   .     A
C499   C1323   1.419   1_554 S
H516   O538    1.014   .     S
H518   C1320   1.111   1_554 S
H524   C1318   1.111   1_554 S
H525   O540    1.014   .     S
O532   Zn552   1.940   .     S
O532   Zn551   1.942   .     S
O532   Zn550   1.953   .     S
O532   Zn549   1.950   .     S
O533   Zn550   1.932   .     S
O534   Zn552   1.937   .     S
O535   Zn551   1.937   .     S
O536   Zn549   1.932   .     S
O537   C765    1.223   .     S
O541   Zn549   1.933   .     S
O542   Zn552   1.932   .     S
O543   Zn550   1.938   .     S
O544   Zn551   1.943   .     S
O545   Zn552   1.944   .     S
O546   Zn549   1.939   .     S
O547   Zn550   1.932   .     S
O548   Zn551   1.931   .     S
C553   C563    1.434   .     S
C553   O637    1.269   .     A
C553   O635    1.272   .     A
C554   H623    1.076   .     S
C554   C588    1.418   .     A
C554   C555    1.385   .     A
C555   H620    1.084   .     S
C555   C1385   1.387   .     S
C556   O638    1.265   .     A
C556   O636    1.290   .     A
C556   C562    1.458   .     S
C557   C558    1.418   .     A
C557   C559    1.403   .     A
C557   C1383   1.387   1_554 S
C558   C561    1.405   .     A
C558   C589    1.429   .     A
C559   C560    1.392   .     A
C559   H592    1.084   .     S
C560   C572    1.396   .     A
C560   H619    1.083   .     S
C561   H618    1.080   .     S
C561   C572    1.391   .     A
C562   C655    1.357   .     S
C562   H695    1.088   .     S
C563   C746    1.357   1_455 S
C563   C762    1.533   1_455 S
C564   H621    1.083   .     S
C564   C573    1.402   .     A
C564   C571    1.396   .     A
C565   C568    1.463   .     S
C565   C14     1.341   1_565 S
C565   C29     1.499   1_565 S
C566   H614    1.087   .     S
C566   C567    1.436   .     S
C567   O633    1.274   .     A
C567   O639    1.281   .     A
C568   O634    1.283   .     A
C568   O640    1.272   .     A
C569   C572    1.447   .     S
C569   O625    1.275   .     A
C569   O627    1.280   .     A
C570   C571    1.468   .     S
C570   O626    1.280   .     A
C570   O628    1.283   .     A
C571   C575    1.392   .     A
C573   C587    1.427   .     A
C573   C582    1.521   .     S
C574   H599    1.100   .     S
C574   H598    1.108   .     S
C574   C576    1.536   .     S
C574   C591    1.533   .     S
C575   H622    1.076   .     S
C575   C586    1.404   .     A
C576   H597    1.108   .     S
C576   H596    1.112   .     S
C576   C761    1.526   1_455 S
C577   H595    1.105   .     S
C577   H593    1.111   .     S
C577   H594    1.111   .     S
C577   C668    1.526   .     S
C578   H607    1.112   .     S
C578   H606    1.112   .     S
C578   C655    1.533   .     S
C578   C671    1.541   .     S
C579   H604    1.112   .     S
C579   H605    1.112   .     S
C579   C762    1.541   1_455 S
C579   C764    1.527   1_455 S
C580   H602    1.110   .     S
C580   H601    1.111   .     S
C580   H600    1.111   .     S
C580   C671    1.527   .     S
C581   O630    1.399   .     S
C582   C583    1.536   .     S
C582   H615    1.112   .     S
C582   H1444   1.111   .     S
C583   H613    1.110   .     S
C583   H612    1.112   .     S
C583   C32     1.526   1_565 S
C584   H609    1.111   .     S
C584   H611    1.107   .     S
C584   H1438   1.111   .     S
C585   O631    1.223   .     D
C585   O632    1.398   .     S
C585   C590    1.489   .     S
C586   C587    1.419   .     A
C586   C588    1.418   .     A
C587   C1419   1.419   .     S
C588   C1417   1.420   .     S
C589   C590    1.431   .     A
C589   C1416   1.420   1_554 S
C590   C591    1.423   .     A
C591   C1415   1.419   1_554 S
H603   C746    1.088   1_455 S
H608   O630    1.014   .     S
H610   C1412   1.111   1_554 S
H616   C1410   1.111   1_554 S
H617   O632    1.014   .     S
O624   Zn644   1.940   .     S
O624   Zn643   1.942   .     S
O624   Zn642   1.953   .     S
O624   Zn641   1.950   .     S
O625   Zn642   1.932   .     S
O626   Zn644   1.937   .     S
O627   Zn643   1.937   .     S
O628   Zn641   1.932   .     S
O629   C29     1.223   1_565 S
O633   Zn641   1.933   .     S
O634   Zn644   1.932   .     S
O635   Zn642   1.938   .     S
O636   Zn643   1.943   .     S
O637   Zn644   1.944   .     S
O638   Zn641   1.939   .     S
O639   Zn642   1.932   .     S
O640   Zn643   1.931   .     S
C645   C655    1.434   .     S
C645   O729    1.269   .     A
C645   O727    1.272   .     A
C646   H715    1.076   .     S
C646   C680    1.418   .     A
C646   C647    1.385   .     A
C647   H712    1.084   .     S
C647   C1477   1.387   .     S
C648   O730    1.265   .     A
C648   O728    1.290   .     A
C648   C654    1.458   .     S
C649   C650    1.418   .     A
C649   C651    1.403   .     A
C649   C1475   1.387   1_554 S
C650   C653    1.405   .     A
C650   C681    1.429   .     A
C651   C652    1.392   .     A
C651   H684    1.084   .     S
C652   C664    1.396   .     A
C652   H711    1.083   .     S
C653   H710    1.080   .     S
C653   C664    1.391   .     A
C654   C747    1.357   .     S
C654   H787    1.088   .     S
C656   H713    1.083   .     S
C656   C665    1.402   .     A
C656   C663    1.396   .     A
C657   C660    1.463   .     S
C657   C106    1.341   1_565 S
C657   C121    1.499   1_565 S
C658   H706    1.087   .     S
C658   C659    1.436   .     S
C659   O725    1.274   .     A
C659   O731    1.281   .     A
C660   O726    1.283   .     A
C660   O732    1.272   .     A
C661   C664    1.447   .     S
C661   O717    1.275   .     A
C661   O719    1.280   .     A
C662   C663    1.468   .     S
C662   O718    1.280   .     A
C662   O720    1.283   .     A
C663   C667    1.392   .     A
C665   C679    1.427   .     A
C665   C674    1.521   .     S
C666   H691    1.100   .     S
C666   H690    1.108   .     S
C666   C668    1.536   .     S
C666   C683    1.533   .     S
C667   H714    1.076   .     S
C667   C678    1.404   .     A
C668   H689    1.108   .     S
C668   H688    1.112   .     S
C669   H687    1.105   .     S
C669   H685    1.111   .     S
C669   H686    1.111   .     S
C669   C760    1.526   .     S
C670   H699    1.112   .     S
C670   H698    1.112   .     S
C670   C747    1.533   .     S
C670   C763    1.541   .     S
C671   H696    1.112   .     S
C671   H697    1.112   .     S
C672   H694    1.110   .     S
C672   H693    1.111   .     S
C672   H692    1.111   .     S
C672   C763    1.527   .     S
C673   O722    1.399   .     S
C674   C675    1.536   .     S
C674   H707    1.112   .     S
C674   H1536   1.111   .     S
C675   H705    1.110   .     S
C675   H704    1.112   .     S
C675   C124    1.526   1_565 S
C676   H701    1.111   .     S
C676   H703    1.107   .     S
C676   H1530   1.111   .     S
C677   O723    1.223   .     D
C677   O724    1.398   .     S
C677   C682    1.489   .     S
C678   C679    1.419   .     A
C678   C680    1.418   .     A
C679   C1511   1.419   .     S
C680   C1509   1.420   .     S
C681   C682    1.431   .     A
C681   C1508   1.420   1_554 S
C682   C683    1.423   .     A
C683   C1507   1.419   1_554 S
H700   O722    1.014   .     S
H702   C1504   1.111   1_554 S
H708   C1502   1.111   1_554 S
H709   O724    1.014   .     S
O716   Zn736   1.940   .     S
O716   Zn735   1.942   .     S
O716   Zn734   1.953   .     S
O716   Zn733   1.950   .     S
O717   Zn734   1.932   .     S
O718   Zn736   1.937   .     S
O719   Zn735   1.937   .     S
O720   Zn733   1.932   .     S
O721   C121    1.223   1_565 S
O725   Zn733   1.933   .     S
O726   Zn736   1.932   .     S
O727   Zn734   1.938   .     S
O728   Zn735   1.943   .     S
O729   Zn736   1.944   .     S
O730   Zn733   1.939   .     S
O731   Zn734   1.932   .     S
O732   Zn735   1.931   .     S
C737   C747    1.434   .     S
C737   O821    1.269   .     A
C737   O819    1.272   .     A
C738   H807    1.076   .     S
C738   C772    1.418   .     A
C738   C739    1.385   .     A
C739   H804    1.084   .     S
C739   C1569   1.387   .     S
C740   O822    1.265   .     A
C740   O820    1.290   .     A
C740   C746    1.458   .     S
C741   C742    1.418   .     A
C741   C743    1.403   .     A
C741   C1567   1.387   1_554 S
C742   C745    1.405   .     A
C742   C773    1.429   .     A
C743   C744    1.392   .     A
C743   H776    1.084   .     S
C744   C756    1.396   .     A
C744   H803    1.083   .     S
C745   H802    1.080   .     S
C745   C756    1.391   .     A
C746   C563    1.357   1_655 S
C746   H603    1.088   1_655 S
C748   H805    1.083   .     S
C748   C757    1.402   .     A
C748   C755    1.396   .     A
C749   C752    1.463   .     S
C749   C198    1.341   1_565 S
C749   C213    1.499   1_565 S
C750   H798    1.087   .     S
C750   C751    1.436   .     S
C751   O817    1.274   .     A
C751   O823    1.281   .     A
C752   O818    1.283   .     A
C752   O824    1.272   .     A
C753   C756    1.447   .     S
C753   O809    1.275   .     A
C753   O811    1.280   .     A
C754   C755    1.468   .     S
C754   O810    1.280   .     A
C754   O812    1.283   .     A
C755   C759    1.392   .     A
C757   C771    1.427   .     A
C757   C766    1.521   .     S
C758   H783    1.100   .     S
C758   H782    1.108   .     S
C758   C760    1.536   .     S
C758   C775    1.533   .     S
C759   H806    1.076   .     S
C759   C770    1.404   .     A
C760   H781    1.108   .     S
C760   H780    1.112   .     S
C761   H779    1.105   .     S
C761   H777    1.111   .     S
C761   H778    1.111   .     S
C761   C576    1.526   1_655 S
C762   H791    1.112   .     S
C762   H790    1.112   .     S
C762   C563    1.533   1_655 S
C762   C579    1.541   1_655 S
C763   H788    1.112   .     S
C763   H789    1.112   .     S
C764   H786    1.110   .     S
C764   H785    1.111   .     S
C764   H784    1.111   .     S
C764   C579    1.527   1_655 S
C765   O814    1.399   .     S
C766   C767    1.536   .     S
C766   H799    1.112   .     S
C766   H1628   1.111   .     S
C767   H797    1.110   .     S
C767   H796    1.112   .     S
C767   C216    1.526   1_565 S
C768   H793    1.111   .     S
C768   H795    1.107   .     S
C768   H1622   1.111   .     S
C769   O815    1.223   .     D
C769   O816    1.398   .     S
C769   C774    1.489   .     S
C770   C771    1.419   .     A
C770   C772    1.418   .     A
C771   C1603   1.419   .     S
C772   C1601   1.420   .     S
C773   C774    1.431   .     A
C773   C1600   1.420   1_554 S
C774   C775    1.423   .     A
C775   C1599   1.419   1_554 S
H792   O814    1.014   .     S
H794   C1596   1.111   1_554 S
H800   C1594   1.111   1_554 S
H801   O816    1.014   .     S
O808   Zn828   1.940   .     S
O808   Zn827   1.942   .     S
O808   Zn826   1.953   .     S
O808   Zn825   1.950   .     S
O809   Zn826   1.932   .     S
O810   Zn828   1.937   .     S
O811   Zn827   1.937   .     S
O812   Zn825   1.932   .     S
O813   C213    1.223   1_565 S
O817   Zn825   1.933   .     S
O818   Zn828   1.932   .     S
O819   Zn826   1.938   .     S
O820   Zn827   1.943   .     S
O821   Zn828   1.944   .     S
O822   Zn825   1.939   .     S
O823   Zn826   1.932   .     S
O824   Zn827   1.931   .     S
C829   C839    1.434   .     S
C829   O913    1.269   .     A
C829   O911    1.272   .     A
C830   H899    1.076   .     S
C830   C864    1.418   .     A
C830   C831    1.385   .     A
C831   H896    1.084   .     S
C831   C5      1.387   1_556 S
C832   O914    1.265   .     A
C832   O912    1.290   .     A
C832   C838    1.458   .     S
C833   C834    1.418   .     A
C833   C835    1.403   .     A
C834   C837    1.405   .     A
C834   C865    1.429   .     A
C835   C836    1.392   .     A
C835   H868    1.084   .     S
C836   C848    1.396   .     A
C836   H895    1.083   .     S
C837   H894    1.080   .     S
C837   C848    1.391   .     A
C838   C931    1.357   .     S
C838   H971    1.088   .     S
C839   C1022   1.357   1_455 S
C839   C1038   1.533   1_455 S
C840   H897    1.083   .     S
C840   C849    1.402   .     A
C840   C847    1.396   .     A
C841   C844    1.463   .     S
C841   C1118   1.341   .     S
C841   C1133   1.499   .     S
C842   H890    1.087   .     S
C842   C843    1.436   .     S
C842   C1393   1.341   1_545 S
C843   O909    1.274   .     A
C843   O915    1.281   .     A
C844   O910    1.283   .     A
C844   O916    1.272   .     A
C845   C848    1.447   .     S
C845   O901    1.275   .     A
C845   O903    1.280   .     A
C846   C847    1.468   .     S
C846   O902    1.280   .     A
C846   O904    1.283   .     A
C847   C851    1.392   .     A
C849   C863    1.427   .     A
C849   C858    1.521   .     S
C850   H875    1.100   .     S
C850   H874    1.108   .     S
C850   C852    1.536   .     S
C850   C867    1.533   .     S
C851   H898    1.076   .     S
C851   C862    1.404   .     A
C852   H873    1.108   .     S
C852   H872    1.112   .     S
C852   C1037   1.526   1_455 S
C853   H871    1.105   .     S
C853   H869    1.111   .     S
C853   H870    1.111   .     S
C853   C944    1.526   .     S
C854   H883    1.112   .     S
C854   H882    1.112   .     S
C854   C931    1.533   .     S
C854   C947    1.541   .     S
C855   H880    1.112   .     S
C855   H881    1.112   .     S
C855   C1038   1.541   1_455 S
C855   C1040   1.527   1_455 S
C856   H878    1.110   .     S
C856   H877    1.111   .     S
C856   H876    1.111   .     S
C856   C947    1.527   .     S
C857   O906    1.399   .     S
C857   C1393   1.499   1_545 S
C857   O1457   1.223   1_545 S
C858   C859    1.536   .     S
C858   H891    1.112   .     S
C858   H64     1.111   1_556 S
C859   H889    1.110   .     S
C859   H888    1.112   .     S
C859   C1136   1.526   .     S
C860   H885    1.111   .     S
C860   H887    1.107   .     S
C860   C1411   1.526   1_545 S
C860   H58     1.111   1_556 S
C861   O907    1.223   .     D
C861   O908    1.398   .     S
C861   C866    1.489   .     S
C862   C863    1.419   .     A
C862   C864    1.418   .     A
C863   C39     1.419   1_556 S
C864   C37     1.420   1_556 S
C865   C866    1.431   .     A
C866   C867    1.423   .     A
H879   C1022   1.088   1_455 S
H884   O906    1.014   .     S
H893   O908    1.014   .     S
O900   Zn920   1.940   .     S
O900   Zn919   1.942   .     S
O900   Zn918   1.953   .     S
O900   Zn917   1.950   .     S
O901   Zn918   1.932   .     S
O902   Zn920   1.937   .     S
O903   Zn919   1.937   .     S
O904   Zn917   1.932   .     S
O905   C1133   1.223   .     S
O909   Zn917   1.933   .     S
O910   Zn920   1.932   .     S
O911   Zn918   1.938   .     S
O912   Zn919   1.943   .     S
O913   Zn920   1.944   .     S
O914   Zn917   1.939   .     S
O915   Zn918   1.932   .     S
O916   Zn919   1.931   .     S
C921   C931    1.434   .     S
C921   O1005   1.269   .     A
C921   O1003   1.272   .     A
C922   H991    1.076   .     S
C922   C956    1.418   .     A
C922   C923    1.385   .     A
C923   H988    1.084   .     S
C923   C97     1.387   1_556 S
C924   O1006   1.265   .     A
C924   O1004   1.290   .     A
C924   C930    1.458   .     S
C925   C926    1.418   .     A
C925   C927    1.403   .     A
C926   C929    1.405   .     A
C926   C957    1.429   .     A
C927   C928    1.392   .     A
C927   H960    1.084   .     S
C928   C940    1.396   .     A
C928   H987    1.083   .     S
C929   H986    1.080   .     S
C929   C940    1.391   .     A
C930   C1023   1.357   .     S
C930   H1063   1.088   .     S
C932   H989    1.083   .     S
C932   C941    1.402   .     A
C932   C939    1.396   .     A
C933   C936    1.463   .     S
C933   C1210   1.341   .     S
C933   C1225   1.499   .     S
C934   H982    1.087   .     S
C934   C935    1.436   .     S
C934   C1485   1.341   1_545 S
C935   O1001   1.274   .     A
C935   O1007   1.281   .     A
C936   O1002   1.283   .     A
C936   O1008   1.272   .     A
C937   C940    1.447   .     S
C937   O993    1.275   .     A
C937   O995    1.280   .     A
C938   C939    1.468   .     S
C938   O994    1.280   .     A
C938   O996    1.283   .     A
C939   C943    1.392   .     A
C941   C955    1.427   .     A
C941   C950    1.521   .     S
C942   H967    1.100   .     S
C942   H966    1.108   .     S
C942   C944    1.536   .     S
C942   C959    1.533   .     S
C943   H990    1.076   .     S
C943   C954    1.404   .     A
C944   H965    1.108   .     S
C944   H964    1.112   .     S
C945   H963    1.105   .     S
C945   H961    1.111   .     S
C945   H962    1.111   .     S
C945   C1036   1.526   .     S
C946   H975    1.112   .     S
C946   H974    1.112   .     S
C946   C1023   1.533   .     S
C946   C1039   1.541   .     S
C947   H972    1.112   .     S
C947   H973    1.112   .     S
C948   H970    1.110   .     S
C948   H969    1.111   .     S
C948   H968    1.111   .     S
C948   C1039   1.527   .     S
C949   O998    1.399   .     S
C949   C1485   1.499   1_545 S
C949   O1549   1.223   1_545 S
C950   C951    1.536   .     S
C950   H983    1.112   .     S
C950   H156    1.111   1_556 S
C951   H981    1.110   .     S
C951   H980    1.112   .     S
C951   C1228   1.526   .     S
C952   H977    1.111   .     S
C952   H979    1.107   .     S
C952   C1503   1.526   1_545 S
C952   H150    1.111   1_556 S
C953   O999    1.223   .     D
C953   O1000   1.398   .     S
C953   C958    1.489   .     S
C954   C955    1.419   .     A
C954   C956    1.418   .     A
C955   C131    1.419   1_556 S
C956   C129    1.420   1_556 S
C957   C958    1.431   .     A
C958   C959    1.423   .     A
H976   O998    1.014   .     S
H985   O1000   1.014   .     S
O992   Zn1012  1.940   .     S
O992   Zn1011  1.942   .     S
O992   Zn1010  1.953   .     S
O992   Zn1009  1.950   .     S
O993   Zn1010  1.932   .     S
O994   Zn1012  1.937   .     S
O995   Zn1011  1.937   .     S
O996   Zn1009  1.932   .     S
O997   C1225   1.223   .     S
O1001  Zn1009  1.933   .     S
O1002  Zn1012  1.932   .     S
O1003  Zn1010  1.938   .     S
O1004  Zn1011  1.943   .     S
O1005  Zn1012  1.944   .     S
O1006  Zn1009  1.939   .     S
O1007  Zn1010  1.932   .     S
O1008  Zn1011  1.931   .     S
C1013  C1023   1.434   .     S
C1013  O1097   1.269   .     A
C1013  O1095   1.272   .     A
C1014  H1083   1.076   .     S
C1014  C1048   1.418   .     A
C1014  C1015   1.385   .     A
C1015  H1080   1.084   .     S
C1015  C189    1.387   1_556 S
C1016  O1098   1.265   .     A
C1016  O1096   1.290   .     A
C1016  C1022   1.458   .     S
C1017  C1018   1.418   .     A
C1017  C1019   1.403   .     A
C1018  C1021   1.405   .     A
C1018  C1049   1.429   .     A
C1019  C1020   1.392   .     A
C1019  H1052   1.084   .     S
C1020  C1032   1.396   .     A
C1020  H1079   1.083   .     S
C1021  H1078   1.080   .     S
C1021  C1032   1.391   .     A
C1022  C839    1.357   1_655 S
C1022  H879    1.088   1_655 S
C1024  H1081   1.083   .     S
C1024  C1033   1.402   .     A
C1024  C1031   1.396   .     A
C1025  C1028   1.463   .     S
C1025  C1302   1.341   .     S
C1025  C1317   1.499   .     S
C1026  H1074   1.087   .     S
C1026  C1027   1.436   .     S
C1026  C1577   1.341   1_545 S
C1027  O1093   1.274   .     A
C1027  O1099   1.281   .     A
C1028  O1094   1.283   .     A
C1028  O1100   1.272   .     A
C1029  C1032   1.447   .     S
C1029  O1085   1.275   .     A
C1029  O1087   1.280   .     A
C1030  C1031   1.468   .     S
C1030  O1086   1.280   .     A
C1030  O1088   1.283   .     A
C1031  C1035   1.392   .     A
C1033  C1047   1.427   .     A
C1033  C1042   1.521   .     S
C1034  H1059   1.100   .     S
C1034  H1058   1.108   .     S
C1034  C1036   1.536   .     S
C1034  C1051   1.533   .     S
C1035  H1082   1.076   .     S
C1035  C1046   1.404   .     A
C1036  H1057   1.108   .     S
C1036  H1056   1.112   .     S
C1037  H1055   1.105   .     S
C1037  H1053   1.111   .     S
C1037  H1054   1.111   .     S
C1037  C852    1.526   1_655 S
C1038  H1067   1.112   .     S
C1038  H1066   1.112   .     S
C1038  C839    1.533   1_655 S
C1038  C855    1.541   1_655 S
C1039  H1064   1.112   .     S
C1039  H1065   1.112   .     S
C1040  H1062   1.110   .     S
C1040  H1061   1.111   .     S
C1040  H1060   1.111   .     S
C1040  C855    1.527   1_655 S
C1041  O1090   1.399   .     S
C1041  C1577   1.499   1_545 S
C1041  O1641   1.223   1_545 S
C1042  C1043   1.536   .     S
C1042  H1075   1.112   .     S
C1042  H248    1.111   1_556 S
C1043  H1073   1.110   .     S
C1043  H1072   1.112   .     S
C1043  C1320   1.526   .     S
C1044  H1069   1.111   .     S
C1044  H1071   1.107   .     S
C1044  C1595   1.526   1_545 S
C1044  H242    1.111   1_556 S
C1045  O1091   1.223   .     D
C1045  O1092   1.398   .     S
C1045  C1050   1.489   .     S
C1046  C1047   1.419   .     A
C1046  C1048   1.418   .     A
C1047  C223    1.419   1_556 S
C1048  C221    1.420   1_556 S
C1049  C1050   1.431   .     A
C1050  C1051   1.423   .     A
H1068  O1090   1.014   .     S
H1077  O1092   1.014   .     S
O1084  Zn1104  1.940   .     S
O1084  Zn1103  1.942   .     S
O1084  Zn1102  1.953   .     S
O1084  Zn1101  1.950   .     S
O1085  Zn1102  1.932   .     S
O1086  Zn1104  1.937   .     S
O1087  Zn1103  1.937   .     S
O1088  Zn1101  1.932   .     S
O1089  C1317   1.223   .     S
O1093  Zn1101  1.933   .     S
O1094  Zn1104  1.932   .     S
O1095  Zn1102  1.938   .     S
O1096  Zn1103  1.943   .     S
O1097  Zn1104  1.944   .     S
O1098  Zn1101  1.939   .     S
O1099  Zn1102  1.932   .     S
O1100  Zn1103  1.931   .     S
C1105  C1115   1.434   .     S
C1105  O1189   1.269   .     A
C1105  O1187   1.272   .     A
C1106  H1175   1.076   .     S
C1106  C1140   1.418   .     A
C1106  C1107   1.385   .     A
C1107  H1172   1.084   .     S
C1107  C281    1.387   1_556 S
C1108  O1190   1.265   .     A
C1108  O1188   1.290   .     A
C1108  C1114   1.458   .     S
C1109  C1110   1.418   .     A
C1109  C1111   1.403   .     A
C1110  C1113   1.405   .     A
C1110  C1141   1.429   .     A
C1111  C1112   1.392   .     A
C1111  H1144   1.084   .     S
C1112  C1124   1.396   .     A
C1112  H1171   1.083   .     S
C1113  H1170   1.080   .     S
C1113  C1124   1.391   .     A
C1114  C1207   1.357   .     S
C1114  H1247   1.088   .     S
C1115  C1298   1.357   1_455 S
C1115  C1314   1.533   1_455 S
C1116  H1173   1.083   .     S
C1116  C1125   1.402   .     A
C1116  C1123   1.396   .     A
C1117  C1120   1.463   .     S
C1117  C1394   1.341   .     S
C1117  C1409   1.499   .     S
C1118  H1166   1.087   .     S
C1118  C1119   1.436   .     S
C1119  O1185   1.274   .     A
C1119  O1191   1.281   .     A
C1120  O1186   1.283   .     A
C1120  O1192   1.272   .     A
C1121  C1124   1.447   .     S
C1121  O1177   1.275   .     A
C1121  O1179   1.280   .     A
C1122  C1123   1.468   .     S
C1122  O1178   1.280   .     A
C1122  O1180   1.283   .     A
C1123  C1127   1.392   .     A
C1125  C1139   1.427   .     A
C1125  C1134   1.521   .     S
C1126  H1151   1.100   .     S
C1126  H1150   1.108   .     S
C1126  C1128   1.536   .     S
C1126  C1143   1.533   .     S
C1127  H1174   1.076   .     S
C1127  C1138   1.404   .     A
C1128  H1149   1.108   .     S
C1128  H1148   1.112   .     S
C1128  C1313   1.526   1_455 S
C1129  H1147   1.105   .     S
C1129  H1145   1.111   .     S
C1129  H1146   1.111   .     S
C1129  C1220   1.526   .     S
C1130  H1159   1.112   .     S
C1130  H1158   1.112   .     S
C1130  C1207   1.533   .     S
C1130  C1223   1.541   .     S
C1131  H1156   1.112   .     S
C1131  H1157   1.112   .     S
C1131  C1314   1.541   1_455 S
C1131  C1316   1.527   1_455 S
C1132  H1154   1.110   .     S
C1132  H1153   1.111   .     S
C1132  H1152   1.111   .     S
C1132  C1223   1.527   .     S
C1133  O1182   1.399   .     S
C1134  C1135   1.536   .     S
C1134  H1167   1.112   .     S
C1134  H340    1.111   1_556 S
C1135  H1165   1.110   .     S
C1135  H1164   1.112   .     S
C1135  C1412   1.526   .     S
C1136  H1161   1.111   .     S
C1136  H1163   1.107   .     S
C1136  H334    1.111   1_556 S
C1137  O1183   1.223   .     D
C1137  O1184   1.398   .     S
C1137  C1142   1.489   .     S
C1138  C1139   1.419   .     A
C1138  C1140   1.418   .     A
C1139  C315    1.419   1_556 S
C1140  C313    1.420   1_556 S
C1141  C1142   1.431   .     A
C1142  C1143   1.423   .     A
H1155  C1298   1.088   1_455 S
H1160  O1182   1.014   .     S
H1169  O1184   1.014   .     S
O1176  Zn1196  1.940   .     S
O1176  Zn1195  1.942   .     S
O1176  Zn1194  1.953   .     S
O1176  Zn1193  1.950   .     S
O1177  Zn1194  1.932   .     S
O1178  Zn1196  1.937   .     S
O1179  Zn1195  1.937   .     S
O1180  Zn1193  1.932   .     S
O1181  C1409   1.223   .     S
O1185  Zn1193  1.933   .     S
O1186  Zn1196  1.932   .     S
O1187  Zn1194  1.938   .     S
O1188  Zn1195  1.943   .     S
O1189  Zn1196  1.944   .     S
O1190  Zn1193  1.939   .     S
O1191  Zn1194  1.932   .     S
O1192  Zn1195  1.931   .     S
C1197  C1207   1.434   .     S
C1197  O1281   1.269   .     A
C1197  O1279   1.272   .     A
C1198  H1267   1.076   .     S
C1198  C1232   1.418   .     A
C1198  C1199   1.385   .     A
C1199  H1264   1.084   .     S
C1199  C373    1.387   1_556 S
C1200  O1282   1.265   .     A
C1200  O1280   1.290   .     A
C1200  C1206   1.458   .     S
C1201  C1202   1.418   .     A
C1201  C1203   1.403   .     A
C1202  C1205   1.405   .     A
C1202  C1233   1.429   .     A
C1203  C1204   1.392   .     A
C1203  H1236   1.084   .     S
C1204  C1216   1.396   .     A
C1204  H1263   1.083   .     S
C1205  H1262   1.080   .     S
C1205  C1216   1.391   .     A
C1206  C1299   1.357   .     S
C1206  H1339   1.088   .     S
C1208  H1265   1.083   .     S
C1208  C1217   1.402   .     A
C1208  C1215   1.396   .     A
C1209  C1212   1.463   .     S
C1209  C1486   1.341   .     S
C1209  C1501   1.499   .     S
C1210  H1258   1.087   .     S
C1210  C1211   1.436   .     S
C1211  O1277   1.274   .     A
C1211  O1283   1.281   .     A
C1212  O1278   1.283   .     A
C1212  O1284   1.272   .     A
C1213  C1216   1.447   .     S
C1213  O1269   1.275   .     A
C1213  O1271   1.280   .     A
C1214  C1215   1.468   .     S
C1214  O1270   1.280   .     A
C1214  O1272   1.283   .     A
C1215  C1219   1.392   .     A
C1217  C1231   1.427   .     A
C1217  C1226   1.521   .     S
C1218  H1243   1.100   .     S
C1218  H1242   1.108   .     S
C1218  C1220   1.536   .     S
C1218  C1235   1.533   .     S
C1219  H1266   1.076   .     S
C1219  C1230   1.404   .     A
C1220  H1241   1.108   .     S
C1220  H1240   1.112   .     S
C1221  H1239   1.105   .     S
C1221  H1237   1.111   .     S
C1221  H1238   1.111   .     S
C1221  C1312   1.526   .     S
C1222  H1251   1.112   .     S
C1222  H1250   1.112   .     S
C1222  C1299   1.533   .     S
C1222  C1315   1.541   .     S
C1223  H1248   1.112   .     S
C1223  H1249   1.112   .     S
C1224  H1246   1.110   .     S
C1224  H1245   1.111   .     S
C1224  H1244   1.111   .     S
C1224  C1315   1.527   .     S
C1225  O1274   1.399   .     S
C1226  C1227   1.536   .     S
C1226  H1259   1.112   .     S
C1226  H432    1.111   1_556 S
C1227  H1257   1.110   .     S
C1227  H1256   1.112   .     S
C1227  C1504   1.526   .     S
C1228  H1253   1.111   .     S
C1228  H1255   1.107   .     S
C1228  H426    1.111   1_556 S
C1229  O1275   1.223   .     D
C1229  O1276   1.398   .     S
C1229  C1234   1.489   .     S
C1230  C1231   1.419   .     A
C1230  C1232   1.418   .     A
C1231  C407    1.419   1_556 S
C1232  C405    1.420   1_556 S
C1233  C1234   1.431   .     A
C1234  C1235   1.423   .     A
H1252  O1274   1.014   .     S
H1261  O1276   1.014   .     S
O1268  Zn1288  1.940   .     S
O1268  Zn1287  1.942   .     S
O1268  Zn1286  1.953   .     S
O1268  Zn1285  1.950   .     S
O1269  Zn1286  1.932   .     S
O1270  Zn1288  1.937   .     S
O1271  Zn1287  1.937   .     S
O1272  Zn1285  1.932   .     S
O1273  C1501   1.223   .     S
O1277  Zn1285  1.933   .     S
O1278  Zn1288  1.932   .     S
O1279  Zn1286  1.938   .     S
O1280  Zn1287  1.943   .     S
O1281  Zn1288  1.944   .     S
O1282  Zn1285  1.939   .     S
O1283  Zn1286  1.932   .     S
O1284  Zn1287  1.931   .     S
C1289  C1299   1.434   .     S
C1289  O1373   1.269   .     A
C1289  O1371   1.272   .     A
C1290  H1359   1.076   .     S
C1290  C1324   1.418   .     A
C1290  C1291   1.385   .     A
C1291  H1356   1.084   .     S
C1291  C465    1.387   1_556 S
C1292  O1374   1.265   .     A
C1292  O1372   1.290   .     A
C1292  C1298   1.458   .     S
C1293  C1294   1.418   .     A
C1293  C1295   1.403   .     A
C1294  C1297   1.405   .     A
C1294  C1325   1.429   .     A
C1295  C1296   1.392   .     A
C1295  H1328   1.084   .     S
C1296  C1308   1.396   .     A
C1296  H1355   1.083   .     S
C1297  H1354   1.080   .     S
C1297  C1308   1.391   .     A
C1298  C1115   1.357   1_655 S
C1298  H1155   1.088   1_655 S
C1300  H1357   1.083   .     S
C1300  C1309   1.402   .     A
C1300  C1307   1.396   .     A
C1301  C1304   1.463   .     S
C1301  C1578   1.341   .     S
C1301  C1593   1.499   .     S
C1302  H1350   1.087   .     S
C1302  C1303   1.436   .     S
C1303  O1369   1.274   .     A
C1303  O1375   1.281   .     A
C1304  O1370   1.283   .     A
C1304  O1376   1.272   .     A
C1305  C1308   1.447   .     S
C1305  O1361   1.275   .     A
C1305  O1363   1.280   .     A
C1306  C1307   1.468   .     S
C1306  O1362   1.280   .     A
C1306  O1364   1.283   .     A
C1307  C1311   1.392   .     A
C1309  C1323   1.427   .     A
C1309  C1318   1.521   .     S
C1310  H1335   1.100   .     S
C1310  H1334   1.108   .     S
C1310  C1312   1.536   .     S
C1310  C1327   1.533   .     S
C1311  H1358   1.076   .     S
C1311  C1322   1.404   .     A
C1312  H1333   1.108   .     S
C1312  H1332   1.112   .     S
C1313  H1331   1.105   .     S
C1313  H1329   1.111   .     S
C1313  H1330   1.111   .     S
C1313  C1128   1.526   1_655 S
C1314  H1343   1.112   .     S
C1314  H1342   1.112   .     S
C1314  C1115   1.533   1_655 S
C1314  C1131   1.541   1_655 S
C1315  H1340   1.112   .     S
C1315  H1341   1.112   .     S
C1316  H1338   1.110   .     S
C1316  H1337   1.111   .     S
C1316  H1336   1.111   .     S
C1316  C1131   1.527   1_655 S
C1317  O1366   1.399   .     S
C1318  C1319   1.536   .     S
C1318  H1351   1.112   .     S
C1318  H524    1.111   1_556 S
C1319  H1349   1.110   .     S
C1319  H1348   1.112   .     S
C1319  C1596   1.526   .     S
C1320  H1345   1.111   .     S
C1320  H1347   1.107   .     S
C1320  H518    1.111   1_556 S
C1321  O1367   1.223   .     D
C1321  O1368   1.398   .     S
C1321  C1326   1.489   .     S
C1322  C1323   1.419   .     A
C1322  C1324   1.418   .     A
C1323  C499    1.419   1_556 S
C1324  C497    1.420   1_556 S
C1325  C1326   1.431   .     A
C1326  C1327   1.423   .     A
H1344  O1366   1.014   .     S
H1353  O1368   1.014   .     S
O1360  Zn1380  1.940   .     S
O1360  Zn1379  1.942   .     S
O1360  Zn1378  1.953   .     S
O1360  Zn1377  1.950   .     S
O1361  Zn1378  1.932   .     S
O1362  Zn1380  1.937   .     S
O1363  Zn1379  1.937   .     S
O1364  Zn1377  1.932   .     S
O1365  C1593   1.223   .     S
O1369  Zn1377  1.933   .     S
O1370  Zn1380  1.932   .     S
O1371  Zn1378  1.938   .     S
O1372  Zn1379  1.943   .     S
O1373  Zn1380  1.944   .     S
O1374  Zn1377  1.939   .     S
O1375  Zn1378  1.932   .     S
O1376  Zn1379  1.931   .     S
C1381  C1391   1.434   .     S
C1381  O1465   1.269   .     A
C1381  O1463   1.272   .     A
C1382  H1451   1.076   .     S
C1382  C1416   1.418   .     A
C1382  C1383   1.385   .     A
C1383  H1448   1.084   .     S
C1383  C557    1.387   1_556 S
C1384  O1466   1.265   .     A
C1384  O1464   1.290   .     A
C1384  C1390   1.458   .     S
C1385  C1386   1.418   .     A
C1385  C1387   1.403   .     A
C1386  C1389   1.405   .     A
C1386  C1417   1.429   .     A
C1387  C1388   1.392   .     A
C1387  H1420   1.084   .     S
C1388  C1400   1.396   .     A
C1388  H1447   1.083   .     S
C1389  H1446   1.080   .     S
C1389  C1400   1.391   .     A
C1390  C1483   1.357   .     S
C1390  H1523   1.088   .     S
C1391  C1574   1.357   1_455 S
C1391  C1590   1.533   1_455 S
C1392  H1449   1.083   .     S
C1392  C1401   1.402   .     A
C1392  C1399   1.396   .     A
C1393  C1396   1.463   .     S
C1393  C842    1.341   1_565 S
C1393  C857    1.499   1_565 S
C1394  H1442   1.087   .     S
C1394  C1395   1.436   .     S
C1395  O1461   1.274   .     A
C1395  O1467   1.281   .     A
C1396  O1462   1.283   .     A
C1396  O1468   1.272   .     A
C1397  C1400   1.447   .     S
C1397  O1453   1.275   .     A
C1397  O1455   1.280   .     A
C1398  C1399   1.468   .     S
C1398  O1454   1.280   .     A
C1398  O1456   1.283   .     A
C1399  C1403   1.392   .     A
C1401  C1415   1.427   .     A
C1401  C1410   1.521   .     S
C1402  H1427   1.100   .     S
C1402  H1426   1.108   .     S
C1402  C1404   1.536   .     S
C1402  C1419   1.533   .     S
C1403  H1450   1.076   .     S
C1403  C1414   1.404   .     A
C1404  H1425   1.108   .     S
C1404  H1424   1.112   .     S
C1404  C1589   1.526   1_455 S
C1405  H1423   1.105   .     S
C1405  H1421   1.111   .     S
C1405  H1422   1.111   .     S
C1405  C1496   1.526   .     S
C1406  H1435   1.112   .     S
C1406  H1434   1.112   .     S
C1406  C1483   1.533   .     S
C1406  C1499   1.541   .     S
C1407  H1432   1.112   .     S
C1407  H1433   1.112   .     S
C1407  C1590   1.541   1_455 S
C1407  C1592   1.527   1_455 S
C1408  H1430   1.110   .     S
C1408  H1429   1.111   .     S
C1408  H1428   1.111   .     S
C1408  C1499   1.527   .     S
C1409  O1458   1.399   .     S
C1410  C1411   1.536   .     S
C1410  H1443   1.112   .     S
C1410  H616    1.111   1_556 S
C1411  H1441   1.110   .     S
C1411  H1440   1.112   .     S
C1411  C860    1.526   1_565 S
C1412  H1437   1.111   .     S
C1412  H1439   1.107   .     S
C1412  H610    1.111   1_556 S
C1413  O1459   1.223   .     D
C1413  O1460   1.398   .     S
C1413  C1418   1.489   .     S
C1414  C1415   1.419   .     A
C1414  C1416   1.418   .     A
C1415  C591    1.419   1_556 S
C1416  C589    1.420   1_556 S
C1417  C1418   1.431   .     A
C1418  C1419   1.423   .     A
H1431  C1574   1.088   1_455 S
H1436  O1458   1.014   .     S
H1445  O1460   1.014   .     S
O1452  Zn1472  1.940   .     S
O1452  Zn1471  1.942   .     S
O1452  Zn1470  1.953   .     S
O1452  Zn1469  1.950   .     S
O1453  Zn1470  1.932   .     S
O1454  Zn1472  1.937   .     S
O1455  Zn1471  1.937   .     S
O1456  Zn1469  1.932   .     S
O1457  C857    1.223   1_565 S
O1461  Zn1469  1.933   .     S
O1462  Zn1472  1.932   .     S
O1463  Zn1470  1.938   .     S
O1464  Zn1471  1.943   .     S
O1465  Zn1472  1.944   .     S
O1466  Zn1469  1.939   .     S
O1467  Zn1470  1.932   .     S
O1468  Zn1471  1.931   .     S
C1473  C1483   1.434   .     S
C1473  O1557   1.269   .     A
C1473  O1555   1.272   .     A
C1474  H1543   1.076   .     S
C1474  C1508   1.418   .     A
C1474  C1475   1.385   .     A
C1475  H1540   1.084   .     S
C1475  C649    1.387   1_556 S
C1476  O1558   1.265   .     A
C1476  O1556   1.290   .     A
C1476  C1482   1.458   .     S
C1477  C1478   1.418   .     A
C1477  C1479   1.403   .     A
C1478  C1481   1.405   .     A
C1478  C1509   1.429   .     A
C1479  C1480   1.392   .     A
C1479  H1512   1.084   .     S
C1480  C1492   1.396   .     A
C1480  H1539   1.083   .     S
C1481  H1538   1.080   .     S
C1481  C1492   1.391   .     A
C1482  C1575   1.357   .     S
C1482  H1615   1.088   .     S
C1484  H1541   1.083   .     S
C1484  C1493   1.402   .     A
C1484  C1491   1.396   .     A
C1485  C1488   1.463   .     S
C1485  C934    1.341   1_565 S
C1485  C949    1.499   1_565 S
C1486  H1534   1.087   .     S
C1486  C1487   1.436   .     S
C1487  O1553   1.274   .     A
C1487  O1559   1.281   .     A
C1488  O1554   1.283   .     A
C1488  O1560   1.272   .     A
C1489  C1492   1.447   .     S
C1489  O1545   1.275   .     A
C1489  O1547   1.280   .     A
C1490  C1491   1.468   .     S
C1490  O1546   1.280   .     A
C1490  O1548   1.283   .     A
C1491  C1495   1.392   .     A
C1493  C1507   1.427   .     A
C1493  C1502   1.521   .     S
C1494  H1519   1.100   .     S
C1494  H1518   1.108   .     S
C1494  C1496   1.536   .     S
C1494  C1511   1.533   .     S
C1495  H1542   1.076   .     S
C1495  C1506   1.404   .     A
C1496  H1517   1.108   .     S
C1496  H1516   1.112   .     S
C1497  H1515   1.105   .     S
C1497  H1513   1.111   .     S
C1497  H1514   1.111   .     S
C1497  C1588   1.526   .     S
C1498  H1527   1.112   .     S
C1498  H1526   1.112   .     S
C1498  C1575   1.533   .     S
C1498  C1591   1.541   .     S
C1499  H1524   1.112   .     S
C1499  H1525   1.112   .     S
C1500  H1522   1.110   .     S
C1500  H1521   1.111   .     S
C1500  H1520   1.111   .     S
C1500  C1591   1.527   .     S
C1501  O1550   1.399   .     S
C1502  C1503   1.536   .     S
C1502  H1535   1.112   .     S
C1502  H708    1.111   1_556 S
C1503  H1533   1.110   .     S
C1503  H1532   1.112   .     S
C1503  C952    1.526   1_565 S
C1504  H1529   1.111   .     S
C1504  H1531   1.107   .     S
C1504  H702    1.111   1_556 S
C1505  O1551   1.223   .     D
C1505  O1552   1.398   .     S
C1505  C1510   1.489   .     S
C1506  C1507   1.419   .     A
C1506  C1508   1.418   .     A
C1507  C683    1.419   1_556 S
C1508  C681    1.420   1_556 S
C1509  C1510   1.431   .     A
C1510  C1511   1.423   .     A
H1528  O1550   1.014   .     S
H1537  O1552   1.014   .     S
O1544  Zn1564  1.940   .     S
O1544  Zn1563  1.942   .     S
O1544  Zn1562  1.953   .     S
O1544  Zn1561  1.950   .     S
O1545  Zn1562  1.932   .     S
O1546  Zn1564  1.937   .     S
O1547  Zn1563  1.937   .     S
O1548  Zn1561  1.932   .     S
O1549  C949    1.223   1_565 S
O1553  Zn1561  1.933   .     S
O1554  Zn1564  1.932   .     S
O1555  Zn1562  1.938   .     S
O1556  Zn1563  1.943   .     S
O1557  Zn1564  1.944   .     S
O1558  Zn1561  1.939   .     S
O1559  Zn1562  1.932   .     S
O1560  Zn1563  1.931   .     S
C1565  C1575   1.434   .     S
C1565  O1649   1.269   .     A
C1565  O1647   1.272   .     A
C1566  H1635   1.076   .     S
C1566  C1600   1.418   .     A
C1566  C1567   1.385   .     A
C1567  H1632   1.084   .     S
C1567  C741    1.387   1_556 S
C1568  O1650   1.265   .     A
C1568  O1648   1.290   .     A
C1568  C1574   1.458   .     S
C1569  C1570   1.418   .     A
C1569  C1571   1.403   .     A
C1570  C1573   1.405   .     A
C1570  C1601   1.429   .     A
C1571  C1572   1.392   .     A
C1571  H1604   1.084   .     S
C1572  C1584   1.396   .     A
C1572  H1631   1.083   .     S
C1573  H1630   1.080   .     S
C1573  C1584   1.391   .     A
C1574  C1391   1.357   1_655 S
C1574  H1431   1.088   1_655 S
C1576  H1633   1.083   .     S
C1576  C1585   1.402   .     A
C1576  C1583   1.396   .     A
C1577  C1580   1.463   .     S
C1577  C1026   1.341   1_565 S
C1577  C1041   1.499   1_565 S
C1578  H1626   1.087   .     S
C1578  C1579   1.436   .     S
C1579  O1645   1.274   .     A
C1579  O1651   1.281   .     A
C1580  O1646   1.283   .     A
C1580  O1652   1.272   .     A
C1581  C1584   1.447   .     S
C1581  O1637   1.275   .     A
C1581  O1639   1.280   .     A
C1582  C1583   1.468   .     S
C1582  O1638   1.280   .     A
C1582  O1640   1.283   .     A
C1583  C1587   1.392   .     A
C1585  C1599   1.427   .     A
C1585  C1594   1.521   .     S
C1586  H1611   1.100   .     S
C1586  H1610   1.108   .     S
C1586  C1588   1.536   .     S
C1586  C1603   1.533   .     S
C1587  H1634   1.076   .     S
C1587  C1598   1.404   .     A
C1588  H1609   1.108   .     S
C1588  H1608   1.112   .     S
C1589  H1607   1.105   .     S
C1589  H1605   1.111   .     S
C1589  H1606   1.111   .     S
C1589  C1404   1.526   1_655 S
C1590  H1619   1.112   .     S
C1590  H1618   1.112   .     S
C1590  C1391   1.533   1_655 S
C1590  C1407   1.541   1_655 S
C1591  H1616   1.112   .     S
C1591  H1617   1.112   .     S
C1592  H1614   1.110   .     S
C1592  H1613   1.111   .     S
C1592  H1612   1.111   .     S
C1592  C1407   1.527   1_655 S
C1593  O1642   1.399   .     S
C1594  C1595   1.536   .     S
C1594  H1627   1.112   .     S
C1594  H800    1.111   1_556 S
C1595  H1625   1.110   .     S
C1595  H1624   1.112   .     S
C1595  C1044   1.526   1_565 S
C1596  H1621   1.111   .     S
C1596  H1623   1.107   .     S
C1596  H794    1.111   1_556 S
C1597  O1643   1.223   .     D
C1597  O1644   1.398   .     S
C1597  C1602   1.489   .     S
C1598  C1599   1.419   .     A
C1598  C1600   1.418   .     A
C1599  C775    1.419   1_556 S
C1600  C773    1.420   1_556 S
C1601  C1602   1.431   .     A
C1602  C1603   1.423   .     A
H1620  O1642   1.014   .     S
H1629  O1644   1.014   .     S
O1636  Zn1656  1.940   .     S
O1636  Zn1655  1.942   .     S
O1636  Zn1654  1.953   .     S
O1636  Zn1653  1.950   .     S
O1637  Zn1654  1.932   .     S
O1638  Zn1656  1.937   .     S
O1639  Zn1655  1.937   .     S
O1640  Zn1653  1.932   .     S
O1641  C1041   1.223   1_565 S
O1645  Zn1653  1.933   .     S
O1646  Zn1656  1.932   .     S
O1647  Zn1654  1.938   .     S
O1648  Zn1655  1.943   .     S
O1649  Zn1656  1.944   .     S
O1650  Zn1653  1.939   .     S
O1651  Zn1654  1.932   .     S
O1652  Zn1655  1.931   .     S
