data_str_m1_o10_o16_pcu_sym.245
_audit_creation_date              2020-01-03
_audit_creation_method            'Materials Studio'
_symmetry_space_group_name_H-M    'P1'
_symmetry_Int_Tables_number       1
_symmetry_cell_setting            triclinic
loop_
_symmetry_equiv_pos_as_xyz
  x,y,z
_cell_length_a                    32.6322
_cell_length_b                    32.6438
_cell_length_c                    31.0469
_cell_angle_alpha                 96.5267
_cell_angle_beta                  75.0321
_cell_angle_gamma                 98.3333
loop_
_atom_site_label
_atom_site_type_symbol
_atom_site_fract_x
_atom_site_fract_y
_atom_site_fract_z
_atom_site_U_iso_or_equiv
_atom_site_adp_type
_atom_site_occupancy
C1     C     0.05321   0.15997   0.25928   0.00000  Uiso   1.00
C2     C     0.16999   0.16004   0.06002   0.00000  Uiso   1.00
C3     C     0.22164   0.11297   0.05774   0.00000  Uiso   1.00
C4     C     0.28067   0.17367   0.24026   0.00000  Uiso   1.00
C5     C     0.14211   0.19365   0.42061   0.00000  Uiso   1.00
C6     C     0.32638   0.17716   0.23796   0.00000  Uiso   1.00
C7     C     0.00758   0.15517   0.26422   0.00000  Uiso   1.00
C8     C     0.18005   0.32247   0.23753   0.00000  Uiso   1.00
C9     C     0.15123   0.01254   0.26439   0.00000  Uiso   1.00
C10    C     0.15628   0.05613   0.26007   0.00000  Uiso   1.00
C11    C     0.17639   0.27785   0.24039   0.00000  Uiso   1.00
C12    C     0.09019   0.20743   0.49087   0.00000  Uiso   1.00
C13    C     0.18520   0.14808   0.12962   0.00000  Uiso   1.00
C14    C     0.14978   0.18587   0.37099   0.00000  Uiso   1.00
C15    C     0.22902   0.10710   0.01103   0.00000  Uiso   1.00
C16    C     0.19271   0.14010   0.08163   0.00000  Uiso   1.00
C17    C     0.10541   0.21212   0.44545   0.00000  Uiso   1.00
C18    C     0.00023   0.10709   0.31732   0.00000  Uiso   1.00
C19    C     0.22964   0.08061   0.38772   0.00000  Uiso   1.00
C20    C     0.23912   0.04073   0.48477   0.00000  Uiso   1.00
C21    C     0.06541   0.13453   0.05131   0.00000  Uiso   1.00
C22    C     0.26935   0.20533   0.39479   0.00000  Uiso   1.00
C23    C     0.11039   0.18497   0.01292   0.00000  Uiso   1.00
C24    C     0.03207   0.18804   0.16722   0.00000  Uiso   1.00
C25    C     0.15112   0.17244   0.49105   0.00000  Uiso   1.00
C26    C     0.16732   0.17722   0.44449   0.00000  Uiso   1.00
C27    C     0.17577   0.15402   0.01360   0.00000  Uiso   1.00
C28    C     0.20863   0.13045   0.48858   0.00000  Uiso   1.00
C29    C     0.22206   0.13333   0.44219   0.00000  Uiso   1.00
C30    C     0.20784   0.16409   0.42350   0.00000  Uiso   1.00
Cl31   Cl    0.25091   0.08838   0.08575   0.00000  Uiso   1.00
Cl32   Cl    0.22410   0.01182   0.19736   0.00000  Uiso   1.00
Cl33   Cl    0.10505   0.32789   0.30498   0.00000  Uiso   1.00
Cl34   Cl    0.07438   0.23913   0.42195   0.00000  Uiso   1.00
H35    H     0.14994   0.18236   0.07990   0.00000  Uiso   1.00
H36    H     0.21108   0.03832   0.47005   0.00000  Uiso   1.00
H37    H     0.22911   0.02800   0.01813   0.00000  Uiso   1.00
H38    H     0.08700   0.11056   0.03579   0.00000  Uiso   1.00
H39    H     0.04110   0.13481   0.03197   0.00000  Uiso   1.00
H40    H     0.04816   0.12554   0.08525   0.00000  Uiso   1.00
H41    H     0.29124   0.18608   0.40318   0.00000  Uiso   1.00
H42    H     0.25993   0.22973   0.42234   0.00000  Uiso   1.00
H43    H     0.28735   0.22126   0.36461   0.00000  Uiso   1.00
H44    H     0.00390   0.18051   0.15260   0.00000  Uiso   1.00
H45    H     0.04808   0.15978   0.16527   0.00000  Uiso   1.00
H46    H     0.06041   0.21890   0.00887   0.00000  Uiso   1.00
H47    H     0.05515   0.21078   0.14644   0.00000  Uiso   1.00
H48    H     0.01080   0.13136   0.34168   0.00000  Uiso   1.00
H49    H     0.02711   0.09017   0.29765   0.00000  Uiso   1.00
H50    H     0.31033   0.08365   0.33639   0.00000  Uiso   1.00
H51    H     0.22937   0.09553   0.35737   0.00000  Uiso   1.00
H52    H     0.24695   0.05293   0.37705   0.00000  Uiso   1.00
H53    H     0.19632   0.06877   0.40516   0.00000  Uiso   1.00
H54    H     0.26234   0.02106   0.46262   0.00000  Uiso   1.00
O55    O     0.16667   0.16667   0.25000   0.00000  Uiso   1.00
O56    O     0.15451   0.12637   0.15459   0.00000  Uiso   1.00
O57    O     0.12940   0.20391   0.34968   0.00000  Uiso   1.00
O58    O     0.20824   0.17759   0.14606   0.00000  Uiso   1.00
O59    O     0.17451   0.15880   0.34968   0.00000  Uiso   1.00
O60    O     0.31381   0.12424   0.28917   0.00000  Uiso   1.00
O61    O     0.25107   0.10846   0.41542   0.00000  Uiso   1.00
O62    O     0.25927   0.08190   0.48746   0.00000  Uiso   1.00
O63    O     0.08860   0.17417   0.05529   0.00000  Uiso   1.00
O64    O     0.23328   0.18057   0.38486   0.00000  Uiso   1.00
O65    O     0.02075   0.20607   0.21150   0.00000  Uiso   1.00
O66    O     0.17930   0.08019   0.28214   0.00000  Uiso   1.00
O67    O     0.14632   0.26085   0.27014   0.00000  Uiso   1.00
O68    O     0.07412   0.13291   0.23413   0.00000  Uiso   1.00
O69    O     0.26693   0.19272   0.21361   0.00000  Uiso   1.00
O70    O     0.07071   0.18878   0.28213   0.00000  Uiso   1.00
O71    O     0.25491   0.15226   0.27014   0.00000  Uiso   1.00
O72    O     0.13760   0.06944   0.23413   0.00000  Uiso   1.00
O73    O     0.20345   0.25620   0.21361   0.00000  Uiso   1.00
Zn74   Zn    0.19338   0.13994   0.28734   0.00000  Uiso   1.00
Zn75   Zn    0.13379   0.12458   0.21876   0.00000  Uiso   1.00
Zn76   Zn    0.21056   0.19775   0.20657   0.00000  Uiso   1.00
Zn77   Zn    0.12893   0.20439   0.28734   0.00000  Uiso   1.00
C78    C     0.38655   0.15997   0.25928   0.00000  Uiso   1.00
C79    C     0.50333   0.16004   0.06002   0.00000  Uiso   1.00
C80    C     0.55498   0.11297   0.05774   0.00000  Uiso   1.00
C81    C     0.61401   0.17367   0.24026   0.00000  Uiso   1.00
C82    C     0.47545   0.19365   0.42061   0.00000  Uiso   1.00
C83    C     0.65971   0.17716   0.23796   0.00000  Uiso   1.00
C84    C     0.34091   0.15517   0.26422   0.00000  Uiso   1.00
C85    C     0.51338   0.32247   0.23753   0.00000  Uiso   1.00
C86    C     0.48456   0.01254   0.26439   0.00000  Uiso   1.00
C87    C     0.48962   0.05613   0.26007   0.00000  Uiso   1.00
C88    C     0.50972   0.27785   0.24039   0.00000  Uiso   1.00
C89    C     0.42353   0.20743   0.49087   0.00000  Uiso   1.00
C90    C     0.51854   0.14808   0.12962   0.00000  Uiso   1.00
C91    C     0.48312   0.18587   0.37099   0.00000  Uiso   1.00
C92    C     0.56235   0.10710   0.01103   0.00000  Uiso   1.00
C93    C     0.52604   0.14010   0.08163   0.00000  Uiso   1.00
C94    C     0.43874   0.21212   0.44545   0.00000  Uiso   1.00
C95    C     0.33357   0.10709   0.31732   0.00000  Uiso   1.00
C96    C     0.56298   0.08061   0.38772   0.00000  Uiso   1.00
C97    C     0.57246   0.04073   0.48477   0.00000  Uiso   1.00
C98    C     0.39874   0.13453   0.05131   0.00000  Uiso   1.00
C99    C     0.60269   0.20533   0.39479   0.00000  Uiso   1.00
C100   C     0.44372   0.18497   0.01292   0.00000  Uiso   1.00
C101   C     0.36541   0.18804   0.16722   0.00000  Uiso   1.00
C102   C     0.48445   0.17244   0.49105   0.00000  Uiso   1.00
C103   C     0.50066   0.17722   0.44449   0.00000  Uiso   1.00
C104   C     0.50911   0.15402   0.01360   0.00000  Uiso   1.00
C105   C     0.54197   0.13045   0.48858   0.00000  Uiso   1.00
C106   C     0.55539   0.13333   0.44219   0.00000  Uiso   1.00
C107   C     0.54117   0.16409   0.42350   0.00000  Uiso   1.00
Cl108  Cl    0.58424   0.08838   0.08575   0.00000  Uiso   1.00
Cl109  Cl    0.55743   0.01182   0.19736   0.00000  Uiso   1.00
Cl110  Cl    0.43838   0.32789   0.30498   0.00000  Uiso   1.00
Cl111  Cl    0.40771   0.23913   0.42195   0.00000  Uiso   1.00
H112   H     0.48327   0.18236   0.07990   0.00000  Uiso   1.00
H113   H     0.54441   0.03832   0.47005   0.00000  Uiso   1.00
H114   H     0.56245   0.02800   0.01813   0.00000  Uiso   1.00
H115   H     0.42033   0.11056   0.03579   0.00000  Uiso   1.00
H116   H     0.37443   0.13481   0.03197   0.00000  Uiso   1.00
H117   H     0.38150   0.12554   0.08525   0.00000  Uiso   1.00
H118   H     0.62457   0.18608   0.40318   0.00000  Uiso   1.00
H119   H     0.59326   0.22973   0.42234   0.00000  Uiso   1.00
H120   H     0.62068   0.22126   0.36461   0.00000  Uiso   1.00
H121   H     0.33723   0.18051   0.15260   0.00000  Uiso   1.00
H122   H     0.38141   0.15978   0.16527   0.00000  Uiso   1.00
H123   H     0.39375   0.21890   0.00887   0.00000  Uiso   1.00
H124   H     0.38848   0.21078   0.14644   0.00000  Uiso   1.00
H125   H     0.34413   0.13136   0.34168   0.00000  Uiso   1.00
H126   H     0.36044   0.09017   0.29765   0.00000  Uiso   1.00
H127   H     0.64367   0.08365   0.33639   0.00000  Uiso   1.00
H128   H     0.56270   0.09553   0.35737   0.00000  Uiso   1.00
H129   H     0.58029   0.05293   0.37705   0.00000  Uiso   1.00
H130   H     0.52965   0.06877   0.40516   0.00000  Uiso   1.00
H131   H     0.59567   0.02106   0.46262   0.00000  Uiso   1.00
O132   O     0.50000   0.16667   0.25000   0.00000  Uiso   1.00
O133   O     0.48784   0.12637   0.15459   0.00000  Uiso   1.00
O134   O     0.46274   0.20391   0.34968   0.00000  Uiso   1.00
O135   O     0.54157   0.17759   0.14606   0.00000  Uiso   1.00
O136   O     0.50785   0.15880   0.34968   0.00000  Uiso   1.00
O137   O     0.64714   0.12424   0.28917   0.00000  Uiso   1.00
O138   O     0.58440   0.10846   0.41542   0.00000  Uiso   1.00
O139   O     0.59260   0.08190   0.48746   0.00000  Uiso   1.00
O140   O     0.42193   0.17417   0.05529   0.00000  Uiso   1.00
O141   O     0.56662   0.18057   0.38486   0.00000  Uiso   1.00
O142   O     0.35409   0.20607   0.21150   0.00000  Uiso   1.00
O143   O     0.51264   0.08019   0.28214   0.00000  Uiso   1.00
O144   O     0.47965   0.26085   0.27014   0.00000  Uiso   1.00
O145   O     0.40745   0.13291   0.23413   0.00000  Uiso   1.00
O146   O     0.60026   0.19272   0.21361   0.00000  Uiso   1.00
O147   O     0.40405   0.18878   0.28213   0.00000  Uiso   1.00
O148   O     0.58824   0.15226   0.27014   0.00000  Uiso   1.00
O149   O     0.47093   0.06944   0.23413   0.00000  Uiso   1.00
O150   O     0.53678   0.25620   0.21361   0.00000  Uiso   1.00
Zn151  Zn    0.52672   0.13994   0.28734   0.00000  Uiso   1.00
Zn152  Zn    0.46713   0.12458   0.21876   0.00000  Uiso   1.00
Zn153  Zn    0.54389   0.19775   0.20657   0.00000  Uiso   1.00
Zn154  Zn    0.46226   0.20439   0.28734   0.00000  Uiso   1.00
C155   C     0.71988   0.15997   0.25928   0.00000  Uiso   1.00
C156   C     0.83666   0.16004   0.06002   0.00000  Uiso   1.00
C157   C     0.88831   0.11297   0.05774   0.00000  Uiso   1.00
C158   C     0.94734   0.17367   0.24026   0.00000  Uiso   1.00
C159   C     0.80878   0.19365   0.42061   0.00000  Uiso   1.00
C160   C     0.99305   0.17716   0.23796   0.00000  Uiso   1.00
C161   C     0.67424   0.15517   0.26422   0.00000  Uiso   1.00
C162   C     0.84671   0.32247   0.23753   0.00000  Uiso   1.00
C163   C     0.81790   0.01254   0.26439   0.00000  Uiso   1.00
C164   C     0.82295   0.05613   0.26007   0.00000  Uiso   1.00
C165   C     0.84306   0.27785   0.24039   0.00000  Uiso   1.00
C166   C     0.75686   0.20743   0.49087   0.00000  Uiso   1.00
C167   C     0.85187   0.14808   0.12962   0.00000  Uiso   1.00
C168   C     0.81645   0.18587   0.37099   0.00000  Uiso   1.00
C169   C     0.89568   0.10710   0.01103   0.00000  Uiso   1.00
C170   C     0.85938   0.14010   0.08163   0.00000  Uiso   1.00
C171   C     0.77207   0.21212   0.44545   0.00000  Uiso   1.00
C172   C     0.66690   0.10709   0.31732   0.00000  Uiso   1.00
C173   C     0.89631   0.08061   0.38772   0.00000  Uiso   1.00
C174   C     0.90579   0.04073   0.48477   0.00000  Uiso   1.00
C175   C     0.73208   0.13453   0.05131   0.00000  Uiso   1.00
C176   C     0.93602   0.20533   0.39479   0.00000  Uiso   1.00
C177   C     0.77705   0.18497   0.01292   0.00000  Uiso   1.00
C178   C     0.69874   0.18804   0.16722   0.00000  Uiso   1.00
C179   C     0.81779   0.17244   0.49105   0.00000  Uiso   1.00
C180   C     0.83399   0.17722   0.44449   0.00000  Uiso   1.00
C181   C     0.84244   0.15402   0.01360   0.00000  Uiso   1.00
C182   C     0.87530   0.13045   0.48858   0.00000  Uiso   1.00
C183   C     0.88872   0.13333   0.44219   0.00000  Uiso   1.00
C184   C     0.87451   0.16409   0.42350   0.00000  Uiso   1.00
Cl185  Cl    0.91757   0.08838   0.08575   0.00000  Uiso   1.00
Cl186  Cl    0.89076   0.01182   0.19736   0.00000  Uiso   1.00
Cl187  Cl    0.77172   0.32789   0.30498   0.00000  Uiso   1.00
Cl188  Cl    0.74104   0.23913   0.42195   0.00000  Uiso   1.00
H189   H     0.81660   0.18236   0.07990   0.00000  Uiso   1.00
H190   H     0.87775   0.03832   0.47005   0.00000  Uiso   1.00
H191   H     0.89578   0.02800   0.01813   0.00000  Uiso   1.00
H192   H     0.75367   0.11056   0.03579   0.00000  Uiso   1.00
H193   H     0.70776   0.13481   0.03197   0.00000  Uiso   1.00
H194   H     0.71483   0.12554   0.08525   0.00000  Uiso   1.00
H195   H     0.95791   0.18608   0.40318   0.00000  Uiso   1.00
H196   H     0.92660   0.22973   0.42234   0.00000  Uiso   1.00
H197   H     0.95402   0.22126   0.36461   0.00000  Uiso   1.00
H198   H     0.67056   0.18051   0.15260   0.00000  Uiso   1.00
H199   H     0.71474   0.15978   0.16527   0.00000  Uiso   1.00
H200   H     0.72708   0.21890   0.00887   0.00000  Uiso   1.00
H201   H     0.72181   0.21078   0.14644   0.00000  Uiso   1.00
H202   H     0.67746   0.13136   0.34168   0.00000  Uiso   1.00
H203   H     0.69378   0.09017   0.29765   0.00000  Uiso   1.00
H204   H     0.97700   0.08365   0.33639   0.00000  Uiso   1.00
H205   H     0.89603   0.09553   0.35737   0.00000  Uiso   1.00
H206   H     0.91362   0.05293   0.37705   0.00000  Uiso   1.00
H207   H     0.86298   0.06877   0.40516   0.00000  Uiso   1.00
H208   H     0.92900   0.02106   0.46262   0.00000  Uiso   1.00
O209   O     0.83333   0.16667   0.25000   0.00000  Uiso   1.00
O210   O     0.82118   0.12637   0.15459   0.00000  Uiso   1.00
O211   O     0.79607   0.20391   0.34968   0.00000  Uiso   1.00
O212   O     0.87491   0.17759   0.14606   0.00000  Uiso   1.00
O213   O     0.84118   0.15880   0.34968   0.00000  Uiso   1.00
O214   O     0.98047   0.12424   0.28917   0.00000  Uiso   1.00
O215   O     0.91774   0.10846   0.41542   0.00000  Uiso   1.00
O216   O     0.92594   0.08190   0.48746   0.00000  Uiso   1.00
O217   O     0.75526   0.17417   0.05529   0.00000  Uiso   1.00
O218   O     0.89995   0.18057   0.38486   0.00000  Uiso   1.00
O219   O     0.68742   0.20607   0.21150   0.00000  Uiso   1.00
O220   O     0.84597   0.08019   0.28214   0.00000  Uiso   1.00
O221   O     0.81298   0.26085   0.27014   0.00000  Uiso   1.00
O222   O     0.74078   0.13291   0.23413   0.00000  Uiso   1.00
O223   O     0.93360   0.19272   0.21361   0.00000  Uiso   1.00
O224   O     0.73738   0.18878   0.28213   0.00000  Uiso   1.00
O225   O     0.92158   0.15226   0.27014   0.00000  Uiso   1.00
O226   O     0.80426   0.06944   0.23413   0.00000  Uiso   1.00
O227   O     0.87012   0.25620   0.21361   0.00000  Uiso   1.00
Zn228  Zn    0.86005   0.13994   0.28734   0.00000  Uiso   1.00
Zn229  Zn    0.80046   0.12458   0.21876   0.00000  Uiso   1.00
Zn230  Zn    0.87723   0.19775   0.20657   0.00000  Uiso   1.00
Zn231  Zn    0.79560   0.20439   0.28734   0.00000  Uiso   1.00
C232   C     0.05321   0.49330   0.25928   0.00000  Uiso   1.00
C233   C     0.16999   0.49338   0.06002   0.00000  Uiso   1.00
C234   C     0.22164   0.44630   0.05774   0.00000  Uiso   1.00
C235   C     0.28067   0.50700   0.24026   0.00000  Uiso   1.00
C236   C     0.14211   0.52698   0.42061   0.00000  Uiso   1.00
C237   C     0.32638   0.51049   0.23796   0.00000  Uiso   1.00
C238   C     0.00758   0.48851   0.26422   0.00000  Uiso   1.00
C239   C     0.18005   0.65580   0.23753   0.00000  Uiso   1.00
C240   C     0.15123   0.34587   0.26439   0.00000  Uiso   1.00
C241   C     0.15628   0.38946   0.26007   0.00000  Uiso   1.00
C242   C     0.17639   0.61118   0.24039   0.00000  Uiso   1.00
C243   C     0.09019   0.54076   0.49087   0.00000  Uiso   1.00
C244   C     0.18520   0.48141   0.12962   0.00000  Uiso   1.00
C245   C     0.14978   0.51920   0.37099   0.00000  Uiso   1.00
C246   C     0.22902   0.44044   0.01103   0.00000  Uiso   1.00
C247   C     0.19271   0.47343   0.08163   0.00000  Uiso   1.00
C248   C     0.10541   0.54546   0.44545   0.00000  Uiso   1.00
C249   C     0.00023   0.44042   0.31732   0.00000  Uiso   1.00
C250   C     0.22964   0.41394   0.38772   0.00000  Uiso   1.00
C251   C     0.23912   0.37406   0.48477   0.00000  Uiso   1.00
C252   C     0.06541   0.46786   0.05131   0.00000  Uiso   1.00
C253   C     0.26935   0.53867   0.39479   0.00000  Uiso   1.00
C254   C     0.11039   0.51831   0.01292   0.00000  Uiso   1.00
C255   C     0.03207   0.52137   0.16722   0.00000  Uiso   1.00
C256   C     0.15112   0.50577   0.49105   0.00000  Uiso   1.00
C257   C     0.16732   0.51056   0.44449   0.00000  Uiso   1.00
C258   C     0.17577   0.48735   0.01360   0.00000  Uiso   1.00
C259   C     0.20863   0.46378   0.48858   0.00000  Uiso   1.00
C260   C     0.22206   0.46666   0.44219   0.00000  Uiso   1.00
C261   C     0.20784   0.49743   0.42350   0.00000  Uiso   1.00
Cl262  Cl    0.25091   0.42172   0.08575   0.00000  Uiso   1.00
Cl263  Cl    0.22410   0.34516   0.19736   0.00000  Uiso   1.00
Cl264  Cl    0.10505   0.66123   0.30498   0.00000  Uiso   1.00
Cl265  Cl    0.07438   0.57246   0.42195   0.00000  Uiso   1.00
H266   H     0.14994   0.51570   0.07990   0.00000  Uiso   1.00
H267   H     0.21108   0.37166   0.47005   0.00000  Uiso   1.00
H268   H     0.22911   0.36133   0.01813   0.00000  Uiso   1.00
H269   H     0.08700   0.44389   0.03579   0.00000  Uiso   1.00
H270   H     0.04110   0.46814   0.03197   0.00000  Uiso   1.00
H271   H     0.04816   0.45887   0.08525   0.00000  Uiso   1.00
H272   H     0.29124   0.51941   0.40318   0.00000  Uiso   1.00
H273   H     0.25993   0.56307   0.42234   0.00000  Uiso   1.00
H274   H     0.28735   0.55460   0.36461   0.00000  Uiso   1.00
H275   H     0.00390   0.51385   0.15260   0.00000  Uiso   1.00
H276   H     0.04808   0.49311   0.16527   0.00000  Uiso   1.00
H277   H     0.06041   0.55224   0.00887   0.00000  Uiso   1.00
H278   H     0.05515   0.54411   0.14644   0.00000  Uiso   1.00
H279   H     0.01080   0.46469   0.34168   0.00000  Uiso   1.00
H280   H     0.02711   0.42351   0.29765   0.00000  Uiso   1.00
H281   H     0.31033   0.41699   0.33639   0.00000  Uiso   1.00
H282   H     0.22937   0.42886   0.35737   0.00000  Uiso   1.00
H283   H     0.24695   0.38626   0.37705   0.00000  Uiso   1.00
H284   H     0.19632   0.40211   0.40516   0.00000  Uiso   1.00
H285   H     0.26234   0.35440   0.46262   0.00000  Uiso   1.00
O286   O     0.16667   0.50000   0.25000   0.00000  Uiso   1.00
O287   O     0.15451   0.45970   0.15459   0.00000  Uiso   1.00
O288   O     0.12940   0.53724   0.34968   0.00000  Uiso   1.00
O289   O     0.20824   0.51092   0.14606   0.00000  Uiso   1.00
O290   O     0.17451   0.49213   0.34968   0.00000  Uiso   1.00
O291   O     0.31381   0.45758   0.28917   0.00000  Uiso   1.00
O292   O     0.25107   0.44180   0.41542   0.00000  Uiso   1.00
O293   O     0.25927   0.41524   0.48746   0.00000  Uiso   1.00
O294   O     0.08860   0.50750   0.05529   0.00000  Uiso   1.00
O295   O     0.23328   0.51390   0.38486   0.00000  Uiso   1.00
O296   O     0.02075   0.53940   0.21150   0.00000  Uiso   1.00
O297   O     0.17930   0.41352   0.28214   0.00000  Uiso   1.00
O298   O     0.14632   0.59418   0.27014   0.00000  Uiso   1.00
O299   O     0.07412   0.46625   0.23413   0.00000  Uiso   1.00
O300   O     0.26693   0.52605   0.21361   0.00000  Uiso   1.00
O301   O     0.07071   0.52211   0.28213   0.00000  Uiso   1.00
O302   O     0.25491   0.48559   0.27014   0.00000  Uiso   1.00
O303   O     0.13760   0.40277   0.23413   0.00000  Uiso   1.00
O304   O     0.20345   0.58953   0.21361   0.00000  Uiso   1.00
Zn305  Zn    0.19338   0.47327   0.28734   0.00000  Uiso   1.00
Zn306  Zn    0.13379   0.45791   0.21876   0.00000  Uiso   1.00
Zn307  Zn    0.21056   0.53109   0.20657   0.00000  Uiso   1.00
Zn308  Zn    0.12893   0.53773   0.28734   0.00000  Uiso   1.00
C309   C     0.38655   0.49330   0.25928   0.00000  Uiso   1.00
C310   C     0.50333   0.49338   0.06002   0.00000  Uiso   1.00
C311   C     0.55498   0.44630   0.05774   0.00000  Uiso   1.00
C312   C     0.61401   0.50700   0.24026   0.00000  Uiso   1.00
C313   C     0.47545   0.52698   0.42061   0.00000  Uiso   1.00
C314   C     0.65971   0.51049   0.23796   0.00000  Uiso   1.00
C315   C     0.34091   0.48851   0.26422   0.00000  Uiso   1.00
C316   C     0.51338   0.65580   0.23753   0.00000  Uiso   1.00
C317   C     0.48456   0.34587   0.26439   0.00000  Uiso   1.00
C318   C     0.48962   0.38946   0.26007   0.00000  Uiso   1.00
C319   C     0.50972   0.61118   0.24039   0.00000  Uiso   1.00
C320   C     0.42353   0.54076   0.49087   0.00000  Uiso   1.00
C321   C     0.51854   0.48141   0.12962   0.00000  Uiso   1.00
C322   C     0.48312   0.51920   0.37099   0.00000  Uiso   1.00
C323   C     0.56235   0.44044   0.01103   0.00000  Uiso   1.00
C324   C     0.52604   0.47343   0.08163   0.00000  Uiso   1.00
C325   C     0.43874   0.54546   0.44545   0.00000  Uiso   1.00
C326   C     0.33357   0.44042   0.31732   0.00000  Uiso   1.00
C327   C     0.56298   0.41394   0.38772   0.00000  Uiso   1.00
C328   C     0.57246   0.37406   0.48477   0.00000  Uiso   1.00
C329   C     0.39874   0.46786   0.05131   0.00000  Uiso   1.00
C330   C     0.60269   0.53867   0.39479   0.00000  Uiso   1.00
C331   C     0.44372   0.51831   0.01292   0.00000  Uiso   1.00
C332   C     0.36541   0.52137   0.16722   0.00000  Uiso   1.00
C333   C     0.48445   0.50577   0.49105   0.00000  Uiso   1.00
C334   C     0.50066   0.51056   0.44449   0.00000  Uiso   1.00
C335   C     0.50911   0.48735   0.01360   0.00000  Uiso   1.00
C336   C     0.54197   0.46378   0.48858   0.00000  Uiso   1.00
C337   C     0.55539   0.46666   0.44219   0.00000  Uiso   1.00
C338   C     0.54117   0.49743   0.42350   0.00000  Uiso   1.00
Cl339  Cl    0.58424   0.42172   0.08575   0.00000  Uiso   1.00
Cl340  Cl    0.55743   0.34516   0.19736   0.00000  Uiso   1.00
Cl341  Cl    0.43838   0.66123   0.30498   0.00000  Uiso   1.00
Cl342  Cl    0.40771   0.57246   0.42195   0.00000  Uiso   1.00
H343   H     0.48327   0.51570   0.07990   0.00000  Uiso   1.00
H344   H     0.54441   0.37166   0.47005   0.00000  Uiso   1.00
H345   H     0.56245   0.36133   0.01813   0.00000  Uiso   1.00
H346   H     0.42033   0.44389   0.03579   0.00000  Uiso   1.00
H347   H     0.37443   0.46814   0.03197   0.00000  Uiso   1.00
H348   H     0.38150   0.45887   0.08525   0.00000  Uiso   1.00
H349   H     0.62457   0.51941   0.40318   0.00000  Uiso   1.00
H350   H     0.59326   0.56307   0.42234   0.00000  Uiso   1.00
H351   H     0.62068   0.55460   0.36461   0.00000  Uiso   1.00
H352   H     0.33723   0.51385   0.15260   0.00000  Uiso   1.00
H353   H     0.38141   0.49311   0.16527   0.00000  Uiso   1.00
H354   H     0.39375   0.55224   0.00887   0.00000  Uiso   1.00
H355   H     0.38848   0.54411   0.14644   0.00000  Uiso   1.00
H356   H     0.34413   0.46469   0.34168   0.00000  Uiso   1.00
H357   H     0.36044   0.42351   0.29765   0.00000  Uiso   1.00
H358   H     0.64367   0.41699   0.33639   0.00000  Uiso   1.00
H359   H     0.56270   0.42886   0.35737   0.00000  Uiso   1.00
H360   H     0.58029   0.38626   0.37705   0.00000  Uiso   1.00
H361   H     0.52965   0.40211   0.40516   0.00000  Uiso   1.00
H362   H     0.59567   0.35440   0.46262   0.00000  Uiso   1.00
O363   O     0.50000   0.50000   0.25000   0.00000  Uiso   1.00
O364   O     0.48784   0.45970   0.15459   0.00000  Uiso   1.00
O365   O     0.46274   0.53724   0.34968   0.00000  Uiso   1.00
O366   O     0.54157   0.51092   0.14606   0.00000  Uiso   1.00
O367   O     0.50785   0.49213   0.34968   0.00000  Uiso   1.00
O368   O     0.64714   0.45758   0.28917   0.00000  Uiso   1.00
O369   O     0.58440   0.44180   0.41542   0.00000  Uiso   1.00
O370   O     0.59260   0.41524   0.48746   0.00000  Uiso   1.00
O371   O     0.42193   0.50750   0.05529   0.00000  Uiso   1.00
O372   O     0.56662   0.51390   0.38486   0.00000  Uiso   1.00
O373   O     0.35409   0.53940   0.21150   0.00000  Uiso   1.00
O374   O     0.51264   0.41352   0.28214   0.00000  Uiso   1.00
O375   O     0.47965   0.59418   0.27014   0.00000  Uiso   1.00
O376   O     0.40745   0.46625   0.23413   0.00000  Uiso   1.00
O377   O     0.60026   0.52605   0.21361   0.00000  Uiso   1.00
O378   O     0.40405   0.52211   0.28213   0.00000  Uiso   1.00
O379   O     0.58824   0.48559   0.27014   0.00000  Uiso   1.00
O380   O     0.47093   0.40277   0.23413   0.00000  Uiso   1.00
O381   O     0.53678   0.58953   0.21361   0.00000  Uiso   1.00
Zn382  Zn    0.52672   0.47327   0.28734   0.00000  Uiso   1.00
Zn383  Zn    0.46713   0.45791   0.21876   0.00000  Uiso   1.00
Zn384  Zn    0.54389   0.53109   0.20657   0.00000  Uiso   1.00
Zn385  Zn    0.46226   0.53773   0.28734   0.00000  Uiso   1.00
C386   C     0.71988   0.49330   0.25928   0.00000  Uiso   1.00
C387   C     0.83666   0.49338   0.06002   0.00000  Uiso   1.00
C388   C     0.88831   0.44630   0.05774   0.00000  Uiso   1.00
C389   C     0.94734   0.50700   0.24026   0.00000  Uiso   1.00
C390   C     0.80878   0.52698   0.42061   0.00000  Uiso   1.00
C391   C     0.99305   0.51049   0.23796   0.00000  Uiso   1.00
C392   C     0.67424   0.48851   0.26422   0.00000  Uiso   1.00
C393   C     0.84671   0.65580   0.23753   0.00000  Uiso   1.00
C394   C     0.81790   0.34587   0.26439   0.00000  Uiso   1.00
C395   C     0.82295   0.38946   0.26007   0.00000  Uiso   1.00
C396   C     0.84306   0.61118   0.24039   0.00000  Uiso   1.00
C397   C     0.75686   0.54076   0.49087   0.00000  Uiso   1.00
C398   C     0.85187   0.48141   0.12962   0.00000  Uiso   1.00
C399   C     0.81645   0.51920   0.37099   0.00000  Uiso   1.00
C400   C     0.89568   0.44044   0.01103   0.00000  Uiso   1.00
C401   C     0.85938   0.47343   0.08163   0.00000  Uiso   1.00
C402   C     0.77207   0.54546   0.44545   0.00000  Uiso   1.00
C403   C     0.66690   0.44042   0.31732   0.00000  Uiso   1.00
C404   C     0.89631   0.41394   0.38772   0.00000  Uiso   1.00
C405   C     0.90579   0.37406   0.48477   0.00000  Uiso   1.00
C406   C     0.73208   0.46786   0.05131   0.00000  Uiso   1.00
C407   C     0.93602   0.53867   0.39479   0.00000  Uiso   1.00
C408   C     0.77705   0.51831   0.01292   0.00000  Uiso   1.00
C409   C     0.69874   0.52137   0.16722   0.00000  Uiso   1.00
C410   C     0.81779   0.50577   0.49105   0.00000  Uiso   1.00
C411   C     0.83399   0.51056   0.44449   0.00000  Uiso   1.00
C412   C     0.84244   0.48735   0.01360   0.00000  Uiso   1.00
C413   C     0.87530   0.46378   0.48858   0.00000  Uiso   1.00
C414   C     0.88872   0.46666   0.44219   0.00000  Uiso   1.00
C415   C     0.87451   0.49743   0.42350   0.00000  Uiso   1.00
Cl416  Cl    0.91757   0.42172   0.08575   0.00000  Uiso   1.00
Cl417  Cl    0.89076   0.34516   0.19736   0.00000  Uiso   1.00
Cl418  Cl    0.77172   0.66123   0.30498   0.00000  Uiso   1.00
Cl419  Cl    0.74104   0.57246   0.42195   0.00000  Uiso   1.00
H420   H     0.81660   0.51570   0.07990   0.00000  Uiso   1.00
H421   H     0.87775   0.37166   0.47005   0.00000  Uiso   1.00
H422   H     0.89578   0.36133   0.01813   0.00000  Uiso   1.00
H423   H     0.75367   0.44389   0.03579   0.00000  Uiso   1.00
H424   H     0.70776   0.46814   0.03197   0.00000  Uiso   1.00
H425   H     0.71483   0.45887   0.08525   0.00000  Uiso   1.00
H426   H     0.95791   0.51941   0.40318   0.00000  Uiso   1.00
H427   H     0.92660   0.56307   0.42234   0.00000  Uiso   1.00
H428   H     0.95402   0.55460   0.36461   0.00000  Uiso   1.00
H429   H     0.67056   0.51385   0.15260   0.00000  Uiso   1.00
H430   H     0.71474   0.49311   0.16527   0.00000  Uiso   1.00
H431   H     0.72708   0.55224   0.00887   0.00000  Uiso   1.00
H432   H     0.72181   0.54411   0.14644   0.00000  Uiso   1.00
H433   H     0.67746   0.46469   0.34168   0.00000  Uiso   1.00
H434   H     0.69378   0.42351   0.29765   0.00000  Uiso   1.00
H435   H     0.97700   0.41699   0.33639   0.00000  Uiso   1.00
H436   H     0.89603   0.42886   0.35737   0.00000  Uiso   1.00
H437   H     0.91362   0.38626   0.37705   0.00000  Uiso   1.00
H438   H     0.86298   0.40211   0.40516   0.00000  Uiso   1.00
H439   H     0.92900   0.35440   0.46262   0.00000  Uiso   1.00
O440   O     0.83333   0.50000   0.25000   0.00000  Uiso   1.00
O441   O     0.82118   0.45970   0.15459   0.00000  Uiso   1.00
O442   O     0.79607   0.53724   0.34968   0.00000  Uiso   1.00
O443   O     0.87491   0.51092   0.14606   0.00000  Uiso   1.00
O444   O     0.84118   0.49213   0.34968   0.00000  Uiso   1.00
O445   O     0.98047   0.45758   0.28917   0.00000  Uiso   1.00
O446   O     0.91774   0.44180   0.41542   0.00000  Uiso   1.00
O447   O     0.92594   0.41524   0.48746   0.00000  Uiso   1.00
O448   O     0.75526   0.50750   0.05529   0.00000  Uiso   1.00
O449   O     0.89995   0.51390   0.38486   0.00000  Uiso   1.00
O450   O     0.68742   0.53940   0.21150   0.00000  Uiso   1.00
O451   O     0.84597   0.41352   0.28214   0.00000  Uiso   1.00
O452   O     0.81298   0.59418   0.27014   0.00000  Uiso   1.00
O453   O     0.74078   0.46625   0.23413   0.00000  Uiso   1.00
O454   O     0.93360   0.52605   0.21361   0.00000  Uiso   1.00
O455   O     0.73738   0.52211   0.28213   0.00000  Uiso   1.00
O456   O     0.92158   0.48559   0.27014   0.00000  Uiso   1.00
O457   O     0.80426   0.40277   0.23413   0.00000  Uiso   1.00
O458   O     0.87012   0.58953   0.21361   0.00000  Uiso   1.00
Zn459  Zn    0.86005   0.47327   0.28734   0.00000  Uiso   1.00
Zn460  Zn    0.80046   0.45791   0.21876   0.00000  Uiso   1.00
Zn461  Zn    0.87723   0.53109   0.20657   0.00000  Uiso   1.00
Zn462  Zn    0.79560   0.53773   0.28734   0.00000  Uiso   1.00
C463   C     0.05321   0.82663   0.25928   0.00000  Uiso   1.00
C464   C     0.16999   0.82671   0.06002   0.00000  Uiso   1.00
C465   C     0.22164   0.77964   0.05774   0.00000  Uiso   1.00
C466   C     0.28067   0.84034   0.24026   0.00000  Uiso   1.00
C467   C     0.14211   0.86031   0.42061   0.00000  Uiso   1.00
C468   C     0.32638   0.84382   0.23796   0.00000  Uiso   1.00
C469   C     0.00758   0.82184   0.26422   0.00000  Uiso   1.00
C470   C     0.18005   0.98913   0.23753   0.00000  Uiso   1.00
C471   C     0.15123   0.67921   0.26439   0.00000  Uiso   1.00
C472   C     0.15628   0.72280   0.26007   0.00000  Uiso   1.00
C473   C     0.17639   0.94452   0.24039   0.00000  Uiso   1.00
C474   C     0.09019   0.87410   0.49087   0.00000  Uiso   1.00
C475   C     0.18520   0.81474   0.12962   0.00000  Uiso   1.00
C476   C     0.14978   0.85254   0.37099   0.00000  Uiso   1.00
C477   C     0.22902   0.77377   0.01103   0.00000  Uiso   1.00
C478   C     0.19271   0.80676   0.08163   0.00000  Uiso   1.00
C479   C     0.10541   0.87879   0.44545   0.00000  Uiso   1.00
C480   C     0.00023   0.77376   0.31732   0.00000  Uiso   1.00
C481   C     0.22964   0.74728   0.38772   0.00000  Uiso   1.00
C482   C     0.23912   0.70740   0.48477   0.00000  Uiso   1.00
C483   C     0.06541   0.80119   0.05131   0.00000  Uiso   1.00
C484   C     0.26935   0.87200   0.39479   0.00000  Uiso   1.00
C485   C     0.11039   0.85164   0.01292   0.00000  Uiso   1.00
C486   C     0.03207   0.85470   0.16722   0.00000  Uiso   1.00
C487   C     0.15112   0.83910   0.49105   0.00000  Uiso   1.00
C488   C     0.16732   0.84389   0.44449   0.00000  Uiso   1.00
C489   C     0.17577   0.82068   0.01360   0.00000  Uiso   1.00
C490   C     0.20863   0.79711   0.48858   0.00000  Uiso   1.00
C491   C     0.22206   0.80000   0.44219   0.00000  Uiso   1.00
C492   C     0.20784   0.83076   0.42350   0.00000  Uiso   1.00
Cl493  Cl    0.25091   0.75505   0.08575   0.00000  Uiso   1.00
Cl494  Cl    0.22410   0.67849   0.19736   0.00000  Uiso   1.00
Cl495  Cl    0.10505   0.99456   0.30498   0.00000  Uiso   1.00
Cl496  Cl    0.07438   0.90580   0.42195   0.00000  Uiso   1.00
H497   H     0.14994   0.84903   0.07990   0.00000  Uiso   1.00
H498   H     0.21108   0.70499   0.47005   0.00000  Uiso   1.00
H499   H     0.22911   0.69466   0.01813   0.00000  Uiso   1.00
H500   H     0.08700   0.77723   0.03579   0.00000  Uiso   1.00
H501   H     0.04110   0.80148   0.03197   0.00000  Uiso   1.00
H502   H     0.04816   0.79221   0.08525   0.00000  Uiso   1.00
H503   H     0.29124   0.85274   0.40318   0.00000  Uiso   1.00
H504   H     0.25993   0.89640   0.42234   0.00000  Uiso   1.00
H505   H     0.28735   0.88793   0.36461   0.00000  Uiso   1.00
H506   H     0.00390   0.84718   0.15260   0.00000  Uiso   1.00
H507   H     0.04808   0.82644   0.16527   0.00000  Uiso   1.00
H508   H     0.06041   0.88557   0.00887   0.00000  Uiso   1.00
H509   H     0.05515   0.87744   0.14644   0.00000  Uiso   1.00
H510   H     0.01080   0.79803   0.34168   0.00000  Uiso   1.00
H511   H     0.02711   0.75684   0.29765   0.00000  Uiso   1.00
H512   H     0.31033   0.75032   0.33639   0.00000  Uiso   1.00
H513   H     0.22937   0.76220   0.35737   0.00000  Uiso   1.00
H514   H     0.24695   0.71959   0.37705   0.00000  Uiso   1.00
H515   H     0.19632   0.73544   0.40516   0.00000  Uiso   1.00
H516   H     0.26234   0.68773   0.46262   0.00000  Uiso   1.00
O517   O     0.16667   0.83333   0.25000   0.00000  Uiso   1.00
O518   O     0.15451   0.79304   0.15459   0.00000  Uiso   1.00
O519   O     0.12940   0.87058   0.34968   0.00000  Uiso   1.00
O520   O     0.20824   0.84425   0.14606   0.00000  Uiso   1.00
O521   O     0.17451   0.82546   0.34968   0.00000  Uiso   1.00
O522   O     0.31381   0.79091   0.28917   0.00000  Uiso   1.00
O523   O     0.25107   0.77513   0.41542   0.00000  Uiso   1.00
O524   O     0.25927   0.74857   0.48746   0.00000  Uiso   1.00
O525   O     0.08860   0.84083   0.05529   0.00000  Uiso   1.00
O526   O     0.23328   0.84724   0.38486   0.00000  Uiso   1.00
O527   O     0.02075   0.87273   0.21150   0.00000  Uiso   1.00
O528   O     0.17930   0.74686   0.28214   0.00000  Uiso   1.00
O529   O     0.14632   0.92751   0.27014   0.00000  Uiso   1.00
O530   O     0.07412   0.79958   0.23413   0.00000  Uiso   1.00
O531   O     0.26693   0.85939   0.21361   0.00000  Uiso   1.00
O532   O     0.07071   0.85544   0.28213   0.00000  Uiso   1.00
O533   O     0.25491   0.81892   0.27014   0.00000  Uiso   1.00
O534   O     0.13760   0.73610   0.23413   0.00000  Uiso   1.00
O535   O     0.20345   0.92286   0.21361   0.00000  Uiso   1.00
Zn536  Zn    0.19338   0.80661   0.28734   0.00000  Uiso   1.00
Zn537  Zn    0.13379   0.79124   0.21876   0.00000  Uiso   1.00
Zn538  Zn    0.21056   0.86442   0.20657   0.00000  Uiso   1.00
Zn539  Zn    0.12893   0.87106   0.28734   0.00000  Uiso   1.00
C540   C     0.38655   0.82663   0.25928   0.00000  Uiso   1.00
C541   C     0.50333   0.82671   0.06002   0.00000  Uiso   1.00
C542   C     0.55498   0.77964   0.05774   0.00000  Uiso   1.00
C543   C     0.61401   0.84034   0.24026   0.00000  Uiso   1.00
C544   C     0.47545   0.86031   0.42061   0.00000  Uiso   1.00
C545   C     0.65971   0.84382   0.23796   0.00000  Uiso   1.00
C546   C     0.34091   0.82184   0.26422   0.00000  Uiso   1.00
C547   C     0.51338   0.98913   0.23753   0.00000  Uiso   1.00
C548   C     0.48456   0.67921   0.26439   0.00000  Uiso   1.00
C549   C     0.48962   0.72280   0.26007   0.00000  Uiso   1.00
C550   C     0.50972   0.94452   0.24039   0.00000  Uiso   1.00
C551   C     0.42353   0.87410   0.49087   0.00000  Uiso   1.00
C552   C     0.51854   0.81474   0.12962   0.00000  Uiso   1.00
C553   C     0.48312   0.85254   0.37099   0.00000  Uiso   1.00
C554   C     0.56235   0.77377   0.01103   0.00000  Uiso   1.00
C555   C     0.52604   0.80676   0.08163   0.00000  Uiso   1.00
C556   C     0.43874   0.87879   0.44545   0.00000  Uiso   1.00
C557   C     0.33357   0.77376   0.31732   0.00000  Uiso   1.00
C558   C     0.56298   0.74728   0.38772   0.00000  Uiso   1.00
C559   C     0.57246   0.70740   0.48477   0.00000  Uiso   1.00
C560   C     0.39874   0.80119   0.05131   0.00000  Uiso   1.00
C561   C     0.60269   0.87200   0.39479   0.00000  Uiso   1.00
C562   C     0.44372   0.85164   0.01292   0.00000  Uiso   1.00
C563   C     0.36541   0.85470   0.16722   0.00000  Uiso   1.00
C564   C     0.48445   0.83910   0.49105   0.00000  Uiso   1.00
C565   C     0.50066   0.84389   0.44449   0.00000  Uiso   1.00
C566   C     0.50911   0.82068   0.01360   0.00000  Uiso   1.00
C567   C     0.54197   0.79711   0.48858   0.00000  Uiso   1.00
C568   C     0.55539   0.80000   0.44219   0.00000  Uiso   1.00
C569   C     0.54117   0.83076   0.42350   0.00000  Uiso   1.00
Cl570  Cl    0.58424   0.75505   0.08575   0.00000  Uiso   1.00
Cl571  Cl    0.55743   0.67849   0.19736   0.00000  Uiso   1.00
Cl572  Cl    0.43838   0.99456   0.30498   0.00000  Uiso   1.00
Cl573  Cl    0.40771   0.90580   0.42195   0.00000  Uiso   1.00
H574   H     0.48327   0.84903   0.07990   0.00000  Uiso   1.00
H575   H     0.54441   0.70499   0.47005   0.00000  Uiso   1.00
H576   H     0.56245   0.69466   0.01813   0.00000  Uiso   1.00
H577   H     0.42033   0.77723   0.03579   0.00000  Uiso   1.00
H578   H     0.37443   0.80148   0.03197   0.00000  Uiso   1.00
H579   H     0.38150   0.79221   0.08525   0.00000  Uiso   1.00
H580   H     0.62457   0.85274   0.40318   0.00000  Uiso   1.00
H581   H     0.59326   0.89640   0.42234   0.00000  Uiso   1.00
H582   H     0.62068   0.88793   0.36461   0.00000  Uiso   1.00
H583   H     0.33723   0.84718   0.15260   0.00000  Uiso   1.00
H584   H     0.38141   0.82644   0.16527   0.00000  Uiso   1.00
H585   H     0.39375   0.88557   0.00887   0.00000  Uiso   1.00
H586   H     0.38848   0.87744   0.14644   0.00000  Uiso   1.00
H587   H     0.34413   0.79803   0.34168   0.00000  Uiso   1.00
H588   H     0.36044   0.75684   0.29765   0.00000  Uiso   1.00
H589   H     0.64367   0.75032   0.33639   0.00000  Uiso   1.00
H590   H     0.56270   0.76220   0.35737   0.00000  Uiso   1.00
H591   H     0.58029   0.71959   0.37705   0.00000  Uiso   1.00
H592   H     0.52965   0.73544   0.40516   0.00000  Uiso   1.00
H593   H     0.59567   0.68773   0.46262   0.00000  Uiso   1.00
O594   O     0.50000   0.83333   0.25000   0.00000  Uiso   1.00
O595   O     0.48784   0.79304   0.15459   0.00000  Uiso   1.00
O596   O     0.46274   0.87058   0.34968   0.00000  Uiso   1.00
O597   O     0.54157   0.84425   0.14606   0.00000  Uiso   1.00
O598   O     0.50785   0.82546   0.34968   0.00000  Uiso   1.00
O599   O     0.64714   0.79091   0.28917   0.00000  Uiso   1.00
O600   O     0.58440   0.77513   0.41542   0.00000  Uiso   1.00
O601   O     0.59260   0.74857   0.48746   0.00000  Uiso   1.00
O602   O     0.42193   0.84083   0.05529   0.00000  Uiso   1.00
O603   O     0.56662   0.84724   0.38486   0.00000  Uiso   1.00
O604   O     0.35409   0.87273   0.21150   0.00000  Uiso   1.00
O605   O     0.51264   0.74686   0.28214   0.00000  Uiso   1.00
O606   O     0.47965   0.92751   0.27014   0.00000  Uiso   1.00
O607   O     0.40745   0.79958   0.23413   0.00000  Uiso   1.00
O608   O     0.60026   0.85939   0.21361   0.00000  Uiso   1.00
O609   O     0.40405   0.85544   0.28213   0.00000  Uiso   1.00
O610   O     0.58824   0.81892   0.27014   0.00000  Uiso   1.00
O611   O     0.47093   0.73610   0.23413   0.00000  Uiso   1.00
O612   O     0.53678   0.92286   0.21361   0.00000  Uiso   1.00
Zn613  Zn    0.52672   0.80661   0.28734   0.00000  Uiso   1.00
Zn614  Zn    0.46713   0.79124   0.21876   0.00000  Uiso   1.00
Zn615  Zn    0.54389   0.86442   0.20657   0.00000  Uiso   1.00
Zn616  Zn    0.46226   0.87106   0.28734   0.00000  Uiso   1.00
C617   C     0.71988   0.82663   0.25928   0.00000  Uiso   1.00
C618   C     0.83666   0.82671   0.06002   0.00000  Uiso   1.00
C619   C     0.88831   0.77964   0.05774   0.00000  Uiso   1.00
C620   C     0.94734   0.84034   0.24026   0.00000  Uiso   1.00
C621   C     0.80878   0.86031   0.42061   0.00000  Uiso   1.00
C622   C     0.99305   0.84382   0.23796   0.00000  Uiso   1.00
C623   C     0.67424   0.82184   0.26422   0.00000  Uiso   1.00
C624   C     0.84671   0.98913   0.23753   0.00000  Uiso   1.00
C625   C     0.81790   0.67921   0.26439   0.00000  Uiso   1.00
C626   C     0.82295   0.72280   0.26007   0.00000  Uiso   1.00
C627   C     0.84306   0.94452   0.24039   0.00000  Uiso   1.00
C628   C     0.75686   0.87410   0.49087   0.00000  Uiso   1.00
C629   C     0.85187   0.81474   0.12962   0.00000  Uiso   1.00
C630   C     0.81645   0.85254   0.37099   0.00000  Uiso   1.00
C631   C     0.89568   0.77377   0.01103   0.00000  Uiso   1.00
C632   C     0.85938   0.80676   0.08163   0.00000  Uiso   1.00
C633   C     0.77207   0.87879   0.44545   0.00000  Uiso   1.00
C634   C     0.66690   0.77376   0.31732   0.00000  Uiso   1.00
C635   C     0.89631   0.74728   0.38772   0.00000  Uiso   1.00
C636   C     0.90579   0.70740   0.48477   0.00000  Uiso   1.00
C637   C     0.73208   0.80119   0.05131   0.00000  Uiso   1.00
C638   C     0.93602   0.87200   0.39479   0.00000  Uiso   1.00
C639   C     0.77705   0.85164   0.01292   0.00000  Uiso   1.00
C640   C     0.69874   0.85470   0.16722   0.00000  Uiso   1.00
C641   C     0.81779   0.83910   0.49105   0.00000  Uiso   1.00
C642   C     0.83399   0.84389   0.44449   0.00000  Uiso   1.00
C643   C     0.84244   0.82068   0.01360   0.00000  Uiso   1.00
C644   C     0.87530   0.79711   0.48858   0.00000  Uiso   1.00
C645   C     0.88872   0.80000   0.44219   0.00000  Uiso   1.00
C646   C     0.87451   0.83076   0.42350   0.00000  Uiso   1.00
Cl647  Cl    0.91757   0.75505   0.08575   0.00000  Uiso   1.00
Cl648  Cl    0.89076   0.67849   0.19736   0.00000  Uiso   1.00
Cl649  Cl    0.77172   0.99456   0.30498   0.00000  Uiso   1.00
Cl650  Cl    0.74104   0.90580   0.42195   0.00000  Uiso   1.00
H651   H     0.81660   0.84903   0.07990   0.00000  Uiso   1.00
H652   H     0.87775   0.70499   0.47005   0.00000  Uiso   1.00
H653   H     0.89578   0.69466   0.01813   0.00000  Uiso   1.00
H654   H     0.75367   0.77723   0.03579   0.00000  Uiso   1.00
H655   H     0.70776   0.80148   0.03197   0.00000  Uiso   1.00
H656   H     0.71483   0.79221   0.08525   0.00000  Uiso   1.00
H657   H     0.95791   0.85274   0.40318   0.00000  Uiso   1.00
H658   H     0.92660   0.89640   0.42234   0.00000  Uiso   1.00
H659   H     0.95402   0.88793   0.36461   0.00000  Uiso   1.00
H660   H     0.67056   0.84718   0.15260   0.00000  Uiso   1.00
H661   H     0.71474   0.82644   0.16527   0.00000  Uiso   1.00
H662   H     0.72708   0.88557   0.00887   0.00000  Uiso   1.00
H663   H     0.72181   0.87744   0.14644   0.00000  Uiso   1.00
H664   H     0.67746   0.79803   0.34168   0.00000  Uiso   1.00
H665   H     0.69378   0.75684   0.29765   0.00000  Uiso   1.00
H666   H     0.97700   0.75032   0.33639   0.00000  Uiso   1.00
H667   H     0.89603   0.76220   0.35737   0.00000  Uiso   1.00
H668   H     0.91362   0.71959   0.37705   0.00000  Uiso   1.00
H669   H     0.86298   0.73544   0.40516   0.00000  Uiso   1.00
H670   H     0.92900   0.68773   0.46262   0.00000  Uiso   1.00
O671   O     0.83333   0.83333   0.25000   0.00000  Uiso   1.00
O672   O     0.82118   0.79304   0.15459   0.00000  Uiso   1.00
O673   O     0.79607   0.87058   0.34968   0.00000  Uiso   1.00
O674   O     0.87491   0.84425   0.14606   0.00000  Uiso   1.00
O675   O     0.84118   0.82546   0.34968   0.00000  Uiso   1.00
O676   O     0.98047   0.79091   0.28917   0.00000  Uiso   1.00
O677   O     0.91774   0.77513   0.41542   0.00000  Uiso   1.00
O678   O     0.92594   0.74857   0.48746   0.00000  Uiso   1.00
O679   O     0.75526   0.84083   0.05529   0.00000  Uiso   1.00
O680   O     0.89995   0.84724   0.38486   0.00000  Uiso   1.00
O681   O     0.68742   0.87273   0.21150   0.00000  Uiso   1.00
O682   O     0.84597   0.74686   0.28214   0.00000  Uiso   1.00
O683   O     0.81298   0.92751   0.27014   0.00000  Uiso   1.00
O684   O     0.74078   0.79958   0.23413   0.00000  Uiso   1.00
O685   O     0.93360   0.85939   0.21361   0.00000  Uiso   1.00
O686   O     0.73738   0.85544   0.28213   0.00000  Uiso   1.00
O687   O     0.92158   0.81892   0.27014   0.00000  Uiso   1.00
O688   O     0.80426   0.73610   0.23413   0.00000  Uiso   1.00
O689   O     0.87012   0.92286   0.21361   0.00000  Uiso   1.00
Zn690  Zn    0.86005   0.80661   0.28734   0.00000  Uiso   1.00
Zn691  Zn    0.80046   0.79124   0.21876   0.00000  Uiso   1.00
Zn692  Zn    0.87723   0.86442   0.20657   0.00000  Uiso   1.00
Zn693  Zn    0.79560   0.87106   0.28734   0.00000  Uiso   1.00
C694   C     0.05321   0.15997   0.75928   0.00000  Uiso   1.00
C695   C     0.16999   0.16004   0.56002   0.00000  Uiso   1.00
C696   C     0.22164   0.11297   0.55774   0.00000  Uiso   1.00
C697   C     0.28067   0.17367   0.74026   0.00000  Uiso   1.00
C698   C     0.14211   0.19365   0.92061   0.00000  Uiso   1.00
C699   C     0.32638   0.17716   0.73796   0.00000  Uiso   1.00
C700   C     0.00758   0.15517   0.76422   0.00000  Uiso   1.00
C701   C     0.18005   0.32247   0.73753   0.00000  Uiso   1.00
C702   C     0.15123   0.01254   0.76439   0.00000  Uiso   1.00
C703   C     0.15628   0.05613   0.76007   0.00000  Uiso   1.00
C704   C     0.17639   0.27785   0.74039   0.00000  Uiso   1.00
C705   C     0.09019   0.20743   0.99087   0.00000  Uiso   1.00
C706   C     0.18520   0.14808   0.62962   0.00000  Uiso   1.00
C707   C     0.14978   0.18587   0.87099   0.00000  Uiso   1.00
C708   C     0.22902   0.10710   0.51103   0.00000  Uiso   1.00
C709   C     0.19271   0.14010   0.58163   0.00000  Uiso   1.00
C710   C     0.10541   0.21212   0.94545   0.00000  Uiso   1.00
C711   C     0.00023   0.10709   0.81732   0.00000  Uiso   1.00
C712   C     0.22964   0.08061   0.88772   0.00000  Uiso   1.00
C713   C     0.23912   0.04073   0.98477   0.00000  Uiso   1.00
C714   C     0.06541   0.13453   0.55131   0.00000  Uiso   1.00
C715   C     0.26935   0.20533   0.89479   0.00000  Uiso   1.00
C716   C     0.11039   0.18497   0.51292   0.00000  Uiso   1.00
C717   C     0.03207   0.18804   0.66722   0.00000  Uiso   1.00
C718   C     0.15112   0.17244   0.99105   0.00000  Uiso   1.00
C719   C     0.16732   0.17722   0.94449   0.00000  Uiso   1.00
C720   C     0.17577   0.15402   0.51360   0.00000  Uiso   1.00
C721   C     0.20863   0.13045   0.98858   0.00000  Uiso   1.00
C722   C     0.22206   0.13333   0.94219   0.00000  Uiso   1.00
C723   C     0.20784   0.16409   0.92350   0.00000  Uiso   1.00
Cl724  Cl    0.25091   0.08838   0.58575   0.00000  Uiso   1.00
Cl725  Cl    0.22410   0.01182   0.69736   0.00000  Uiso   1.00
Cl726  Cl    0.10505   0.32789   0.80498   0.00000  Uiso   1.00
Cl727  Cl    0.07438   0.23913   0.92195   0.00000  Uiso   1.00
H728   H     0.14994   0.18236   0.57990   0.00000  Uiso   1.00
H729   H     0.21108   0.03832   0.97005   0.00000  Uiso   1.00
H730   H     0.22911   0.02800   0.51813   0.00000  Uiso   1.00
H731   H     0.08700   0.11056   0.53579   0.00000  Uiso   1.00
H732   H     0.04110   0.13481   0.53197   0.00000  Uiso   1.00
H733   H     0.04816   0.12554   0.58525   0.00000  Uiso   1.00
H734   H     0.29124   0.18608   0.90318   0.00000  Uiso   1.00
H735   H     0.25993   0.22973   0.92234   0.00000  Uiso   1.00
H736   H     0.28735   0.22126   0.86461   0.00000  Uiso   1.00
H737   H     0.00390   0.18051   0.65260   0.00000  Uiso   1.00
H738   H     0.04808   0.15978   0.66527   0.00000  Uiso   1.00
H739   H     0.06041   0.21890   0.50887   0.00000  Uiso   1.00
H740   H     0.05515   0.21078   0.64644   0.00000  Uiso   1.00
H741   H     0.01080   0.13136   0.84168   0.00000  Uiso   1.00
H742   H     0.02711   0.09017   0.79765   0.00000  Uiso   1.00
H743   H     0.31033   0.08365   0.83639   0.00000  Uiso   1.00
H744   H     0.22937   0.09553   0.85737   0.00000  Uiso   1.00
H745   H     0.24695   0.05293   0.87705   0.00000  Uiso   1.00
H746   H     0.19632   0.06877   0.90516   0.00000  Uiso   1.00
H747   H     0.26234   0.02106   0.96262   0.00000  Uiso   1.00
O748   O     0.16667   0.16667   0.75000   0.00000  Uiso   1.00
O749   O     0.15451   0.12637   0.65459   0.00000  Uiso   1.00
O750   O     0.12940   0.20391   0.84968   0.00000  Uiso   1.00
O751   O     0.20824   0.17759   0.64606   0.00000  Uiso   1.00
O752   O     0.17451   0.15880   0.84968   0.00000  Uiso   1.00
O753   O     0.31381   0.12424   0.78917   0.00000  Uiso   1.00
O754   O     0.25107   0.10846   0.91542   0.00000  Uiso   1.00
O755   O     0.25927   0.08190   0.98746   0.00000  Uiso   1.00
O756   O     0.08860   0.17417   0.55529   0.00000  Uiso   1.00
O757   O     0.23328   0.18057   0.88486   0.00000  Uiso   1.00
O758   O     0.02075   0.20607   0.71150   0.00000  Uiso   1.00
O759   O     0.17930   0.08019   0.78214   0.00000  Uiso   1.00
O760   O     0.14632   0.26085   0.77014   0.00000  Uiso   1.00
O761   O     0.07412   0.13291   0.73413   0.00000  Uiso   1.00
O762   O     0.26693   0.19272   0.71361   0.00000  Uiso   1.00
O763   O     0.07071   0.18878   0.78213   0.00000  Uiso   1.00
O764   O     0.25491   0.15226   0.77014   0.00000  Uiso   1.00
O765   O     0.13760   0.06944   0.73413   0.00000  Uiso   1.00
O766   O     0.20345   0.25620   0.71361   0.00000  Uiso   1.00
Zn767  Zn    0.19338   0.13994   0.78734   0.00000  Uiso   1.00
Zn768  Zn    0.13379   0.12458   0.71876   0.00000  Uiso   1.00
Zn769  Zn    0.21056   0.19775   0.70657   0.00000  Uiso   1.00
Zn770  Zn    0.12893   0.20439   0.78734   0.00000  Uiso   1.00
C771   C     0.38655   0.15997   0.75928   0.00000  Uiso   1.00
C772   C     0.50333   0.16004   0.56002   0.00000  Uiso   1.00
C773   C     0.55498   0.11297   0.55774   0.00000  Uiso   1.00
C774   C     0.61401   0.17367   0.74026   0.00000  Uiso   1.00
C775   C     0.47545   0.19365   0.92061   0.00000  Uiso   1.00
C776   C     0.65971   0.17716   0.73796   0.00000  Uiso   1.00
C777   C     0.34091   0.15517   0.76422   0.00000  Uiso   1.00
C778   C     0.51338   0.32247   0.73753   0.00000  Uiso   1.00
C779   C     0.48456   0.01254   0.76439   0.00000  Uiso   1.00
C780   C     0.48962   0.05613   0.76007   0.00000  Uiso   1.00
C781   C     0.50972   0.27785   0.74039   0.00000  Uiso   1.00
C782   C     0.42353   0.20743   0.99087   0.00000  Uiso   1.00
C783   C     0.51854   0.14808   0.62962   0.00000  Uiso   1.00
C784   C     0.48312   0.18587   0.87099   0.00000  Uiso   1.00
C785   C     0.56235   0.10710   0.51103   0.00000  Uiso   1.00
C786   C     0.52604   0.14010   0.58163   0.00000  Uiso   1.00
C787   C     0.43874   0.21212   0.94545   0.00000  Uiso   1.00
C788   C     0.33357   0.10709   0.81732   0.00000  Uiso   1.00
C789   C     0.56298   0.08061   0.88772   0.00000  Uiso   1.00
C790   C     0.57246   0.04073   0.98477   0.00000  Uiso   1.00
C791   C     0.39874   0.13453   0.55131   0.00000  Uiso   1.00
C792   C     0.60269   0.20533   0.89479   0.00000  Uiso   1.00
C793   C     0.44372   0.18497   0.51292   0.00000  Uiso   1.00
C794   C     0.36541   0.18804   0.66722   0.00000  Uiso   1.00
C795   C     0.48445   0.17244   0.99105   0.00000  Uiso   1.00
C796   C     0.50066   0.17722   0.94449   0.00000  Uiso   1.00
C797   C     0.50911   0.15402   0.51360   0.00000  Uiso   1.00
C798   C     0.54197   0.13045   0.98858   0.00000  Uiso   1.00
C799   C     0.55539   0.13333   0.94219   0.00000  Uiso   1.00
C800   C     0.54117   0.16409   0.92350   0.00000  Uiso   1.00
Cl801  Cl    0.58424   0.08838   0.58575   0.00000  Uiso   1.00
Cl802  Cl    0.55743   0.01182   0.69736   0.00000  Uiso   1.00
Cl803  Cl    0.43838   0.32789   0.80498   0.00000  Uiso   1.00
Cl804  Cl    0.40771   0.23913   0.92195   0.00000  Uiso   1.00
H805   H     0.48327   0.18236   0.57990   0.00000  Uiso   1.00
H806   H     0.54441   0.03832   0.97005   0.00000  Uiso   1.00
H807   H     0.56245   0.02800   0.51813   0.00000  Uiso   1.00
H808   H     0.42033   0.11056   0.53579   0.00000  Uiso   1.00
H809   H     0.37443   0.13481   0.53197   0.00000  Uiso   1.00
H810   H     0.38150   0.12554   0.58525   0.00000  Uiso   1.00
H811   H     0.62457   0.18608   0.90318   0.00000  Uiso   1.00
H812   H     0.59326   0.22973   0.92234   0.00000  Uiso   1.00
H813   H     0.62068   0.22126   0.86461   0.00000  Uiso   1.00
H814   H     0.33723   0.18051   0.65260   0.00000  Uiso   1.00
H815   H     0.38141   0.15978   0.66527   0.00000  Uiso   1.00
H816   H     0.39375   0.21890   0.50887   0.00000  Uiso   1.00
H817   H     0.38848   0.21078   0.64644   0.00000  Uiso   1.00
H818   H     0.34413   0.13136   0.84168   0.00000  Uiso   1.00
H819   H     0.36044   0.09017   0.79765   0.00000  Uiso   1.00
H820   H     0.64367   0.08365   0.83639   0.00000  Uiso   1.00
H821   H     0.56270   0.09553   0.85737   0.00000  Uiso   1.00
H822   H     0.58029   0.05293   0.87705   0.00000  Uiso   1.00
H823   H     0.52965   0.06877   0.90516   0.00000  Uiso   1.00
H824   H     0.59567   0.02106   0.96262   0.00000  Uiso   1.00
O825   O     0.50000   0.16667   0.75000   0.00000  Uiso   1.00
O826   O     0.48784   0.12637   0.65459   0.00000  Uiso   1.00
O827   O     0.46274   0.20391   0.84968   0.00000  Uiso   1.00
O828   O     0.54157   0.17759   0.64606   0.00000  Uiso   1.00
O829   O     0.50785   0.15880   0.84968   0.00000  Uiso   1.00
O830   O     0.64714   0.12424   0.78917   0.00000  Uiso   1.00
O831   O     0.58440   0.10846   0.91542   0.00000  Uiso   1.00
O832   O     0.59260   0.08190   0.98746   0.00000  Uiso   1.00
O833   O     0.42193   0.17417   0.55529   0.00000  Uiso   1.00
O834   O     0.56662   0.18057   0.88486   0.00000  Uiso   1.00
O835   O     0.35409   0.20607   0.71150   0.00000  Uiso   1.00
O836   O     0.51264   0.08019   0.78214   0.00000  Uiso   1.00
O837   O     0.47965   0.26085   0.77014   0.00000  Uiso   1.00
O838   O     0.40745   0.13291   0.73413   0.00000  Uiso   1.00
O839   O     0.60026   0.19272   0.71361   0.00000  Uiso   1.00
O840   O     0.40405   0.18878   0.78213   0.00000  Uiso   1.00
O841   O     0.58824   0.15226   0.77014   0.00000  Uiso   1.00
O842   O     0.47093   0.06944   0.73413   0.00000  Uiso   1.00
O843   O     0.53678   0.25620   0.71361   0.00000  Uiso   1.00
Zn844  Zn    0.52672   0.13994   0.78734   0.00000  Uiso   1.00
Zn845  Zn    0.46713   0.12458   0.71876   0.00000  Uiso   1.00
Zn846  Zn    0.54389   0.19775   0.70657   0.00000  Uiso   1.00
Zn847  Zn    0.46226   0.20439   0.78734   0.00000  Uiso   1.00
C848   C     0.71988   0.15997   0.75928   0.00000  Uiso   1.00
C849   C     0.83666   0.16004   0.56002   0.00000  Uiso   1.00
C850   C     0.88831   0.11297   0.55774   0.00000  Uiso   1.00
C851   C     0.94734   0.17367   0.74026   0.00000  Uiso   1.00
C852   C     0.80878   0.19365   0.92061   0.00000  Uiso   1.00
C853   C     0.99305   0.17716   0.73796   0.00000  Uiso   1.00
C854   C     0.67424   0.15517   0.76422   0.00000  Uiso   1.00
C855   C     0.84671   0.32247   0.73753   0.00000  Uiso   1.00
C856   C     0.81790   0.01254   0.76439   0.00000  Uiso   1.00
C857   C     0.82295   0.05613   0.76007   0.00000  Uiso   1.00
C858   C     0.84306   0.27785   0.74039   0.00000  Uiso   1.00
C859   C     0.75686   0.20743   0.99087   0.00000  Uiso   1.00
C860   C     0.85187   0.14808   0.62962   0.00000  Uiso   1.00
C861   C     0.81645   0.18587   0.87099   0.00000  Uiso   1.00
C862   C     0.89568   0.10710   0.51103   0.00000  Uiso   1.00
C863   C     0.85938   0.14010   0.58163   0.00000  Uiso   1.00
C864   C     0.77207   0.21212   0.94545   0.00000  Uiso   1.00
C865   C     0.66690   0.10709   0.81732   0.00000  Uiso   1.00
C866   C     0.89631   0.08061   0.88772   0.00000  Uiso   1.00
C867   C     0.90579   0.04073   0.98477   0.00000  Uiso   1.00
C868   C     0.73208   0.13453   0.55131   0.00000  Uiso   1.00
C869   C     0.93602   0.20533   0.89479   0.00000  Uiso   1.00
C870   C     0.77705   0.18497   0.51292   0.00000  Uiso   1.00
C871   C     0.69874   0.18804   0.66722   0.00000  Uiso   1.00
C872   C     0.81779   0.17244   0.99105   0.00000  Uiso   1.00
C873   C     0.83399   0.17722   0.94449   0.00000  Uiso   1.00
C874   C     0.84244   0.15402   0.51360   0.00000  Uiso   1.00
C875   C     0.87530   0.13045   0.98858   0.00000  Uiso   1.00
C876   C     0.88872   0.13333   0.94219   0.00000  Uiso   1.00
C877   C     0.87451   0.16409   0.92350   0.00000  Uiso   1.00
Cl878  Cl    0.91757   0.08838   0.58575   0.00000  Uiso   1.00
Cl879  Cl    0.89076   0.01182   0.69736   0.00000  Uiso   1.00
Cl880  Cl    0.77172   0.32789   0.80498   0.00000  Uiso   1.00
Cl881  Cl    0.74104   0.23913   0.92195   0.00000  Uiso   1.00
H882   H     0.81660   0.18236   0.57990   0.00000  Uiso   1.00
H883   H     0.87775   0.03832   0.97005   0.00000  Uiso   1.00
H884   H     0.89578   0.02800   0.51813   0.00000  Uiso   1.00
H885   H     0.75367   0.11056   0.53579   0.00000  Uiso   1.00
H886   H     0.70776   0.13481   0.53197   0.00000  Uiso   1.00
H887   H     0.71483   0.12554   0.58525   0.00000  Uiso   1.00
H888   H     0.95791   0.18608   0.90318   0.00000  Uiso   1.00
H889   H     0.92660   0.22973   0.92234   0.00000  Uiso   1.00
H890   H     0.95402   0.22126   0.86461   0.00000  Uiso   1.00
H891   H     0.67056   0.18051   0.65260   0.00000  Uiso   1.00
H892   H     0.71474   0.15978   0.66527   0.00000  Uiso   1.00
H893   H     0.72708   0.21890   0.50887   0.00000  Uiso   1.00
H894   H     0.72181   0.21078   0.64644   0.00000  Uiso   1.00
H895   H     0.67746   0.13136   0.84168   0.00000  Uiso   1.00
H896   H     0.69378   0.09017   0.79765   0.00000  Uiso   1.00
H897   H     0.97700   0.08365   0.83639   0.00000  Uiso   1.00
H898   H     0.89603   0.09553   0.85737   0.00000  Uiso   1.00
H899   H     0.91362   0.05293   0.87705   0.00000  Uiso   1.00
H900   H     0.86298   0.06877   0.90516   0.00000  Uiso   1.00
H901   H     0.92900   0.02106   0.96262   0.00000  Uiso   1.00
O902   O     0.83333   0.16667   0.75000   0.00000  Uiso   1.00
O903   O     0.82118   0.12637   0.65459   0.00000  Uiso   1.00
O904   O     0.79607   0.20391   0.84968   0.00000  Uiso   1.00
O905   O     0.87491   0.17759   0.64606   0.00000  Uiso   1.00
O906   O     0.84118   0.15880   0.84968   0.00000  Uiso   1.00
O907   O     0.98047   0.12424   0.78917   0.00000  Uiso   1.00
O908   O     0.91774   0.10846   0.91542   0.00000  Uiso   1.00
O909   O     0.92594   0.08190   0.98746   0.00000  Uiso   1.00
O910   O     0.75526   0.17417   0.55529   0.00000  Uiso   1.00
O911   O     0.89995   0.18057   0.88486   0.00000  Uiso   1.00
O912   O     0.68742   0.20607   0.71150   0.00000  Uiso   1.00
O913   O     0.84597   0.08019   0.78214   0.00000  Uiso   1.00
O914   O     0.81298   0.26085   0.77014   0.00000  Uiso   1.00
O915   O     0.74078   0.13291   0.73413   0.00000  Uiso   1.00
O916   O     0.93360   0.19272   0.71361   0.00000  Uiso   1.00
O917   O     0.73738   0.18878   0.78213   0.00000  Uiso   1.00
O918   O     0.92158   0.15226   0.77014   0.00000  Uiso   1.00
O919   O     0.80426   0.06944   0.73413   0.00000  Uiso   1.00
O920   O     0.87012   0.25620   0.71361   0.00000  Uiso   1.00
Zn921  Zn    0.86005   0.13994   0.78734   0.00000  Uiso   1.00
Zn922  Zn    0.80046   0.12458   0.71876   0.00000  Uiso   1.00
Zn923  Zn    0.87723   0.19775   0.70657   0.00000  Uiso   1.00
Zn924  Zn    0.79560   0.20439   0.78734   0.00000  Uiso   1.00
C925   C     0.05321   0.49330   0.75928   0.00000  Uiso   1.00
C926   C     0.16999   0.49338   0.56002   0.00000  Uiso   1.00
C927   C     0.22164   0.44630   0.55774   0.00000  Uiso   1.00
C928   C     0.28067   0.50700   0.74026   0.00000  Uiso   1.00
C929   C     0.14211   0.52698   0.92061   0.00000  Uiso   1.00
C930   C     0.32638   0.51049   0.73796   0.00000  Uiso   1.00
C931   C     0.00758   0.48851   0.76422   0.00000  Uiso   1.00
C932   C     0.18005   0.65580   0.73753   0.00000  Uiso   1.00
C933   C     0.15123   0.34587   0.76439   0.00000  Uiso   1.00
C934   C     0.15628   0.38946   0.76007   0.00000  Uiso   1.00
C935   C     0.17639   0.61118   0.74039   0.00000  Uiso   1.00
C936   C     0.09019   0.54076   0.99087   0.00000  Uiso   1.00
C937   C     0.18520   0.48141   0.62962   0.00000  Uiso   1.00
C938   C     0.14978   0.51920   0.87099   0.00000  Uiso   1.00
C939   C     0.22902   0.44044   0.51103   0.00000  Uiso   1.00
C940   C     0.19271   0.47343   0.58163   0.00000  Uiso   1.00
C941   C     0.10541   0.54546   0.94545   0.00000  Uiso   1.00
C942   C     0.00023   0.44042   0.81732   0.00000  Uiso   1.00
C943   C     0.22964   0.41394   0.88772   0.00000  Uiso   1.00
C944   C     0.23912   0.37406   0.98477   0.00000  Uiso   1.00
C945   C     0.06541   0.46786   0.55131   0.00000  Uiso   1.00
C946   C     0.26935   0.53867   0.89479   0.00000  Uiso   1.00
C947   C     0.11039   0.51831   0.51292   0.00000  Uiso   1.00
C948   C     0.03207   0.52137   0.66722   0.00000  Uiso   1.00
C949   C     0.15112   0.50577   0.99105   0.00000  Uiso   1.00
C950   C     0.16732   0.51056   0.94449   0.00000  Uiso   1.00
C951   C     0.17577   0.48735   0.51360   0.00000  Uiso   1.00
C952   C     0.20863   0.46378   0.98858   0.00000  Uiso   1.00
C953   C     0.22206   0.46666   0.94219   0.00000  Uiso   1.00
C954   C     0.20784   0.49743   0.92350   0.00000  Uiso   1.00
Cl955  Cl    0.25091   0.42172   0.58575   0.00000  Uiso   1.00
Cl956  Cl    0.22410   0.34516   0.69736   0.00000  Uiso   1.00
Cl957  Cl    0.10505   0.66123   0.80498   0.00000  Uiso   1.00
Cl958  Cl    0.07438   0.57246   0.92195   0.00000  Uiso   1.00
H959   H     0.14994   0.51570   0.57990   0.00000  Uiso   1.00
H960   H     0.21108   0.37166   0.97005   0.00000  Uiso   1.00
H961   H     0.22911   0.36133   0.51813   0.00000  Uiso   1.00
H962   H     0.08700   0.44389   0.53579   0.00000  Uiso   1.00
H963   H     0.04110   0.46814   0.53197   0.00000  Uiso   1.00
H964   H     0.04816   0.45887   0.58525   0.00000  Uiso   1.00
H965   H     0.29124   0.51941   0.90318   0.00000  Uiso   1.00
H966   H     0.25993   0.56307   0.92234   0.00000  Uiso   1.00
H967   H     0.28735   0.55460   0.86461   0.00000  Uiso   1.00
H968   H     0.00390   0.51385   0.65260   0.00000  Uiso   1.00
H969   H     0.04808   0.49311   0.66527   0.00000  Uiso   1.00
H970   H     0.06041   0.55224   0.50887   0.00000  Uiso   1.00
H971   H     0.05515   0.54411   0.64644   0.00000  Uiso   1.00
H972   H     0.01080   0.46469   0.84168   0.00000  Uiso   1.00
H973   H     0.02711   0.42351   0.79765   0.00000  Uiso   1.00
H974   H     0.31033   0.41699   0.83639   0.00000  Uiso   1.00
H975   H     0.22937   0.42886   0.85737   0.00000  Uiso   1.00
H976   H     0.24695   0.38626   0.87705   0.00000  Uiso   1.00
H977   H     0.19632   0.40211   0.90516   0.00000  Uiso   1.00
H978   H     0.26234   0.35440   0.96262   0.00000  Uiso   1.00
O979   O     0.16667   0.50000   0.75000   0.00000  Uiso   1.00
O980   O     0.15451   0.45970   0.65459   0.00000  Uiso   1.00
O981   O     0.12940   0.53724   0.84968   0.00000  Uiso   1.00
O982   O     0.20824   0.51092   0.64606   0.00000  Uiso   1.00
O983   O     0.17451   0.49213   0.84968   0.00000  Uiso   1.00
O984   O     0.31381   0.45758   0.78917   0.00000  Uiso   1.00
O985   O     0.25107   0.44180   0.91542   0.00000  Uiso   1.00
O986   O     0.25927   0.41524   0.98746   0.00000  Uiso   1.00
O987   O     0.08860   0.50750   0.55529   0.00000  Uiso   1.00
O988   O     0.23328   0.51390   0.88486   0.00000  Uiso   1.00
O989   O     0.02075   0.53940   0.71150   0.00000  Uiso   1.00
O990   O     0.17930   0.41352   0.78214   0.00000  Uiso   1.00
O991   O     0.14632   0.59418   0.77014   0.00000  Uiso   1.00
O992   O     0.07412   0.46625   0.73413   0.00000  Uiso   1.00
O993   O     0.26693   0.52605   0.71361   0.00000  Uiso   1.00
O994   O     0.07071   0.52211   0.78213   0.00000  Uiso   1.00
O995   O     0.25491   0.48559   0.77014   0.00000  Uiso   1.00
O996   O     0.13760   0.40277   0.73413   0.00000  Uiso   1.00
O997   O     0.20345   0.58953   0.71361   0.00000  Uiso   1.00
Zn998  Zn    0.19338   0.47327   0.78734   0.00000  Uiso   1.00
Zn999  Zn    0.13379   0.45791   0.71876   0.00000  Uiso   1.00
Zn1000 Zn    0.21056   0.53109   0.70657   0.00000  Uiso   1.00
Zn1001 Zn    0.12893   0.53773   0.78734   0.00000  Uiso   1.00
C1002  C     0.38655   0.49330   0.75928   0.00000  Uiso   1.00
C1003  C     0.50333   0.49338   0.56002   0.00000  Uiso   1.00
C1004  C     0.55498   0.44630   0.55774   0.00000  Uiso   1.00
C1005  C     0.61401   0.50700   0.74026   0.00000  Uiso   1.00
C1006  C     0.47545   0.52698   0.92061   0.00000  Uiso   1.00
C1007  C     0.65971   0.51049   0.73796   0.00000  Uiso   1.00
C1008  C     0.34091   0.48851   0.76422   0.00000  Uiso   1.00
C1009  C     0.51338   0.65580   0.73753   0.00000  Uiso   1.00
C1010  C     0.48456   0.34587   0.76439   0.00000  Uiso   1.00
C1011  C     0.48962   0.38946   0.76007   0.00000  Uiso   1.00
C1012  C     0.50972   0.61118   0.74039   0.00000  Uiso   1.00
C1013  C     0.42353   0.54076   0.99087   0.00000  Uiso   1.00
C1014  C     0.51854   0.48141   0.62962   0.00000  Uiso   1.00
C1015  C     0.48312   0.51920   0.87099   0.00000  Uiso   1.00
C1016  C     0.56235   0.44044   0.51103   0.00000  Uiso   1.00
C1017  C     0.52604   0.47343   0.58163   0.00000  Uiso   1.00
C1018  C     0.43874   0.54546   0.94545   0.00000  Uiso   1.00
C1019  C     0.33357   0.44042   0.81732   0.00000  Uiso   1.00
C1020  C     0.56298   0.41394   0.88772   0.00000  Uiso   1.00
C1021  C     0.57246   0.37406   0.98477   0.00000  Uiso   1.00
C1022  C     0.39874   0.46786   0.55131   0.00000  Uiso   1.00
C1023  C     0.60269   0.53867   0.89479   0.00000  Uiso   1.00
C1024  C     0.44372   0.51831   0.51292   0.00000  Uiso   1.00
C1025  C     0.36541   0.52137   0.66722   0.00000  Uiso   1.00
C1026  C     0.48445   0.50577   0.99105   0.00000  Uiso   1.00
C1027  C     0.50066   0.51056   0.94449   0.00000  Uiso   1.00
C1028  C     0.50911   0.48735   0.51360   0.00000  Uiso   1.00
C1029  C     0.54197   0.46378   0.98858   0.00000  Uiso   1.00
C1030  C     0.55539   0.46666   0.94219   0.00000  Uiso   1.00
C1031  C     0.54117   0.49743   0.92350   0.00000  Uiso   1.00
Cl1032 Cl    0.58424   0.42172   0.58575   0.00000  Uiso   1.00
Cl1033 Cl    0.55743   0.34516   0.69736   0.00000  Uiso   1.00
Cl1034 Cl    0.43838   0.66123   0.80498   0.00000  Uiso   1.00
Cl1035 Cl    0.40771   0.57246   0.92195   0.00000  Uiso   1.00
H1036  H     0.48327   0.51570   0.57990   0.00000  Uiso   1.00
H1037  H     0.54441   0.37166   0.97005   0.00000  Uiso   1.00
H1038  H     0.56245   0.36133   0.51813   0.00000  Uiso   1.00
H1039  H     0.42033   0.44389   0.53579   0.00000  Uiso   1.00
H1040  H     0.37443   0.46814   0.53197   0.00000  Uiso   1.00
H1041  H     0.38150   0.45887   0.58525   0.00000  Uiso   1.00
H1042  H     0.62457   0.51941   0.90318   0.00000  Uiso   1.00
H1043  H     0.59326   0.56307   0.92234   0.00000  Uiso   1.00
H1044  H     0.62068   0.55460   0.86461   0.00000  Uiso   1.00
H1045  H     0.33723   0.51385   0.65260   0.00000  Uiso   1.00
H1046  H     0.38141   0.49311   0.66527   0.00000  Uiso   1.00
H1047  H     0.39375   0.55224   0.50887   0.00000  Uiso   1.00
H1048  H     0.38848   0.54411   0.64644   0.00000  Uiso   1.00
H1049  H     0.34413   0.46469   0.84168   0.00000  Uiso   1.00
H1050  H     0.36044   0.42351   0.79765   0.00000  Uiso   1.00
H1051  H     0.64367   0.41699   0.83639   0.00000  Uiso   1.00
H1052  H     0.56270   0.42886   0.85737   0.00000  Uiso   1.00
H1053  H     0.58029   0.38626   0.87705   0.00000  Uiso   1.00
H1054  H     0.52965   0.40211   0.90516   0.00000  Uiso   1.00
H1055  H     0.59567   0.35440   0.96262   0.00000  Uiso   1.00
O1056  O     0.50000   0.50000   0.75000   0.00000  Uiso   1.00
O1057  O     0.48784   0.45970   0.65459   0.00000  Uiso   1.00
O1058  O     0.46274   0.53724   0.84968   0.00000  Uiso   1.00
O1059  O     0.54157   0.51092   0.64606   0.00000  Uiso   1.00
O1060  O     0.50785   0.49213   0.84968   0.00000  Uiso   1.00
O1061  O     0.64714   0.45758   0.78917   0.00000  Uiso   1.00
O1062  O     0.58440   0.44180   0.91542   0.00000  Uiso   1.00
O1063  O     0.59260   0.41524   0.98746   0.00000  Uiso   1.00
O1064  O     0.42193   0.50750   0.55529   0.00000  Uiso   1.00
O1065  O     0.56662   0.51390   0.88486   0.00000  Uiso   1.00
O1066  O     0.35409   0.53940   0.71150   0.00000  Uiso   1.00
O1067  O     0.51264   0.41352   0.78214   0.00000  Uiso   1.00
O1068  O     0.47965   0.59418   0.77014   0.00000  Uiso   1.00
O1069  O     0.40745   0.46625   0.73413   0.00000  Uiso   1.00
O1070  O     0.60026   0.52605   0.71361   0.00000  Uiso   1.00
O1071  O     0.40405   0.52211   0.78213   0.00000  Uiso   1.00
O1072  O     0.58824   0.48559   0.77014   0.00000  Uiso   1.00
O1073  O     0.47093   0.40277   0.73413   0.00000  Uiso   1.00
O1074  O     0.53678   0.58953   0.71361   0.00000  Uiso   1.00
Zn1075 Zn    0.52672   0.47327   0.78734   0.00000  Uiso   1.00
Zn1076 Zn    0.46713   0.45791   0.71876   0.00000  Uiso   1.00
Zn1077 Zn    0.54389   0.53109   0.70657   0.00000  Uiso   1.00
Zn1078 Zn    0.46226   0.53773   0.78734   0.00000  Uiso   1.00
C1079  C     0.71988   0.49330   0.75928   0.00000  Uiso   1.00
C1080  C     0.83666   0.49338   0.56002   0.00000  Uiso   1.00
C1081  C     0.88831   0.44630   0.55774   0.00000  Uiso   1.00
C1082  C     0.94734   0.50700   0.74026   0.00000  Uiso   1.00
C1083  C     0.80878   0.52698   0.92061   0.00000  Uiso   1.00
C1084  C     0.99305   0.51049   0.73796   0.00000  Uiso   1.00
C1085  C     0.67424   0.48851   0.76422   0.00000  Uiso   1.00
C1086  C     0.84671   0.65580   0.73753   0.00000  Uiso   1.00
C1087  C     0.81790   0.34587   0.76439   0.00000  Uiso   1.00
C1088  C     0.82295   0.38946   0.76007   0.00000  Uiso   1.00
C1089  C     0.84306   0.61118   0.74039   0.00000  Uiso   1.00
C1090  C     0.75686   0.54076   0.99087   0.00000  Uiso   1.00
C1091  C     0.85187   0.48141   0.62962   0.00000  Uiso   1.00
C1092  C     0.81645   0.51920   0.87099   0.00000  Uiso   1.00
C1093  C     0.89568   0.44044   0.51103   0.00000  Uiso   1.00
C1094  C     0.85938   0.47343   0.58163   0.00000  Uiso   1.00
C1095  C     0.77207   0.54546   0.94545   0.00000  Uiso   1.00
C1096  C     0.66690   0.44042   0.81732   0.00000  Uiso   1.00
C1097  C     0.89631   0.41394   0.88772   0.00000  Uiso   1.00
C1098  C     0.90579   0.37406   0.98477   0.00000  Uiso   1.00
C1099  C     0.73208   0.46786   0.55131   0.00000  Uiso   1.00
C1100  C     0.93602   0.53867   0.89479   0.00000  Uiso   1.00
C1101  C     0.77705   0.51831   0.51292   0.00000  Uiso   1.00
C1102  C     0.69874   0.52137   0.66722   0.00000  Uiso   1.00
C1103  C     0.81779   0.50577   0.99105   0.00000  Uiso   1.00
C1104  C     0.83399   0.51056   0.94449   0.00000  Uiso   1.00
C1105  C     0.84244   0.48735   0.51360   0.00000  Uiso   1.00
C1106  C     0.87530   0.46378   0.98858   0.00000  Uiso   1.00
C1107  C     0.88872   0.46666   0.94219   0.00000  Uiso   1.00
C1108  C     0.87451   0.49743   0.92350   0.00000  Uiso   1.00
Cl1109 Cl    0.91757   0.42172   0.58575   0.00000  Uiso   1.00
Cl1110 Cl    0.89076   0.34516   0.69736   0.00000  Uiso   1.00
Cl1111 Cl    0.77172   0.66123   0.80498   0.00000  Uiso   1.00
Cl1112 Cl    0.74104   0.57246   0.92195   0.00000  Uiso   1.00
H1113  H     0.81660   0.51570   0.57990   0.00000  Uiso   1.00
H1114  H     0.87775   0.37166   0.97005   0.00000  Uiso   1.00
H1115  H     0.89578   0.36133   0.51813   0.00000  Uiso   1.00
H1116  H     0.75367   0.44389   0.53579   0.00000  Uiso   1.00
H1117  H     0.70776   0.46814   0.53197   0.00000  Uiso   1.00
H1118  H     0.71483   0.45887   0.58525   0.00000  Uiso   1.00
H1119  H     0.95791   0.51941   0.90318   0.00000  Uiso   1.00
H1120  H     0.92660   0.56307   0.92234   0.00000  Uiso   1.00
H1121  H     0.95402   0.55460   0.86461   0.00000  Uiso   1.00
H1122  H     0.67056   0.51385   0.65260   0.00000  Uiso   1.00
H1123  H     0.71474   0.49311   0.66527   0.00000  Uiso   1.00
H1124  H     0.72708   0.55224   0.50887   0.00000  Uiso   1.00
H1125  H     0.72181   0.54411   0.64644   0.00000  Uiso   1.00
H1126  H     0.67746   0.46469   0.84168   0.00000  Uiso   1.00
H1127  H     0.69378   0.42351   0.79765   0.00000  Uiso   1.00
H1128  H     0.97700   0.41699   0.83639   0.00000  Uiso   1.00
H1129  H     0.89603   0.42886   0.85737   0.00000  Uiso   1.00
H1130  H     0.91362   0.38626   0.87705   0.00000  Uiso   1.00
H1131  H     0.86298   0.40211   0.90516   0.00000  Uiso   1.00
H1132  H     0.92900   0.35440   0.96262   0.00000  Uiso   1.00
O1133  O     0.83333   0.50000   0.75000   0.00000  Uiso   1.00
O1134  O     0.82118   0.45970   0.65459   0.00000  Uiso   1.00
O1135  O     0.79607   0.53724   0.84968   0.00000  Uiso   1.00
O1136  O     0.87491   0.51092   0.64606   0.00000  Uiso   1.00
O1137  O     0.84118   0.49213   0.84968   0.00000  Uiso   1.00
O1138  O     0.98047   0.45758   0.78917   0.00000  Uiso   1.00
O1139  O     0.91774   0.44180   0.91542   0.00000  Uiso   1.00
O1140  O     0.92594   0.41524   0.98746   0.00000  Uiso   1.00
O1141  O     0.75526   0.50750   0.55529   0.00000  Uiso   1.00
O1142  O     0.89995   0.51390   0.88486   0.00000  Uiso   1.00
O1143  O     0.68742   0.53940   0.71150   0.00000  Uiso   1.00
O1144  O     0.84597   0.41352   0.78214   0.00000  Uiso   1.00
O1145  O     0.81298   0.59418   0.77014   0.00000  Uiso   1.00
O1146  O     0.74078   0.46625   0.73413   0.00000  Uiso   1.00
O1147  O     0.93360   0.52605   0.71361   0.00000  Uiso   1.00
O1148  O     0.73738   0.52211   0.78213   0.00000  Uiso   1.00
O1149  O     0.92158   0.48559   0.77014   0.00000  Uiso   1.00
O1150  O     0.80426   0.40277   0.73413   0.00000  Uiso   1.00
O1151  O     0.87012   0.58953   0.71361   0.00000  Uiso   1.00
Zn1152 Zn    0.86005   0.47327   0.78734   0.00000  Uiso   1.00
Zn1153 Zn    0.80046   0.45791   0.71876   0.00000  Uiso   1.00
Zn1154 Zn    0.87723   0.53109   0.70657   0.00000  Uiso   1.00
Zn1155 Zn    0.79560   0.53773   0.78734   0.00000  Uiso   1.00
C1156  C     0.05321   0.82663   0.75928   0.00000  Uiso   1.00
C1157  C     0.16999   0.82671   0.56002   0.00000  Uiso   1.00
C1158  C     0.22164   0.77964   0.55774   0.00000  Uiso   1.00
C1159  C     0.28067   0.84034   0.74026   0.00000  Uiso   1.00
C1160  C     0.14211   0.86031   0.92061   0.00000  Uiso   1.00
C1161  C     0.32638   0.84382   0.73796   0.00000  Uiso   1.00
C1162  C     0.00758   0.82184   0.76422   0.00000  Uiso   1.00
C1163  C     0.18005   0.98913   0.73753   0.00000  Uiso   1.00
C1164  C     0.15123   0.67921   0.76439   0.00000  Uiso   1.00
C1165  C     0.15628   0.72280   0.76007   0.00000  Uiso   1.00
C1166  C     0.17639   0.94452   0.74039   0.00000  Uiso   1.00
C1167  C     0.09019   0.87410   0.99087   0.00000  Uiso   1.00
C1168  C     0.18520   0.81474   0.62962   0.00000  Uiso   1.00
C1169  C     0.14978   0.85254   0.87099   0.00000  Uiso   1.00
C1170  C     0.22902   0.77377   0.51103   0.00000  Uiso   1.00
C1171  C     0.19271   0.80676   0.58163   0.00000  Uiso   1.00
C1172  C     0.10541   0.87879   0.94545   0.00000  Uiso   1.00
C1173  C     0.00023   0.77376   0.81732   0.00000  Uiso   1.00
C1174  C     0.22964   0.74728   0.88772   0.00000  Uiso   1.00
C1175  C     0.23912   0.70740   0.98477   0.00000  Uiso   1.00
C1176  C     0.06541   0.80119   0.55131   0.00000  Uiso   1.00
C1177  C     0.26935   0.87200   0.89479   0.00000  Uiso   1.00
C1178  C     0.11039   0.85164   0.51292   0.00000  Uiso   1.00
C1179  C     0.03207   0.85470   0.66722   0.00000  Uiso   1.00
C1180  C     0.15112   0.83910   0.99105   0.00000  Uiso   1.00
C1181  C     0.16732   0.84389   0.94449   0.00000  Uiso   1.00
C1182  C     0.17577   0.82068   0.51360   0.00000  Uiso   1.00
C1183  C     0.20863   0.79711   0.98858   0.00000  Uiso   1.00
C1184  C     0.22206   0.80000   0.94219   0.00000  Uiso   1.00
C1185  C     0.20784   0.83076   0.92350   0.00000  Uiso   1.00
Cl1186 Cl    0.25091   0.75505   0.58575   0.00000  Uiso   1.00
Cl1187 Cl    0.22410   0.67849   0.69736   0.00000  Uiso   1.00
Cl1188 Cl    0.10505   0.99456   0.80498   0.00000  Uiso   1.00
Cl1189 Cl    0.07438   0.90580   0.92195   0.00000  Uiso   1.00
H1190  H     0.14994   0.84903   0.57990   0.00000  Uiso   1.00
H1191  H     0.21108   0.70499   0.97005   0.00000  Uiso   1.00
H1192  H     0.22911   0.69466   0.51813   0.00000  Uiso   1.00
H1193  H     0.08700   0.77723   0.53579   0.00000  Uiso   1.00
H1194  H     0.04110   0.80148   0.53197   0.00000  Uiso   1.00
H1195  H     0.04816   0.79221   0.58525   0.00000  Uiso   1.00
H1196  H     0.29124   0.85274   0.90318   0.00000  Uiso   1.00
H1197  H     0.25993   0.89640   0.92234   0.00000  Uiso   1.00
H1198  H     0.28735   0.88793   0.86461   0.00000  Uiso   1.00
H1199  H     0.00390   0.84718   0.65260   0.00000  Uiso   1.00
H1200  H     0.04808   0.82644   0.66527   0.00000  Uiso   1.00
H1201  H     0.06041   0.88557   0.50887   0.00000  Uiso   1.00
H1202  H     0.05515   0.87744   0.64644   0.00000  Uiso   1.00
H1203  H     0.01080   0.79803   0.84168   0.00000  Uiso   1.00
H1204  H     0.02711   0.75684   0.79765   0.00000  Uiso   1.00
H1205  H     0.31033   0.75032   0.83639   0.00000  Uiso   1.00
H1206  H     0.22937   0.76220   0.85737   0.00000  Uiso   1.00
H1207  H     0.24695   0.71959   0.87705   0.00000  Uiso   1.00
H1208  H     0.19632   0.73544   0.90516   0.00000  Uiso   1.00
H1209  H     0.26234   0.68773   0.96262   0.00000  Uiso   1.00
O1210  O     0.16667   0.83333   0.75000   0.00000  Uiso   1.00
O1211  O     0.15451   0.79304   0.65459   0.00000  Uiso   1.00
O1212  O     0.12940   0.87058   0.84968   0.00000  Uiso   1.00
O1213  O     0.20824   0.84425   0.64606   0.00000  Uiso   1.00
O1214  O     0.17451   0.82546   0.84968   0.00000  Uiso   1.00
O1215  O     0.31381   0.79091   0.78917   0.00000  Uiso   1.00
O1216  O     0.25107   0.77513   0.91542   0.00000  Uiso   1.00
O1217  O     0.25927   0.74857   0.98746   0.00000  Uiso   1.00
O1218  O     0.08860   0.84083   0.55529   0.00000  Uiso   1.00
O1219  O     0.23328   0.84724   0.88486   0.00000  Uiso   1.00
O1220  O     0.02075   0.87273   0.71150   0.00000  Uiso   1.00
O1221  O     0.17930   0.74686   0.78214   0.00000  Uiso   1.00
O1222  O     0.14632   0.92751   0.77014   0.00000  Uiso   1.00
O1223  O     0.07412   0.79958   0.73413   0.00000  Uiso   1.00
O1224  O     0.26693   0.85939   0.71361   0.00000  Uiso   1.00
O1225  O     0.07071   0.85544   0.78213   0.00000  Uiso   1.00
O1226  O     0.25491   0.81892   0.77014   0.00000  Uiso   1.00
O1227  O     0.13760   0.73610   0.73413   0.00000  Uiso   1.00
O1228  O     0.20345   0.92286   0.71361   0.00000  Uiso   1.00
Zn1229 Zn    0.19338   0.80661   0.78734   0.00000  Uiso   1.00
Zn1230 Zn    0.13379   0.79124   0.71876   0.00000  Uiso   1.00
Zn1231 Zn    0.21056   0.86442   0.70657   0.00000  Uiso   1.00
Zn1232 Zn    0.12893   0.87106   0.78734   0.00000  Uiso   1.00
C1233  C     0.38655   0.82663   0.75928   0.00000  Uiso   1.00
C1234  C     0.50333   0.82671   0.56002   0.00000  Uiso   1.00
C1235  C     0.55498   0.77964   0.55774   0.00000  Uiso   1.00
C1236  C     0.61401   0.84034   0.74026   0.00000  Uiso   1.00
C1237  C     0.47545   0.86031   0.92061   0.00000  Uiso   1.00
C1238  C     0.65971   0.84382   0.73796   0.00000  Uiso   1.00
C1239  C     0.34091   0.82184   0.76422   0.00000  Uiso   1.00
C1240  C     0.51338   0.98913   0.73753   0.00000  Uiso   1.00
C1241  C     0.48456   0.67921   0.76439   0.00000  Uiso   1.00
C1242  C     0.48962   0.72280   0.76007   0.00000  Uiso   1.00
C1243  C     0.50972   0.94452   0.74039   0.00000  Uiso   1.00
C1244  C     0.42353   0.87410   0.99087   0.00000  Uiso   1.00
C1245  C     0.51854   0.81474   0.62962   0.00000  Uiso   1.00
C1246  C     0.48312   0.85254   0.87099   0.00000  Uiso   1.00
C1247  C     0.56235   0.77377   0.51103   0.00000  Uiso   1.00
C1248  C     0.52604   0.80676   0.58163   0.00000  Uiso   1.00
C1249  C     0.43874   0.87879   0.94545   0.00000  Uiso   1.00
C1250  C     0.33357   0.77376   0.81732   0.00000  Uiso   1.00
C1251  C     0.56298   0.74728   0.88772   0.00000  Uiso   1.00
C1252  C     0.57246   0.70740   0.98477   0.00000  Uiso   1.00
C1253  C     0.39874   0.80119   0.55131   0.00000  Uiso   1.00
C1254  C     0.60269   0.87200   0.89479   0.00000  Uiso   1.00
C1255  C     0.44372   0.85164   0.51292   0.00000  Uiso   1.00
C1256  C     0.36541   0.85470   0.66722   0.00000  Uiso   1.00
C1257  C     0.48445   0.83910   0.99105   0.00000  Uiso   1.00
C1258  C     0.50066   0.84389   0.94449   0.00000  Uiso   1.00
C1259  C     0.50911   0.82068   0.51360   0.00000  Uiso   1.00
C1260  C     0.54197   0.79711   0.98858   0.00000  Uiso   1.00
C1261  C     0.55539   0.80000   0.94219   0.00000  Uiso   1.00
C1262  C     0.54117   0.83076   0.92350   0.00000  Uiso   1.00
Cl1263 Cl    0.58424   0.75505   0.58575   0.00000  Uiso   1.00
Cl1264 Cl    0.55743   0.67849   0.69736   0.00000  Uiso   1.00
Cl1265 Cl    0.43838   0.99456   0.80498   0.00000  Uiso   1.00
Cl1266 Cl    0.40771   0.90580   0.92195   0.00000  Uiso   1.00
H1267  H     0.48327   0.84903   0.57990   0.00000  Uiso   1.00
H1268  H     0.54441   0.70499   0.97005   0.00000  Uiso   1.00
H1269  H     0.56245   0.69466   0.51813   0.00000  Uiso   1.00
H1270  H     0.42033   0.77723   0.53579   0.00000  Uiso   1.00
H1271  H     0.37443   0.80148   0.53197   0.00000  Uiso   1.00
H1272  H     0.38150   0.79221   0.58525   0.00000  Uiso   1.00
H1273  H     0.62457   0.85274   0.90318   0.00000  Uiso   1.00
H1274  H     0.59326   0.89640   0.92234   0.00000  Uiso   1.00
H1275  H     0.62068   0.88793   0.86461   0.00000  Uiso   1.00
H1276  H     0.33723   0.84718   0.65260   0.00000  Uiso   1.00
H1277  H     0.38141   0.82644   0.66527   0.00000  Uiso   1.00
H1278  H     0.39375   0.88557   0.50887   0.00000  Uiso   1.00
H1279  H     0.38848   0.87744   0.64644   0.00000  Uiso   1.00
H1280  H     0.34413   0.79803   0.84168   0.00000  Uiso   1.00
H1281  H     0.36044   0.75684   0.79765   0.00000  Uiso   1.00
H1282  H     0.64367   0.75032   0.83639   0.00000  Uiso   1.00
H1283  H     0.56270   0.76220   0.85737   0.00000  Uiso   1.00
H1284  H     0.58029   0.71959   0.87705   0.00000  Uiso   1.00
H1285  H     0.52965   0.73544   0.90516   0.00000  Uiso   1.00
H1286  H     0.59567   0.68773   0.96262   0.00000  Uiso   1.00
O1287  O     0.50000   0.83333   0.75000   0.00000  Uiso   1.00
O1288  O     0.48784   0.79304   0.65459   0.00000  Uiso   1.00
O1289  O     0.46274   0.87058   0.84968   0.00000  Uiso   1.00
O1290  O     0.54157   0.84425   0.64606   0.00000  Uiso   1.00
O1291  O     0.50785   0.82546   0.84968   0.00000  Uiso   1.00
O1292  O     0.64714   0.79091   0.78917   0.00000  Uiso   1.00
O1293  O     0.58440   0.77513   0.91542   0.00000  Uiso   1.00
O1294  O     0.59260   0.74857   0.98746   0.00000  Uiso   1.00
O1295  O     0.42193   0.84083   0.55529   0.00000  Uiso   1.00
O1296  O     0.56662   0.84724   0.88486   0.00000  Uiso   1.00
O1297  O     0.35409   0.87273   0.71150   0.00000  Uiso   1.00
O1298  O     0.51264   0.74686   0.78214   0.00000  Uiso   1.00
O1299  O     0.47965   0.92751   0.77014   0.00000  Uiso   1.00
O1300  O     0.40745   0.79958   0.73413   0.00000  Uiso   1.00
O1301  O     0.60026   0.85939   0.71361   0.00000  Uiso   1.00
O1302  O     0.40405   0.85544   0.78213   0.00000  Uiso   1.00
O1303  O     0.58824   0.81892   0.77014   0.00000  Uiso   1.00
O1304  O     0.47093   0.73610   0.73413   0.00000  Uiso   1.00
O1305  O     0.53678   0.92286   0.71361   0.00000  Uiso   1.00
Zn1306 Zn    0.52672   0.80661   0.78734   0.00000  Uiso   1.00
Zn1307 Zn    0.46713   0.79124   0.71876   0.00000  Uiso   1.00
Zn1308 Zn    0.54389   0.86442   0.70657   0.00000  Uiso   1.00
Zn1309 Zn    0.46226   0.87106   0.78734   0.00000  Uiso   1.00
C1310  C     0.71988   0.82663   0.75928   0.00000  Uiso   1.00
C1311  C     0.83666   0.82671   0.56002   0.00000  Uiso   1.00
C1312  C     0.88831   0.77964   0.55774   0.00000  Uiso   1.00
C1313  C     0.94734   0.84034   0.74026   0.00000  Uiso   1.00
C1314  C     0.80878   0.86031   0.92061   0.00000  Uiso   1.00
C1315  C     0.99305   0.84382   0.73796   0.00000  Uiso   1.00
C1316  C     0.67424   0.82184   0.76422   0.00000  Uiso   1.00
C1317  C     0.84671   0.98913   0.73753   0.00000  Uiso   1.00
C1318  C     0.81790   0.67921   0.76439   0.00000  Uiso   1.00
C1319  C     0.82295   0.72280   0.76007   0.00000  Uiso   1.00
C1320  C     0.84306   0.94452   0.74039   0.00000  Uiso   1.00
C1321  C     0.75686   0.87410   0.99087   0.00000  Uiso   1.00
C1322  C     0.85187   0.81474   0.62962   0.00000  Uiso   1.00
C1323  C     0.81645   0.85254   0.87099   0.00000  Uiso   1.00
C1324  C     0.89568   0.77377   0.51103   0.00000  Uiso   1.00
C1325  C     0.85938   0.80676   0.58163   0.00000  Uiso   1.00
C1326  C     0.77207   0.87879   0.94545   0.00000  Uiso   1.00
C1327  C     0.66690   0.77376   0.81732   0.00000  Uiso   1.00
C1328  C     0.89631   0.74728   0.88772   0.00000  Uiso   1.00
C1329  C     0.90579   0.70740   0.98477   0.00000  Uiso   1.00
C1330  C     0.73208   0.80119   0.55131   0.00000  Uiso   1.00
C1331  C     0.93602   0.87200   0.89479   0.00000  Uiso   1.00
C1332  C     0.77705   0.85164   0.51292   0.00000  Uiso   1.00
C1333  C     0.69874   0.85470   0.66722   0.00000  Uiso   1.00
C1334  C     0.81779   0.83910   0.99105   0.00000  Uiso   1.00
C1335  C     0.83399   0.84389   0.94449   0.00000  Uiso   1.00
C1336  C     0.84244   0.82068   0.51360   0.00000  Uiso   1.00
C1337  C     0.87530   0.79711   0.98858   0.00000  Uiso   1.00
C1338  C     0.88872   0.80000   0.94219   0.00000  Uiso   1.00
C1339  C     0.87451   0.83076   0.92350   0.00000  Uiso   1.00
Cl1340 Cl    0.91757   0.75505   0.58575   0.00000  Uiso   1.00
Cl1341 Cl    0.89076   0.67849   0.69736   0.00000  Uiso   1.00
Cl1342 Cl    0.77172   0.99456   0.80498   0.00000  Uiso   1.00
Cl1343 Cl    0.74104   0.90580   0.92195   0.00000  Uiso   1.00
H1344  H     0.81660   0.84903   0.57990   0.00000  Uiso   1.00
H1345  H     0.87775   0.70499   0.97005   0.00000  Uiso   1.00
H1346  H     0.89578   0.69466   0.51813   0.00000  Uiso   1.00
H1347  H     0.75367   0.77723   0.53579   0.00000  Uiso   1.00
H1348  H     0.70776   0.80148   0.53197   0.00000  Uiso   1.00
H1349  H     0.71483   0.79221   0.58525   0.00000  Uiso   1.00
H1350  H     0.95791   0.85274   0.90318   0.00000  Uiso   1.00
H1351  H     0.92660   0.89640   0.92234   0.00000  Uiso   1.00
H1352  H     0.95402   0.88793   0.86461   0.00000  Uiso   1.00
H1353  H     0.67056   0.84718   0.65260   0.00000  Uiso   1.00
H1354  H     0.71474   0.82644   0.66527   0.00000  Uiso   1.00
H1355  H     0.72708   0.88557   0.50887   0.00000  Uiso   1.00
H1356  H     0.72181   0.87744   0.64644   0.00000  Uiso   1.00
H1357  H     0.67746   0.79803   0.84168   0.00000  Uiso   1.00
H1358  H     0.69378   0.75684   0.79765   0.00000  Uiso   1.00
H1359  H     0.97700   0.75032   0.83639   0.00000  Uiso   1.00
H1360  H     0.89603   0.76220   0.85737   0.00000  Uiso   1.00
H1361  H     0.91362   0.71959   0.87705   0.00000  Uiso   1.00
H1362  H     0.86298   0.73544   0.90516   0.00000  Uiso   1.00
H1363  H     0.92900   0.68773   0.96262   0.00000  Uiso   1.00
O1364  O     0.83333   0.83333   0.75000   0.00000  Uiso   1.00
O1365  O     0.82118   0.79304   0.65459   0.00000  Uiso   1.00
O1366  O     0.79607   0.87058   0.84968   0.00000  Uiso   1.00
O1367  O     0.87491   0.84425   0.64606   0.00000  Uiso   1.00
O1368  O     0.84118   0.82546   0.84968   0.00000  Uiso   1.00
O1369  O     0.98047   0.79091   0.78917   0.00000  Uiso   1.00
O1370  O     0.91774   0.77513   0.91542   0.00000  Uiso   1.00
O1371  O     0.92594   0.74857   0.98746   0.00000  Uiso   1.00
O1372  O     0.75526   0.84083   0.55529   0.00000  Uiso   1.00
O1373  O     0.89995   0.84724   0.88486   0.00000  Uiso   1.00
O1374  O     0.68742   0.87273   0.71150   0.00000  Uiso   1.00
O1375  O     0.84597   0.74686   0.78214   0.00000  Uiso   1.00
O1376  O     0.81298   0.92751   0.77014   0.00000  Uiso   1.00
O1377  O     0.74078   0.79958   0.73413   0.00000  Uiso   1.00
O1378  O     0.93360   0.85939   0.71361   0.00000  Uiso   1.00
O1379  O     0.73738   0.85544   0.78213   0.00000  Uiso   1.00
O1380  O     0.92158   0.81892   0.77014   0.00000  Uiso   1.00
O1381  O     0.80426   0.73610   0.73413   0.00000  Uiso   1.00
O1382  O     0.87012   0.92286   0.71361   0.00000  Uiso   1.00
Zn1383 Zn    0.86005   0.80661   0.78734   0.00000  Uiso   1.00
Zn1384 Zn    0.80046   0.79124   0.71876   0.00000  Uiso   1.00
Zn1385 Zn    0.87723   0.86442   0.70657   0.00000  Uiso   1.00
Zn1386 Zn    0.79560   0.87106   0.78734   0.00000  Uiso   1.00
loop_
_geom_bond_atom_site_label_1
_geom_bond_atom_site_label_2
_geom_bond_distance
_geom_bond_site_symmetry_2
_ccdc_geom_bond_type
C1     O68     1.264   .     A
C1     C7      1.444   .     S
C1     O70     1.271   .     A
C2     H35     1.080   .     S
C2     C27     1.399   .     A
C2     C16     1.386   .     A
C3     Cl31    1.767   .     S
C3     C15     1.403   .     A
C3     C16     1.399   .     A
C4     O69     1.289   .     A
C4     C6      1.463   .     S
C4     O71     1.277   .     A
C5     C17     1.421   .     A
C5     C14     1.494   .     S
C5     C26     1.431   .     A
C6     C84     1.355   .     S
C6     O142    1.389   .     S
C7     C160    1.355   1_455 S
C7     O214    1.402   1_455 S
C8     C11     1.455   .     S
C8     C240    1.350   .     S
C8     Cl263   1.774   .     S
C9     C10     1.426   .     S
C9     C470    1.350   1_545 S
C9     Cl495   1.770   1_545 S
C10    O66     1.274   .     A
C10    O72     1.272   .     A
C11    O67     1.271   .     A
C11    O73     1.280   .     A
C12    C17     1.387   .     A
C12    C716    1.388   .     S
C12    H739    1.084   .     S
C13    O56     1.274   .     A
C13    O58     1.277   .     A
C13    C16     1.446   .     S
C14    O59     1.291   .     A
C14    O57     1.287   .     A
C15    C721    1.420   1_554 S
C15    O755    1.383   1_554 S
C17    Cl34    1.767   .     S
C18    H48     1.112   .     S
C18    H49     1.111   .     S
C18    H204    1.102   1_455 S
C18    O214    1.414   1_455 S
C19    H52     1.109   .     S
C19    H53     1.117   .     S
C19    O61     1.416   .     S
C19    H51     1.111   .     S
C20    H54     1.109   .     S
C20    O62     1.411   .     S
C20    H36     1.113   .     S
C20    H730    1.112   .     S
C21    H38     1.113   .     S
C21    H39     1.113   .     S
C21    H40     1.109   .     S
C21    O63     1.411   .     S
C22    H41     1.112   .     S
C22    H43     1.109   .     S
C22    H42     1.114   .     S
C22    O64     1.410   .     S
C23    O63     1.382   .     S
C23    C705    1.388   1_554 S
C23    C718    1.422   1_554 S
C24    H45     1.113   .     S
C24    O65     1.410   .     S
C24    H44     1.112   .     S
C24    H47     1.109   .     S
C25    C26     1.423   .     A
C25    C716    1.422   .     S
C25    C720    1.423   .     S
C26    C30     1.418   .     A
C27    C718    1.423   1_554 S
C27    C721    1.421   1_554 S
C28    C29     1.403   .     A
C28    C720    1.421   .     S
C28    C708    1.420   .     S
C29    O61     1.382   .     S
C29    C30     1.403   .     A
C30    O64     1.386   .     S
Cl32   C470    1.774   1_545 S
Cl33   C240    1.770   .     S
H37    C713    1.112   1_554 S
H46    C705    1.084   1_554 S
H50    C95     1.102   .     S
O55    Zn77    1.938   .     S
O55    Zn74    1.959   .     S
O55    Zn75    1.946   .     S
O55    Zn76    1.947   .     S
O56    Zn75    1.936   .     S
O57    Zn77    1.942   .     S
O58    Zn76    1.936   .     S
O59    Zn74    1.931   .     S
O60    C95     1.414   .     S
O60    C84     1.402   .     S
O62    C708    1.383   .     S
O65    C160    1.389   1_455 S
O66    Zn74    1.936   .     S
O67    Zn77    1.941   .     S
O68    Zn75    1.933   .     S
O69    Zn76    1.940   .     S
O70    Zn77    1.938   .     S
O71    Zn74    1.934   .     S
O72    Zn75    1.943   .     S
O73    Zn76    1.936   .     S
C78    O145    1.264   .     A
C78    C84     1.444   .     S
C78    O147    1.271   .     A
C79    H112    1.080   .     S
C79    C104    1.399   .     A
C79    C93     1.386   .     A
C80    Cl108   1.767   .     S
C80    C92     1.403   .     A
C80    C93     1.399   .     A
C81    O146    1.289   .     A
C81    C83     1.463   .     S
C81    O148    1.277   .     A
C82    C94     1.421   .     A
C82    C91     1.494   .     S
C82    C103    1.431   .     A
C83    C161    1.355   .     S
C83    O219    1.389   .     S
C85    C88     1.455   .     S
C85    C317    1.350   .     S
C85    Cl340   1.774   .     S
C86    C87     1.426   .     S
C86    C547    1.350   1_545 S
C86    Cl572   1.770   1_545 S
C87    O143    1.274   .     A
C87    O149    1.272   .     A
C88    O144    1.271   .     A
C88    O150    1.280   .     A
C89    C94     1.387   .     A
C89    C793    1.388   .     S
C89    H816    1.084   .     S
C90    O133    1.274   .     A
C90    O135    1.277   .     A
C90    C93     1.446   .     S
C91    O136    1.291   .     A
C91    O134    1.287   .     A
C92    C798    1.420   1_554 S
C92    O832    1.383   1_554 S
C94    Cl111   1.767   .     S
C95    H125    1.112   .     S
C95    H126    1.111   .     S
C96    H129    1.109   .     S
C96    H130    1.117   .     S
C96    O138    1.416   .     S
C96    H128    1.111   .     S
C97    H131    1.109   .     S
C97    O139    1.411   .     S
C97    H113    1.113   .     S
C97    H807    1.112   .     S
C98    H115    1.113   .     S
C98    H116    1.113   .     S
C98    H117    1.109   .     S
C98    O140    1.411   .     S
C99    H118    1.112   .     S
C99    H120    1.109   .     S
C99    H119    1.114   .     S
C99    O141    1.410   .     S
C100   O140    1.382   .     S
C100   C782    1.388   1_554 S
C100   C795    1.422   1_554 S
C101   H122    1.113   .     S
C101   O142    1.410   .     S
C101   H121    1.112   .     S
C101   H124    1.109   .     S
C102   C103    1.423   .     A
C102   C793    1.422   .     S
C102   C797    1.423   .     S
C103   C107    1.418   .     A
C104   C795    1.423   1_554 S
C104   C798    1.421   1_554 S
C105   C106    1.403   .     A
C105   C797    1.421   .     S
C105   C785    1.420   .     S
C106   O138    1.382   .     S
C106   C107    1.403   .     A
C107   O141    1.386   .     S
Cl109  C547    1.774   1_545 S
Cl110  C317    1.770   .     S
H114   C790    1.112   1_554 S
H123   C782    1.084   1_554 S
H127   C172    1.102   .     S
O132   Zn154   1.938   .     S
O132   Zn151   1.959   .     S
O132   Zn152   1.946   .     S
O132   Zn153   1.947   .     S
O133   Zn152   1.936   .     S
O134   Zn154   1.942   .     S
O135   Zn153   1.936   .     S
O136   Zn151   1.931   .     S
O137   C172    1.414   .     S
O137   C161    1.402   .     S
O139   C785    1.383   .     S
O143   Zn151   1.936   .     S
O144   Zn154   1.941   .     S
O145   Zn152   1.933   .     S
O146   Zn153   1.940   .     S
O147   Zn154   1.938   .     S
O148   Zn151   1.934   .     S
O149   Zn152   1.943   .     S
O150   Zn153   1.936   .     S
C155   O222    1.264   .     A
C155   C161    1.444   .     S
C155   O224    1.271   .     A
C156   H189    1.080   .     S
C156   C181    1.399   .     A
C156   C170    1.386   .     A
C157   Cl185   1.767   .     S
C157   C169    1.403   .     A
C157   C170    1.399   .     A
C158   O223    1.289   .     A
C158   C160    1.463   .     S
C158   O225    1.277   .     A
C159   C171    1.421   .     A
C159   C168    1.494   .     S
C159   C180    1.431   .     A
C160   C7      1.355   1_655 S
C160   O65     1.389   1_655 S
C162   C165    1.455   .     S
C162   C394    1.350   .     S
C162   Cl417   1.774   .     S
C163   C164    1.426   .     S
C163   C624    1.350   1_545 S
C163   Cl649   1.770   1_545 S
C164   O220    1.274   .     A
C164   O226    1.272   .     A
C165   O221    1.271   .     A
C165   O227    1.280   .     A
C166   C171    1.387   .     A
C166   C870    1.388   .     S
C166   H893    1.084   .     S
C167   O210    1.274   .     A
C167   O212    1.277   .     A
C167   C170    1.446   .     S
C168   O213    1.291   .     A
C168   O211    1.287   .     A
C169   C875    1.420   1_554 S
C169   O909    1.383   1_554 S
C171   Cl188   1.767   .     S
C172   H202    1.112   .     S
C172   H203    1.111   .     S
C173   H206    1.109   .     S
C173   H207    1.117   .     S
C173   O215    1.416   .     S
C173   H205    1.111   .     S
C174   H208    1.109   .     S
C174   O216    1.411   .     S
C174   H190    1.113   .     S
C174   H884    1.112   .     S
C175   H192    1.113   .     S
C175   H193    1.113   .     S
C175   H194    1.109   .     S
C175   O217    1.411   .     S
C176   H195    1.112   .     S
C176   H197    1.109   .     S
C176   H196    1.114   .     S
C176   O218    1.410   .     S
C177   O217    1.382   .     S
C177   C859    1.388   1_554 S
C177   C872    1.422   1_554 S
C178   H199    1.113   .     S
C178   O219    1.410   .     S
C178   H198    1.112   .     S
C178   H201    1.109   .     S
C179   C180    1.423   .     A
C179   C870    1.422   .     S
C179   C874    1.423   .     S
C180   C184    1.418   .     A
C181   C872    1.423   1_554 S
C181   C875    1.421   1_554 S
C182   C183    1.403   .     A
C182   C874    1.421   .     S
C182   C862    1.420   .     S
C183   O215    1.382   .     S
C183   C184    1.403   .     A
C184   O218    1.386   .     S
Cl186  C624    1.774   1_545 S
Cl187  C394    1.770   .     S
H191   C867    1.112   1_554 S
H200   C859    1.084   1_554 S
H204   C18     1.102   1_655 S
O209   Zn231   1.938   .     S
O209   Zn228   1.959   .     S
O209   Zn229   1.946   .     S
O209   Zn230   1.947   .     S
O210   Zn229   1.936   .     S
O211   Zn231   1.942   .     S
O212   Zn230   1.936   .     S
O213   Zn228   1.931   .     S
O214   C18     1.414   1_655 S
O214   C7      1.402   1_655 S
O216   C862    1.383   .     S
O220   Zn228   1.936   .     S
O221   Zn231   1.941   .     S
O222   Zn229   1.933   .     S
O223   Zn230   1.940   .     S
O224   Zn231   1.938   .     S
O225   Zn228   1.934   .     S
O226   Zn229   1.943   .     S
O227   Zn230   1.936   .     S
C232   O299    1.264   .     A
C232   C238    1.444   .     S
C232   O301    1.271   .     A
C233   H266    1.080   .     S
C233   C258    1.399   .     A
C233   C247    1.386   .     A
C234   Cl262   1.767   .     S
C234   C246    1.403   .     A
C234   C247    1.399   .     A
C235   O300    1.289   .     A
C235   C237    1.463   .     S
C235   O302    1.277   .     A
C236   C248    1.421   .     A
C236   C245    1.494   .     S
C236   C257    1.431   .     A
C237   C315    1.355   .     S
C237   O373    1.389   .     S
C238   C391    1.355   1_455 S
C238   O445    1.402   1_455 S
C239   C242    1.455   .     S
C239   C471    1.350   .     S
C239   Cl494   1.774   .     S
C240   C241    1.426   .     S
C241   O297    1.274   .     A
C241   O303    1.272   .     A
C242   O298    1.271   .     A
C242   O304    1.280   .     A
C243   C248    1.387   .     A
C243   C947    1.388   .     S
C243   H970    1.084   .     S
C244   O287    1.274   .     A
C244   O289    1.277   .     A
C244   C247    1.446   .     S
C245   O290    1.291   .     A
C245   O288    1.287   .     A
C246   C952    1.420   1_554 S
C246   O986    1.383   1_554 S
C248   Cl265   1.767   .     S
C249   H279    1.112   .     S
C249   H280    1.111   .     S
C249   H435    1.102   1_455 S
C249   O445    1.414   1_455 S
C250   H283    1.109   .     S
C250   H284    1.117   .     S
C250   O292    1.416   .     S
C250   H282    1.111   .     S
C251   H285    1.109   .     S
C251   O293    1.411   .     S
C251   H267    1.113   .     S
C251   H961    1.112   .     S
C252   H269    1.113   .     S
C252   H270    1.113   .     S
C252   H271    1.109   .     S
C252   O294    1.411   .     S
C253   H272    1.112   .     S
C253   H274    1.109   .     S
C253   H273    1.114   .     S
C253   O295    1.410   .     S
C254   O294    1.382   .     S
C254   C936    1.388   1_554 S
C254   C949    1.422   1_554 S
C255   H276    1.113   .     S
C255   O296    1.410   .     S
C255   H275    1.112   .     S
C255   H278    1.109   .     S
C256   C257    1.423   .     A
C256   C947    1.422   .     S
C256   C951    1.423   .     S
C257   C261    1.418   .     A
C258   C949    1.423   1_554 S
C258   C952    1.421   1_554 S
C259   C260    1.403   .     A
C259   C951    1.421   .     S
C259   C939    1.420   .     S
C260   O292    1.382   .     S
C260   C261    1.403   .     A
C261   O295    1.386   .     S
Cl264  C471    1.770   .     S
H268   C944    1.112   1_554 S
H277   C936    1.084   1_554 S
H281   C326    1.102   .     S
O286   Zn308   1.938   .     S
O286   Zn305   1.959   .     S
O286   Zn306   1.946   .     S
O286   Zn307   1.947   .     S
O287   Zn306   1.936   .     S
O288   Zn308   1.942   .     S
O289   Zn307   1.936   .     S
O290   Zn305   1.931   .     S
O291   C326    1.414   .     S
O291   C315    1.402   .     S
O293   C939    1.383   .     S
O296   C391    1.389   1_455 S
O297   Zn305   1.936   .     S
O298   Zn308   1.941   .     S
O299   Zn306   1.933   .     S
O300   Zn307   1.940   .     S
O301   Zn308   1.938   .     S
O302   Zn305   1.934   .     S
O303   Zn306   1.943   .     S
O304   Zn307   1.936   .     S
C309   O376    1.264   .     A
C309   C315    1.444   .     S
C309   O378    1.271   .     A
C310   H343    1.080   .     S
C310   C335    1.399   .     A
C310   C324    1.386   .     A
C311   Cl339   1.767   .     S
C311   C323    1.403   .     A
C311   C324    1.399   .     A
C312   O377    1.289   .     A
C312   C314    1.463   .     S
C312   O379    1.277   .     A
C313   C325    1.421   .     A
C313   C322    1.494   .     S
C313   C334    1.431   .     A
C314   C392    1.355   .     S
C314   O450    1.389   .     S
C316   C319    1.455   .     S
C316   C548    1.350   .     S
C316   Cl571   1.774   .     S
C317   C318    1.426   .     S
C318   O374    1.274   .     A
C318   O380    1.272   .     A
C319   O375    1.271   .     A
C319   O381    1.280   .     A
C320   C325    1.387   .     A
C320   C1024   1.388   .     S
C320   H1047   1.084   .     S
C321   O364    1.274   .     A
C321   O366    1.277   .     A
C321   C324    1.446   .     S
C322   O367    1.291   .     A
C322   O365    1.287   .     A
C323   C1029   1.420   1_554 S
C323   O1063   1.383   1_554 S
C325   Cl342   1.767   .     S
C326   H356    1.112   .     S
C326   H357    1.111   .     S
C327   H360    1.109   .     S
C327   H361    1.117   .     S
C327   O369    1.416   .     S
C327   H359    1.111   .     S
C328   H362    1.109   .     S
C328   O370    1.411   .     S
C328   H344    1.113   .     S
C328   H1038   1.112   .     S
C329   H346    1.113   .     S
C329   H347    1.113   .     S
C329   H348    1.109   .     S
C329   O371    1.411   .     S
C330   H349    1.112   .     S
C330   H351    1.109   .     S
C330   H350    1.114   .     S
C330   O372    1.410   .     S
C331   O371    1.382   .     S
C331   C1013   1.388   1_554 S
C331   C1026   1.422   1_554 S
C332   H353    1.113   .     S
C332   O373    1.410   .     S
C332   H352    1.112   .     S
C332   H355    1.109   .     S
C333   C334    1.423   .     A
C333   C1024   1.422   .     S
C333   C1028   1.423   .     S
C334   C338    1.418   .     A
C335   C1026   1.423   1_554 S
C335   C1029   1.421   1_554 S
C336   C337    1.403   .     A
C336   C1028   1.421   .     S
C336   C1016   1.420   .     S
C337   O369    1.382   .     S
C337   C338    1.403   .     A
C338   O372    1.386   .     S
Cl341  C548    1.770   .     S
H345   C1021   1.112   1_554 S
H354   C1013   1.084   1_554 S
H358   C403    1.102   .     S
O363   Zn385   1.938   .     S
O363   Zn382   1.959   .     S
O363   Zn383   1.946   .     S
O363   Zn384   1.947   .     S
O364   Zn383   1.936   .     S
O365   Zn385   1.942   .     S
O366   Zn384   1.936   .     S
O367   Zn382   1.931   .     S
O368   C403    1.414   .     S
O368   C392    1.402   .     S
O370   C1016   1.383   .     S
O374   Zn382   1.936   .     S
O375   Zn385   1.941   .     S
O376   Zn383   1.933   .     S
O377   Zn384   1.940   .     S
O378   Zn385   1.938   .     S
O379   Zn382   1.934   .     S
O380   Zn383   1.943   .     S
O381   Zn384   1.936   .     S
C386   O453    1.264   .     A
C386   C392    1.444   .     S
C386   O455    1.271   .     A
C387   H420    1.080   .     S
C387   C412    1.399   .     A
C387   C401    1.386   .     A
C388   Cl416   1.767   .     S
C388   C400    1.403   .     A
C388   C401    1.399   .     A
C389   O454    1.289   .     A
C389   C391    1.463   .     S
C389   O456    1.277   .     A
C390   C402    1.421   .     A
C390   C399    1.494   .     S
C390   C411    1.431   .     A
C391   C238    1.355   1_655 S
C391   O296    1.389   1_655 S
C393   C396    1.455   .     S
C393   C625    1.350   .     S
C393   Cl648   1.774   .     S
C394   C395    1.426   .     S
C395   O451    1.274   .     A
C395   O457    1.272   .     A
C396   O452    1.271   .     A
C396   O458    1.280   .     A
C397   C402    1.387   .     A
C397   C1101   1.388   .     S
C397   H1124   1.084   .     S
C398   O441    1.274   .     A
C398   O443    1.277   .     A
C398   C401    1.446   .     S
C399   O444    1.291   .     A
C399   O442    1.287   .     A
C400   C1106   1.420   1_554 S
C400   O1140   1.383   1_554 S
C402   Cl419   1.767   .     S
C403   H433    1.112   .     S
C403   H434    1.111   .     S
C404   H437    1.109   .     S
C404   H438    1.117   .     S
C404   O446    1.416   .     S
C404   H436    1.111   .     S
C405   H439    1.109   .     S
C405   O447    1.411   .     S
C405   H421    1.113   .     S
C405   H1115   1.112   .     S
C406   H423    1.113   .     S
C406   H424    1.113   .     S
C406   H425    1.109   .     S
C406   O448    1.411   .     S
C407   H426    1.112   .     S
C407   H428    1.109   .     S
C407   H427    1.114   .     S
C407   O449    1.410   .     S
C408   O448    1.382   .     S
C408   C1090   1.388   1_554 S
C408   C1103   1.422   1_554 S
C409   H430    1.113   .     S
C409   O450    1.410   .     S
C409   H429    1.112   .     S
C409   H432    1.109   .     S
C410   C411    1.423   .     A
C410   C1101   1.422   .     S
C410   C1105   1.423   .     S
C411   C415    1.418   .     A
C412   C1103   1.423   1_554 S
C412   C1106   1.421   1_554 S
C413   C414    1.403   .     A
C413   C1105   1.421   .     S
C413   C1093   1.420   .     S
C414   O446    1.382   .     S
C414   C415    1.403   .     A
C415   O449    1.386   .     S
Cl418  C625    1.770   .     S
H422   C1098   1.112   1_554 S
H431   C1090   1.084   1_554 S
H435   C249    1.102   1_655 S
O440   Zn462   1.938   .     S
O440   Zn459   1.959   .     S
O440   Zn460   1.946   .     S
O440   Zn461   1.947   .     S
O441   Zn460   1.936   .     S
O442   Zn462   1.942   .     S
O443   Zn461   1.936   .     S
O444   Zn459   1.931   .     S
O445   C249    1.414   1_655 S
O445   C238    1.402   1_655 S
O447   C1093   1.383   .     S
O451   Zn459   1.936   .     S
O452   Zn462   1.941   .     S
O453   Zn460   1.933   .     S
O454   Zn461   1.940   .     S
O455   Zn462   1.938   .     S
O456   Zn459   1.934   .     S
O457   Zn460   1.943   .     S
O458   Zn461   1.936   .     S
C463   O530    1.264   .     A
C463   C469    1.444   .     S
C463   O532    1.271   .     A
C464   H497    1.080   .     S
C464   C489    1.399   .     A
C464   C478    1.386   .     A
C465   Cl493   1.767   .     S
C465   C477    1.403   .     A
C465   C478    1.399   .     A
C466   O531    1.289   .     A
C466   C468    1.463   .     S
C466   O533    1.277   .     A
C467   C479    1.421   .     A
C467   C476    1.494   .     S
C467   C488    1.431   .     A
C468   C546    1.355   .     S
C468   O604    1.389   .     S
C469   C622    1.355   1_455 S
C469   O676    1.402   1_455 S
C470   C473    1.455   .     S
C470   C9      1.350   1_565 S
C470   Cl32    1.774   1_565 S
C471   C472    1.426   .     S
C472   O528    1.274   .     A
C472   O534    1.272   .     A
C473   O529    1.271   .     A
C473   O535    1.280   .     A
C474   C479    1.387   .     A
C474   C1178   1.388   .     S
C474   H1201   1.084   .     S
C475   O518    1.274   .     A
C475   O520    1.277   .     A
C475   C478    1.446   .     S
C476   O521    1.291   .     A
C476   O519    1.287   .     A
C477   C1183   1.420   1_554 S
C477   O1217   1.383   1_554 S
C479   Cl496   1.767   .     S
C480   H510    1.112   .     S
C480   H511    1.111   .     S
C480   H666    1.102   1_455 S
C480   O676    1.414   1_455 S
C481   H514    1.109   .     S
C481   H515    1.117   .     S
C481   O523    1.416   .     S
C481   H513    1.111   .     S
C482   H516    1.109   .     S
C482   O524    1.411   .     S
C482   H498    1.113   .     S
C482   H1192   1.112   .     S
C483   H500    1.113   .     S
C483   H501    1.113   .     S
C483   H502    1.109   .     S
C483   O525    1.411   .     S
C484   H503    1.112   .     S
C484   H505    1.109   .     S
C484   H504    1.114   .     S
C484   O526    1.410   .     S
C485   O525    1.382   .     S
C485   C1167   1.388   1_554 S
C485   C1180   1.422   1_554 S
C486   H507    1.113   .     S
C486   O527    1.410   .     S
C486   H506    1.112   .     S
C486   H509    1.109   .     S
C487   C488    1.423   .     A
C487   C1178   1.422   .     S
C487   C1182   1.423   .     S
C488   C492    1.418   .     A
C489   C1180   1.423   1_554 S
C489   C1183   1.421   1_554 S
C490   C491    1.403   .     A
C490   C1182   1.421   .     S
C490   C1170   1.420   .     S
C491   O523    1.382   .     S
C491   C492    1.403   .     A
C492   O526    1.386   .     S
Cl495  C9      1.770   1_565 S
H499   C1175   1.112   1_554 S
H508   C1167   1.084   1_554 S
H512   C557    1.102   .     S
O517   Zn539   1.938   .     S
O517   Zn536   1.959   .     S
O517   Zn537   1.946   .     S
O517   Zn538   1.947   .     S
O518   Zn537   1.936   .     S
O519   Zn539   1.942   .     S
O520   Zn538   1.936   .     S
O521   Zn536   1.931   .     S
O522   C557    1.414   .     S
O522   C546    1.402   .     S
O524   C1170   1.383   .     S
O527   C622    1.389   1_455 S
O528   Zn536   1.936   .     S
O529   Zn539   1.941   .     S
O530   Zn537   1.933   .     S
O531   Zn538   1.940   .     S
O532   Zn539   1.938   .     S
O533   Zn536   1.934   .     S
O534   Zn537   1.943   .     S
O535   Zn538   1.936   .     S
C540   O607    1.264   .     A
C540   C546    1.444   .     S
C540   O609    1.271   .     A
C541   H574    1.080   .     S
C541   C566    1.399   .     A
C541   C555    1.386   .     A
C542   Cl570   1.767   .     S
C542   C554    1.403   .     A
C542   C555    1.399   .     A
C543   O608    1.289   .     A
C543   C545    1.463   .     S
C543   O610    1.277   .     A
C544   C556    1.421   .     A
C544   C553    1.494   .     S
C544   C565    1.431   .     A
C545   C623    1.355   .     S
C545   O681    1.389   .     S
C547   C550    1.455   .     S
C547   C86     1.350   1_565 S
C547   Cl109   1.774   1_565 S
C548   C549    1.426   .     S
C549   O605    1.274   .     A
C549   O611    1.272   .     A
C550   O606    1.271   .     A
C550   O612    1.280   .     A
C551   C556    1.387   .     A
C551   C1255   1.388   .     S
C551   H1278   1.084   .     S
C552   O595    1.274   .     A
C552   O597    1.277   .     A
C552   C555    1.446   .     S
C553   O598    1.291   .     A
C553   O596    1.287   .     A
C554   C1260   1.420   1_554 S
C554   O1294   1.383   1_554 S
C556   Cl573   1.767   .     S
C557   H587    1.112   .     S
C557   H588    1.111   .     S
C558   H591    1.109   .     S
C558   H592    1.117   .     S
C558   O600    1.416   .     S
C558   H590    1.111   .     S
C559   H593    1.109   .     S
C559   O601    1.411   .     S
C559   H575    1.113   .     S
C559   H1269   1.112   .     S
C560   H577    1.113   .     S
C560   H578    1.113   .     S
C560   H579    1.109   .     S
C560   O602    1.411   .     S
C561   H580    1.112   .     S
C561   H582    1.109   .     S
C561   H581    1.114   .     S
C561   O603    1.410   .     S
C562   O602    1.382   .     S
C562   C1244   1.388   1_554 S
C562   C1257   1.422   1_554 S
C563   H584    1.113   .     S
C563   O604    1.410   .     S
C563   H583    1.112   .     S
C563   H586    1.109   .     S
C564   C565    1.423   .     A
C564   C1255   1.422   .     S
C564   C1259   1.423   .     S
C565   C569    1.418   .     A
C566   C1257   1.423   1_554 S
C566   C1260   1.421   1_554 S
C567   C568    1.403   .     A
C567   C1259   1.421   .     S
C567   C1247   1.420   .     S
C568   O600    1.382   .     S
C568   C569    1.403   .     A
C569   O603    1.386   .     S
Cl572  C86     1.770   1_565 S
H576   C1252   1.112   1_554 S
H585   C1244   1.084   1_554 S
H589   C634    1.102   .     S
O594   Zn616   1.938   .     S
O594   Zn613   1.959   .     S
O594   Zn614   1.946   .     S
O594   Zn615   1.947   .     S
O595   Zn614   1.936   .     S
O596   Zn616   1.942   .     S
O597   Zn615   1.936   .     S
O598   Zn613   1.931   .     S
O599   C634    1.414   .     S
O599   C623    1.402   .     S
O601   C1247   1.383   .     S
O605   Zn613   1.936   .     S
O606   Zn616   1.941   .     S
O607   Zn614   1.933   .     S
O608   Zn615   1.940   .     S
O609   Zn616   1.938   .     S
O610   Zn613   1.934   .     S
O611   Zn614   1.943   .     S
O612   Zn615   1.936   .     S
C617   O684    1.264   .     A
C617   C623    1.444   .     S
C617   O686    1.271   .     A
C618   H651    1.080   .     S
C618   C643    1.399   .     A
C618   C632    1.386   .     A
C619   Cl647   1.767   .     S
C619   C631    1.403   .     A
C619   C632    1.399   .     A
C620   O685    1.289   .     A
C620   C622    1.463   .     S
C620   O687    1.277   .     A
C621   C633    1.421   .     A
C621   C630    1.494   .     S
C621   C642    1.431   .     A
C622   C469    1.355   1_655 S
C622   O527    1.389   1_655 S
C624   C627    1.455   .     S
C624   C163    1.350   1_565 S
C624   Cl186   1.774   1_565 S
C625   C626    1.426   .     S
C626   O682    1.274   .     A
C626   O688    1.272   .     A
C627   O683    1.271   .     A
C627   O689    1.280   .     A
C628   C633    1.387   .     A
C628   C1332   1.388   .     S
C628   H1355   1.084   .     S
C629   O672    1.274   .     A
C629   O674    1.277   .     A
C629   C632    1.446   .     S
C630   O675    1.291   .     A
C630   O673    1.287   .     A
C631   C1337   1.420   1_554 S
C631   O1371   1.383   1_554 S
C633   Cl650   1.767   .     S
C634   H664    1.112   .     S
C634   H665    1.111   .     S
C635   H668    1.109   .     S
C635   H669    1.117   .     S
C635   O677    1.416   .     S
C635   H667    1.111   .     S
C636   H670    1.109   .     S
C636   O678    1.411   .     S
C636   H652    1.113   .     S
C636   H1346   1.112   .     S
C637   H654    1.113   .     S
C637   H655    1.113   .     S
C637   H656    1.109   .     S
C637   O679    1.411   .     S
C638   H657    1.112   .     S
C638   H659    1.109   .     S
C638   H658    1.114   .     S
C638   O680    1.410   .     S
C639   O679    1.382   .     S
C639   C1321   1.388   1_554 S
C639   C1334   1.422   1_554 S
C640   H661    1.113   .     S
C640   O681    1.410   .     S
C640   H660    1.112   .     S
C640   H663    1.109   .     S
C641   C642    1.423   .     A
C641   C1332   1.422   .     S
C641   C1336   1.423   .     S
C642   C646    1.418   .     A
C643   C1334   1.423   1_554 S
C643   C1337   1.421   1_554 S
C644   C645    1.403   .     A
C644   C1336   1.421   .     S
C644   C1324   1.420   .     S
C645   O677    1.382   .     S
C645   C646    1.403   .     A
C646   O680    1.386   .     S
Cl649  C163    1.770   1_565 S
H653   C1329   1.112   1_554 S
H662   C1321   1.084   1_554 S
H666   C480    1.102   1_655 S
O671   Zn693   1.938   .     S
O671   Zn690   1.959   .     S
O671   Zn691   1.946   .     S
O671   Zn692   1.947   .     S
O672   Zn691   1.936   .     S
O673   Zn693   1.942   .     S
O674   Zn692   1.936   .     S
O675   Zn690   1.931   .     S
O676   C480    1.414   1_655 S
O676   C469    1.402   1_655 S
O678   C1324   1.383   .     S
O682   Zn690   1.936   .     S
O683   Zn693   1.941   .     S
O684   Zn691   1.933   .     S
O685   Zn692   1.940   .     S
O686   Zn693   1.938   .     S
O687   Zn690   1.934   .     S
O688   Zn691   1.943   .     S
O689   Zn692   1.936   .     S
C694   O761    1.264   .     A
C694   C700    1.444   .     S
C694   O763    1.271   .     A
C695   H728    1.080   .     S
C695   C720    1.399   .     A
C695   C709    1.386   .     A
C696   Cl724   1.767   .     S
C696   C708    1.403   .     A
C696   C709    1.399   .     A
C697   O762    1.289   .     A
C697   C699    1.463   .     S
C697   O764    1.277   .     A
C698   C710    1.421   .     A
C698   C707    1.494   .     S
C698   C719    1.431   .     A
C699   C777    1.355   .     S
C699   O835    1.389   .     S
C700   C853    1.355   1_455 S
C700   O907    1.402   1_455 S
C701   C704    1.455   .     S
C701   C933    1.350   .     S
C701   Cl956   1.774   .     S
C702   C703    1.426   .     S
C702   C1163   1.350   1_545 S
C702   Cl1188  1.770   1_545 S
C703   O759    1.274   .     A
C703   O765    1.272   .     A
C704   O760    1.271   .     A
C704   O766    1.280   .     A
C705   C710    1.387   .     A
C705   C23     1.388   1_556 S
C705   H46     1.084   1_556 S
C706   O749    1.274   .     A
C706   O751    1.277   .     A
C706   C709    1.446   .     S
C707   O752    1.291   .     A
C707   O750    1.287   .     A
C710   Cl727   1.767   .     S
C711   H741    1.112   .     S
C711   H742    1.111   .     S
C711   H897    1.102   1_455 S
C711   O907    1.414   1_455 S
C712   H745    1.109   .     S
C712   H746    1.117   .     S
C712   O754    1.416   .     S
C712   H744    1.111   .     S
C713   H747    1.109   .     S
C713   O755    1.411   .     S
C713   H729    1.113   .     S
C713   H37     1.112   1_556 S
C714   H731    1.113   .     S
C714   H732    1.113   .     S
C714   H733    1.109   .     S
C714   O756    1.411   .     S
C715   H734    1.112   .     S
C715   H736    1.109   .     S
C715   H735    1.114   .     S
C715   O757    1.410   .     S
C716   O756    1.382   .     S
C717   H738    1.113   .     S
C717   O758    1.410   .     S
C717   H737    1.112   .     S
C717   H740    1.109   .     S
C718   C719    1.423   .     A
C718   C23     1.422   1_556 S
C718   C27     1.423   1_556 S
C719   C723    1.418   .     A
C721   C722    1.403   .     A
C721   C27     1.421   1_556 S
C721   C15     1.420   1_556 S
C722   O754    1.382   .     S
C722   C723    1.403   .     A
C723   O757    1.386   .     S
Cl725  C1163   1.774   1_545 S
Cl726  C933    1.770   .     S
H743   C788    1.102   .     S
O748   Zn770   1.938   .     S
O748   Zn767   1.959   .     S
O748   Zn768   1.946   .     S
O748   Zn769   1.947   .     S
O749   Zn768   1.936   .     S
O750   Zn770   1.942   .     S
O751   Zn769   1.936   .     S
O752   Zn767   1.931   .     S
O753   C788    1.414   .     S
O753   C777    1.402   .     S
O755   C15     1.383   1_556 S
O758   C853    1.389   1_455 S
O759   Zn767   1.936   .     S
O760   Zn770   1.941   .     S
O761   Zn768   1.933   .     S
O762   Zn769   1.940   .     S
O763   Zn770   1.938   .     S
O764   Zn767   1.934   .     S
O765   Zn768   1.943   .     S
O766   Zn769   1.936   .     S
C771   O838    1.264   .     A
C771   C777    1.444   .     S
C771   O840    1.271   .     A
C772   H805    1.080   .     S
C772   C797    1.399   .     A
C772   C786    1.386   .     A
C773   Cl801   1.767   .     S
C773   C785    1.403   .     A
C773   C786    1.399   .     A
C774   O839    1.289   .     A
C774   C776    1.463   .     S
C774   O841    1.277   .     A
C775   C787    1.421   .     A
C775   C784    1.494   .     S
C775   C796    1.431   .     A
C776   C854    1.355   .     S
C776   O912    1.389   .     S
C778   C781    1.455   .     S
C778   C1010   1.350   .     S
C778   Cl1033  1.774   .     S
C779   C780    1.426   .     S
C779   C1240   1.350   1_545 S
C779   Cl1265  1.770   1_545 S
C780   O836    1.274   .     A
C780   O842    1.272   .     A
C781   O837    1.271   .     A
C781   O843    1.280   .     A
C782   C787    1.387   .     A
C782   C100    1.388   1_556 S
C782   H123    1.084   1_556 S
C783   O826    1.274   .     A
C783   O828    1.277   .     A
C783   C786    1.446   .     S
C784   O829    1.291   .     A
C784   O827    1.287   .     A
C787   Cl804   1.767   .     S
C788   H818    1.112   .     S
C788   H819    1.111   .     S
C789   H822    1.109   .     S
C789   H823    1.117   .     S
C789   O831    1.416   .     S
C789   H821    1.111   .     S
C790   H824    1.109   .     S
C790   O832    1.411   .     S
C790   H806    1.113   .     S
C790   H114    1.112   1_556 S
C791   H808    1.113   .     S
C791   H809    1.113   .     S
C791   H810    1.109   .     S
C791   O833    1.411   .     S
C792   H811    1.112   .     S
C792   H813    1.109   .     S
C792   H812    1.114   .     S
C792   O834    1.410   .     S
C793   O833    1.382   .     S
C794   H815    1.113   .     S
C794   O835    1.410   .     S
C794   H814    1.112   .     S
C794   H817    1.109   .     S
C795   C796    1.423   .     A
C795   C100    1.422   1_556 S
C795   C104    1.423   1_556 S
C796   C800    1.418   .     A
C798   C799    1.403   .     A
C798   C104    1.421   1_556 S
C798   C92     1.420   1_556 S
C799   O831    1.382   .     S
C799   C800    1.403   .     A
C800   O834    1.386   .     S
Cl802  C1240   1.774   1_545 S
Cl803  C1010   1.770   .     S
H820   C865    1.102   .     S
O825   Zn847   1.938   .     S
O825   Zn844   1.959   .     S
O825   Zn845   1.946   .     S
O825   Zn846   1.947   .     S
O826   Zn845   1.936   .     S
O827   Zn847   1.942   .     S
O828   Zn846   1.936   .     S
O829   Zn844   1.931   .     S
O830   C865    1.414   .     S
O830   C854    1.402   .     S
O832   C92     1.383   1_556 S
O836   Zn844   1.936   .     S
O837   Zn847   1.941   .     S
O838   Zn845   1.933   .     S
O839   Zn846   1.940   .     S
O840   Zn847   1.938   .     S
O841   Zn844   1.934   .     S
O842   Zn845   1.943   .     S
O843   Zn846   1.936   .     S
C848   O915    1.264   .     A
C848   C854    1.444   .     S
C848   O917    1.271   .     A
C849   H882    1.080   .     S
C849   C874    1.399   .     A
C849   C863    1.386   .     A
C850   Cl878   1.767   .     S
C850   C862    1.403   .     A
C850   C863    1.399   .     A
C851   O916    1.289   .     A
C851   C853    1.463   .     S
C851   O918    1.277   .     A
C852   C864    1.421   .     A
C852   C861    1.494   .     S
C852   C873    1.431   .     A
C853   C700    1.355   1_655 S
C853   O758    1.389   1_655 S
C855   C858    1.455   .     S
C855   C1087   1.350   .     S
C855   Cl1110  1.774   .     S
C856   C857    1.426   .     S
C856   C1317   1.350   1_545 S
C856   Cl1342  1.770   1_545 S
C857   O913    1.274   .     A
C857   O919    1.272   .     A
C858   O914    1.271   .     A
C858   O920    1.280   .     A
C859   C864    1.387   .     A
C859   C177    1.388   1_556 S
C859   H200    1.084   1_556 S
C860   O903    1.274   .     A
C860   O905    1.277   .     A
C860   C863    1.446   .     S
C861   O906    1.291   .     A
C861   O904    1.287   .     A
C864   Cl881   1.767   .     S
C865   H895    1.112   .     S
C865   H896    1.111   .     S
C866   H899    1.109   .     S
C866   H900    1.117   .     S
C866   O908    1.416   .     S
C866   H898    1.111   .     S
C867   H901    1.109   .     S
C867   O909    1.411   .     S
C867   H883    1.113   .     S
C867   H191    1.112   1_556 S
C868   H885    1.113   .     S
C868   H886    1.113   .     S
C868   H887    1.109   .     S
C868   O910    1.411   .     S
C869   H888    1.112   .     S
C869   H890    1.109   .     S
C869   H889    1.114   .     S
C869   O911    1.410   .     S
C870   O910    1.382   .     S
C871   H892    1.113   .     S
C871   O912    1.410   .     S
C871   H891    1.112   .     S
C871   H894    1.109   .     S
C872   C873    1.423   .     A
C872   C177    1.422   1_556 S
C872   C181    1.423   1_556 S
C873   C877    1.418   .     A
C875   C876    1.403   .     A
C875   C181    1.421   1_556 S
C875   C169    1.420   1_556 S
C876   O908    1.382   .     S
C876   C877    1.403   .     A
C877   O911    1.386   .     S
Cl879  C1317   1.774   1_545 S
Cl880  C1087   1.770   .     S
H897   C711    1.102   1_655 S
O902   Zn924   1.938   .     S
O902   Zn921   1.959   .     S
O902   Zn922   1.946   .     S
O902   Zn923   1.947   .     S
O903   Zn922   1.936   .     S
O904   Zn924   1.942   .     S
O905   Zn923   1.936   .     S
O906   Zn921   1.931   .     S
O907   C711    1.414   1_655 S
O907   C700    1.402   1_655 S
O909   C169    1.383   1_556 S
O913   Zn921   1.936   .     S
O914   Zn924   1.941   .     S
O915   Zn922   1.933   .     S
O916   Zn923   1.940   .     S
O917   Zn924   1.938   .     S
O918   Zn921   1.934   .     S
O919   Zn922   1.943   .     S
O920   Zn923   1.936   .     S
C925   O992    1.264   .     A
C925   C931    1.444   .     S
C925   O994    1.271   .     A
C926   H959    1.080   .     S
C926   C951    1.399   .     A
C926   C940    1.386   .     A
C927   Cl955   1.767   .     S
C927   C939    1.403   .     A
C927   C940    1.399   .     A
C928   O993    1.289   .     A
C928   C930    1.463   .     S
C928   O995    1.277   .     A
C929   C941    1.421   .     A
C929   C938    1.494   .     S
C929   C950    1.431   .     A
C930   C1008   1.355   .     S
C930   O1066   1.389   .     S
C931   C1084   1.355   1_455 S
C931   O1138   1.402   1_455 S
C932   C935    1.455   .     S
C932   C1164   1.350   .     S
C932   Cl1187  1.774   .     S
C933   C934    1.426   .     S
C934   O990    1.274   .     A
C934   O996    1.272   .     A
C935   O991    1.271   .     A
C935   O997    1.280   .     A
C936   C941    1.387   .     A
C936   C254    1.388   1_556 S
C936   H277    1.084   1_556 S
C937   O980    1.274   .     A
C937   O982    1.277   .     A
C937   C940    1.446   .     S
C938   O983    1.291   .     A
C938   O981    1.287   .     A
C941   Cl958   1.767   .     S
C942   H972    1.112   .     S
C942   H973    1.111   .     S
C942   H1128   1.102   1_455 S
C942   O1138   1.414   1_455 S
C943   H976    1.109   .     S
C943   H977    1.117   .     S
C943   O985    1.416   .     S
C943   H975    1.111   .     S
C944   H978    1.109   .     S
C944   O986    1.411   .     S
C944   H960    1.113   .     S
C944   H268    1.112   1_556 S
C945   H962    1.113   .     S
C945   H963    1.113   .     S
C945   H964    1.109   .     S
C945   O987    1.411   .     S
C946   H965    1.112   .     S
C946   H967    1.109   .     S
C946   H966    1.114   .     S
C946   O988    1.410   .     S
C947   O987    1.382   .     S
C948   H969    1.113   .     S
C948   O989    1.410   .     S
C948   H968    1.112   .     S
C948   H971    1.109   .     S
C949   C950    1.423   .     A
C949   C254    1.422   1_556 S
C949   C258    1.423   1_556 S
C950   C954    1.418   .     A
C952   C953    1.403   .     A
C952   C258    1.421   1_556 S
C952   C246    1.420   1_556 S
C953   O985    1.382   .     S
C953   C954    1.403   .     A
C954   O988    1.386   .     S
Cl957  C1164   1.770   .     S
H974   C1019   1.102   .     S
O979   Zn1001  1.938   .     S
O979   Zn998   1.959   .     S
O979   Zn999   1.946   .     S
O979   Zn1000  1.947   .     S
O980   Zn999   1.936   .     S
O981   Zn1001  1.942   .     S
O982   Zn1000  1.936   .     S
O983   Zn998   1.931   .     S
O984   C1019   1.414   .     S
O984   C1008   1.402   .     S
O986   C246    1.383   1_556 S
O989   C1084   1.389   1_455 S
O990   Zn998   1.936   .     S
O991   Zn1001  1.941   .     S
O992   Zn999   1.933   .     S
O993   Zn1000  1.940   .     S
O994   Zn1001  1.938   .     S
O995   Zn998   1.934   .     S
O996   Zn999   1.943   .     S
O997   Zn1000  1.936   .     S
C1002  O1069   1.264   .     A
C1002  C1008   1.444   .     S
C1002  O1071   1.271   .     A
C1003  H1036   1.080   .     S
C1003  C1028   1.399   .     A
C1003  C1017   1.386   .     A
C1004  Cl1032  1.767   .     S
C1004  C1016   1.403   .     A
C1004  C1017   1.399   .     A
C1005  O1070   1.289   .     A
C1005  C1007   1.463   .     S
C1005  O1072   1.277   .     A
C1006  C1018   1.421   .     A
C1006  C1015   1.494   .     S
C1006  C1027   1.431   .     A
C1007  C1085   1.355   .     S
C1007  O1143   1.389   .     S
C1009  C1012   1.455   .     S
C1009  C1241   1.350   .     S
C1009  Cl1264  1.774   .     S
C1010  C1011   1.426   .     S
C1011  O1067   1.274   .     A
C1011  O1073   1.272   .     A
C1012  O1068   1.271   .     A
C1012  O1074   1.280   .     A
C1013  C1018   1.387   .     A
C1013  C331    1.388   1_556 S
C1013  H354    1.084   1_556 S
C1014  O1057   1.274   .     A
C1014  O1059   1.277   .     A
C1014  C1017   1.446   .     S
C1015  O1060   1.291   .     A
C1015  O1058   1.287   .     A
C1018  Cl1035  1.767   .     S
C1019  H1049   1.112   .     S
C1019  H1050   1.111   .     S
C1020  H1053   1.109   .     S
C1020  H1054   1.117   .     S
C1020  O1062   1.416   .     S
C1020  H1052   1.111   .     S
C1021  H1055   1.109   .     S
C1021  O1063   1.411   .     S
C1021  H1037   1.113   .     S
C1021  H345    1.112   1_556 S
C1022  H1039   1.113   .     S
C1022  H1040   1.113   .     S
C1022  H1041   1.109   .     S
C1022  O1064   1.411   .     S
C1023  H1042   1.112   .     S
C1023  H1044   1.109   .     S
C1023  H1043   1.114   .     S
C1023  O1065   1.410   .     S
C1024  O1064   1.382   .     S
C1025  H1046   1.113   .     S
C1025  O1066   1.410   .     S
C1025  H1045   1.112   .     S
C1025  H1048   1.109   .     S
C1026  C1027   1.423   .     A
C1026  C331    1.422   1_556 S
C1026  C335    1.423   1_556 S
C1027  C1031   1.418   .     A
C1029  C1030   1.403   .     A
C1029  C335    1.421   1_556 S
C1029  C323    1.420   1_556 S
C1030  O1062   1.382   .     S
C1030  C1031   1.403   .     A
C1031  O1065   1.386   .     S
Cl1034 C1241   1.770   .     S
H1051  C1096   1.102   .     S
O1056  Zn1078  1.938   .     S
O1056  Zn1075  1.959   .     S
O1056  Zn1076  1.946   .     S
O1056  Zn1077  1.947   .     S
O1057  Zn1076  1.936   .     S
O1058  Zn1078  1.942   .     S
O1059  Zn1077  1.936   .     S
O1060  Zn1075  1.931   .     S
O1061  C1096   1.414   .     S
O1061  C1085   1.402   .     S
O1063  C323    1.383   1_556 S
O1067  Zn1075  1.936   .     S
O1068  Zn1078  1.941   .     S
O1069  Zn1076  1.933   .     S
O1070  Zn1077  1.940   .     S
O1071  Zn1078  1.938   .     S
O1072  Zn1075  1.934   .     S
O1073  Zn1076  1.943   .     S
O1074  Zn1077  1.936   .     S
C1079  O1146   1.264   .     A
C1079  C1085   1.444   .     S
C1079  O1148   1.271   .     A
C1080  H1113   1.080   .     S
C1080  C1105   1.399   .     A
C1080  C1094   1.386   .     A
C1081  Cl1109  1.767   .     S
C1081  C1093   1.403   .     A
C1081  C1094   1.399   .     A
C1082  O1147   1.289   .     A
C1082  C1084   1.463   .     S
C1082  O1149   1.277   .     A
C1083  C1095   1.421   .     A
C1083  C1092   1.494   .     S
C1083  C1104   1.431   .     A
C1084  C931    1.355   1_655 S
C1084  O989    1.389   1_655 S
C1086  C1089   1.455   .     S
C1086  C1318   1.350   .     S
C1086  Cl1341  1.774   .     S
C1087  C1088   1.426   .     S
C1088  O1144   1.274   .     A
C1088  O1150   1.272   .     A
C1089  O1145   1.271   .     A
C1089  O1151   1.280   .     A
C1090  C1095   1.387   .     A
C1090  C408    1.388   1_556 S
C1090  H431    1.084   1_556 S
C1091  O1134   1.274   .     A
C1091  O1136   1.277   .     A
C1091  C1094   1.446   .     S
C1092  O1137   1.291   .     A
C1092  O1135   1.287   .     A
C1095  Cl1112  1.767   .     S
C1096  H1126   1.112   .     S
C1096  H1127   1.111   .     S
C1097  H1130   1.109   .     S
C1097  H1131   1.117   .     S
C1097  O1139   1.416   .     S
C1097  H1129   1.111   .     S
C1098  H1132   1.109   .     S
C1098  O1140   1.411   .     S
C1098  H1114   1.113   .     S
C1098  H422    1.112   1_556 S
C1099  H1116   1.113   .     S
C1099  H1117   1.113   .     S
C1099  H1118   1.109   .     S
C1099  O1141   1.411   .     S
C1100  H1119   1.112   .     S
C1100  H1121   1.109   .     S
C1100  H1120   1.114   .     S
C1100  O1142   1.410   .     S
C1101  O1141   1.382   .     S
C1102  H1123   1.113   .     S
C1102  O1143   1.410   .     S
C1102  H1122   1.112   .     S
C1102  H1125   1.109   .     S
C1103  C1104   1.423   .     A
C1103  C408    1.422   1_556 S
C1103  C412    1.423   1_556 S
C1104  C1108   1.418   .     A
C1106  C1107   1.403   .     A
C1106  C412    1.421   1_556 S
C1106  C400    1.420   1_556 S
C1107  O1139   1.382   .     S
C1107  C1108   1.403   .     A
C1108  O1142   1.386   .     S
Cl1111 C1318   1.770   .     S
H1128  C942    1.102   1_655 S
O1133  Zn1155  1.938   .     S
O1133  Zn1152  1.959   .     S
O1133  Zn1153  1.946   .     S
O1133  Zn1154  1.947   .     S
O1134  Zn1153  1.936   .     S
O1135  Zn1155  1.942   .     S
O1136  Zn1154  1.936   .     S
O1137  Zn1152  1.931   .     S
O1138  C942    1.414   1_655 S
O1138  C931    1.402   1_655 S
O1140  C400    1.383   1_556 S
O1144  Zn1152  1.936   .     S
O1145  Zn1155  1.941   .     S
O1146  Zn1153  1.933   .     S
O1147  Zn1154  1.940   .     S
O1148  Zn1155  1.938   .     S
O1149  Zn1152  1.934   .     S
O1150  Zn1153  1.943   .     S
O1151  Zn1154  1.936   .     S
C1156  O1223   1.264   .     A
C1156  C1162   1.444   .     S
C1156  O1225   1.271   .     A
C1157  H1190   1.080   .     S
C1157  C1182   1.399   .     A
C1157  C1171   1.386   .     A
C1158  Cl1186  1.767   .     S
C1158  C1170   1.403   .     A
C1158  C1171   1.399   .     A
C1159  O1224   1.289   .     A
C1159  C1161   1.463   .     S
C1159  O1226   1.277   .     A
C1160  C1172   1.421   .     A
C1160  C1169   1.494   .     S
C1160  C1181   1.431   .     A
C1161  C1239   1.355   .     S
C1161  O1297   1.389   .     S
C1162  C1315   1.355   1_455 S
C1162  O1369   1.402   1_455 S
C1163  C1166   1.455   .     S
C1163  C702    1.350   1_565 S
C1163  Cl725   1.774   1_565 S
C1164  C1165   1.426   .     S
C1165  O1221   1.274   .     A
C1165  O1227   1.272   .     A
C1166  O1222   1.271   .     A
C1166  O1228   1.280   .     A
C1167  C1172   1.387   .     A
C1167  C485    1.388   1_556 S
C1167  H508    1.084   1_556 S
C1168  O1211   1.274   .     A
C1168  O1213   1.277   .     A
C1168  C1171   1.446   .     S
C1169  O1214   1.291   .     A
C1169  O1212   1.287   .     A
C1172  Cl1189  1.767   .     S
C1173  H1203   1.112   .     S
C1173  H1204   1.111   .     S
C1173  H1359   1.102   1_455 S
C1173  O1369   1.414   1_455 S
C1174  H1207   1.109   .     S
C1174  H1208   1.117   .     S
C1174  O1216   1.416   .     S
C1174  H1206   1.111   .     S
C1175  H1209   1.109   .     S
C1175  O1217   1.411   .     S
C1175  H1191   1.113   .     S
C1175  H499    1.112   1_556 S
C1176  H1193   1.113   .     S
C1176  H1194   1.113   .     S
C1176  H1195   1.109   .     S
C1176  O1218   1.411   .     S
C1177  H1196   1.112   .     S
C1177  H1198   1.109   .     S
C1177  H1197   1.114   .     S
C1177  O1219   1.410   .     S
C1178  O1218   1.382   .     S
C1179  H1200   1.113   .     S
C1179  O1220   1.410   .     S
C1179  H1199   1.112   .     S
C1179  H1202   1.109   .     S
C1180  C1181   1.423   .     A
C1180  C485    1.422   1_556 S
C1180  C489    1.423   1_556 S
C1181  C1185   1.418   .     A
C1183  C1184   1.403   .     A
C1183  C489    1.421   1_556 S
C1183  C477    1.420   1_556 S
C1184  O1216   1.382   .     S
C1184  C1185   1.403   .     A
C1185  O1219   1.386   .     S
Cl1188 C702    1.770   1_565 S
H1205  C1250   1.102   .     S
O1210  Zn1232  1.938   .     S
O1210  Zn1229  1.959   .     S
O1210  Zn1230  1.946   .     S
O1210  Zn1231  1.947   .     S
O1211  Zn1230  1.936   .     S
O1212  Zn1232  1.942   .     S
O1213  Zn1231  1.936   .     S
O1214  Zn1229  1.931   .     S
O1215  C1250   1.414   .     S
O1215  C1239   1.402   .     S
O1217  C477    1.383   1_556 S
O1220  C1315   1.389   1_455 S
O1221  Zn1229  1.936   .     S
O1222  Zn1232  1.941   .     S
O1223  Zn1230  1.933   .     S
O1224  Zn1231  1.940   .     S
O1225  Zn1232  1.938   .     S
O1226  Zn1229  1.934   .     S
O1227  Zn1230  1.943   .     S
O1228  Zn1231  1.936   .     S
C1233  O1300   1.264   .     A
C1233  C1239   1.444   .     S
C1233  O1302   1.271   .     A
C1234  H1267   1.080   .     S
C1234  C1259   1.399   .     A
C1234  C1248   1.386   .     A
C1235  Cl1263  1.767   .     S
C1235  C1247   1.403   .     A
C1235  C1248   1.399   .     A
C1236  O1301   1.289   .     A
C1236  C1238   1.463   .     S
C1236  O1303   1.277   .     A
C1237  C1249   1.421   .     A
C1237  C1246   1.494   .     S
C1237  C1258   1.431   .     A
C1238  C1316   1.355   .     S
C1238  O1374   1.389   .     S
C1240  C1243   1.455   .     S
C1240  C779    1.350   1_565 S
C1240  Cl802   1.774   1_565 S
C1241  C1242   1.426   .     S
C1242  O1298   1.274   .     A
C1242  O1304   1.272   .     A
C1243  O1299   1.271   .     A
C1243  O1305   1.280   .     A
C1244  C1249   1.387   .     A
C1244  C562    1.388   1_556 S
C1244  H585    1.084   1_556 S
C1245  O1288   1.274   .     A
C1245  O1290   1.277   .     A
C1245  C1248   1.446   .     S
C1246  O1291   1.291   .     A
C1246  O1289   1.287   .     A
C1249  Cl1266  1.767   .     S
C1250  H1280   1.112   .     S
C1250  H1281   1.111   .     S
C1251  H1284   1.109   .     S
C1251  H1285   1.117   .     S
C1251  O1293   1.416   .     S
C1251  H1283   1.111   .     S
C1252  H1286   1.109   .     S
C1252  O1294   1.411   .     S
C1252  H1268   1.113   .     S
C1252  H576    1.112   1_556 S
C1253  H1270   1.113   .     S
C1253  H1271   1.113   .     S
C1253  H1272   1.109   .     S
C1253  O1295   1.411   .     S
C1254  H1273   1.112   .     S
C1254  H1275   1.109   .     S
C1254  H1274   1.114   .     S
C1254  O1296   1.410   .     S
C1255  O1295   1.382   .     S
C1256  H1277   1.113   .     S
C1256  O1297   1.410   .     S
C1256  H1276   1.112   .     S
C1256  H1279   1.109   .     S
C1257  C1258   1.423   .     A
C1257  C562    1.422   1_556 S
C1257  C566    1.423   1_556 S
C1258  C1262   1.418   .     A
C1260  C1261   1.403   .     A
C1260  C566    1.421   1_556 S
C1260  C554    1.420   1_556 S
C1261  O1293   1.382   .     S
C1261  C1262   1.403   .     A
C1262  O1296   1.386   .     S
Cl1265 C779    1.770   1_565 S
H1282  C1327   1.102   .     S
O1287  Zn1309  1.938   .     S
O1287  Zn1306  1.959   .     S
O1287  Zn1307  1.946   .     S
O1287  Zn1308  1.947   .     S
O1288  Zn1307  1.936   .     S
O1289  Zn1309  1.942   .     S
O1290  Zn1308  1.936   .     S
O1291  Zn1306  1.931   .     S
O1292  C1327   1.414   .     S
O1292  C1316   1.402   .     S
O1294  C554    1.383   1_556 S
O1298  Zn1306  1.936   .     S
O1299  Zn1309  1.941   .     S
O1300  Zn1307  1.933   .     S
O1301  Zn1308  1.940   .     S
O1302  Zn1309  1.938   .     S
O1303  Zn1306  1.934   .     S
O1304  Zn1307  1.943   .     S
O1305  Zn1308  1.936   .     S
C1310  O1377   1.264   .     A
C1310  C1316   1.444   .     S
C1310  O1379   1.271   .     A
C1311  H1344   1.080   .     S
C1311  C1336   1.399   .     A
C1311  C1325   1.386   .     A
C1312  Cl1340  1.767   .     S
C1312  C1324   1.403   .     A
C1312  C1325   1.399   .     A
C1313  O1378   1.289   .     A
C1313  C1315   1.463   .     S
C1313  O1380   1.277   .     A
C1314  C1326   1.421   .     A
C1314  C1323   1.494   .     S
C1314  C1335   1.431   .     A
C1315  C1162   1.355   1_655 S
C1315  O1220   1.389   1_655 S
C1317  C1320   1.455   .     S
C1317  C856    1.350   1_565 S
C1317  Cl879   1.774   1_565 S
C1318  C1319   1.426   .     S
C1319  O1375   1.274   .     A
C1319  O1381   1.272   .     A
C1320  O1376   1.271   .     A
C1320  O1382   1.280   .     A
C1321  C1326   1.387   .     A
C1321  C639    1.388   1_556 S
C1321  H662    1.084   1_556 S
C1322  O1365   1.274   .     A
C1322  O1367   1.277   .     A
C1322  C1325   1.446   .     S
C1323  O1368   1.291   .     A
C1323  O1366   1.287   .     A
C1326  Cl1343  1.767   .     S
C1327  H1357   1.112   .     S
C1327  H1358   1.111   .     S
C1328  H1361   1.109   .     S
C1328  H1362   1.117   .     S
C1328  O1370   1.416   .     S
C1328  H1360   1.111   .     S
C1329  H1363   1.109   .     S
C1329  O1371   1.411   .     S
C1329  H1345   1.113   .     S
C1329  H653    1.112   1_556 S
C1330  H1347   1.113   .     S
C1330  H1348   1.113   .     S
C1330  H1349   1.109   .     S
C1330  O1372   1.411   .     S
C1331  H1350   1.112   .     S
C1331  H1352   1.109   .     S
C1331  H1351   1.114   .     S
C1331  O1373   1.410   .     S
C1332  O1372   1.382   .     S
C1333  H1354   1.113   .     S
C1333  O1374   1.410   .     S
C1333  H1353   1.112   .     S
C1333  H1356   1.109   .     S
C1334  C1335   1.423   .     A
C1334  C639    1.422   1_556 S
C1334  C643    1.423   1_556 S
C1335  C1339   1.418   .     A
C1337  C1338   1.403   .     A
C1337  C643    1.421   1_556 S
C1337  C631    1.420   1_556 S
C1338  O1370   1.382   .     S
C1338  C1339   1.403   .     A
C1339  O1373   1.386   .     S
Cl1342 C856    1.770   1_565 S
H1359  C1173   1.102   1_655 S
O1364  Zn1386  1.938   .     S
O1364  Zn1383  1.959   .     S
O1364  Zn1384  1.946   .     S
O1364  Zn1385  1.947   .     S
O1365  Zn1384  1.936   .     S
O1366  Zn1386  1.942   .     S
O1367  Zn1385  1.936   .     S
O1368  Zn1383  1.931   .     S
O1369  C1173   1.414   1_655 S
O1369  C1162   1.402   1_655 S
O1371  C631    1.383   1_556 S
O1375  Zn1383  1.936   .     S
O1376  Zn1386  1.941   .     S
O1377  Zn1384  1.933   .     S
O1378  Zn1385  1.940   .     S
O1379  Zn1386  1.938   .     S
O1380  Zn1383  1.934   .     S
O1381  Zn1384  1.943   .     S
O1382  Zn1385  1.936   .     S
