data_str_m1_o10_o18_pcu_sym.46
_audit_creation_date              2020-01-03
_audit_creation_method            'Materials Studio'
_symmetry_space_group_name_H-M    'P1'
_symmetry_Int_Tables_number       1
_symmetry_cell_setting            triclinic
loop_
_symmetry_equiv_pos_as_xyz
  x,y,z
_cell_length_a                    32.6220
_cell_length_b                    32.4806
_cell_length_c                    35.4396
_cell_angle_alpha                 98.1073
_cell_angle_beta                  73.2561
_cell_angle_gamma                 98.3157
loop_
_atom_site_label
_atom_site_type_symbol
_atom_site_fract_x
_atom_site_fract_y
_atom_site_fract_z
_atom_site_U_iso_or_equiv
_atom_site_adp_type
_atom_site_occupancy
C1     C     0.05273   0.16027   0.25849   0.00000  Uiso   1.00
C2     C     0.18751   0.11507   0.45963   0.00000  Uiso   1.00
C3     C     0.21166   0.09933   0.47991   0.00000  Uiso   1.00
C4     C     0.28100   0.17332   0.24140   0.00000  Uiso   1.00
C5     C     0.20650   0.11088   0.02041   0.00000  Uiso   1.00
C6     C     0.17457   0.13739   0.04152   0.00000  Uiso   1.00
C7     C     0.23286   0.09629   0.03996   0.00000  Uiso   1.00
C8     C     0.22560   0.10703   0.08106   0.00000  Uiso   1.00
C9     C     0.17388   0.15353   0.08096   0.00000  Uiso   1.00
C10    C     0.32669   0.17375   0.23768   0.00000  Uiso   1.00
C11    C     0.00677   0.15717   0.26421   0.00000  Uiso   1.00
C12    C     0.09218   0.20801   0.42193   0.00000  Uiso   1.00
C13    C     0.18066   0.32212   0.23804   0.00000  Uiso   1.00
C14    C     0.15164   0.01214   0.26247   0.00000  Uiso   1.00
C15    C     0.15584   0.05611   0.25909   0.00000  Uiso   1.00
C16    C     0.17681   0.27767   0.24135   0.00000  Uiso   1.00
C17    C     0.18815   0.14523   0.14393   0.00000  Uiso   1.00
C18    C     0.14501   0.18742   0.35652   0.00000  Uiso   1.00
C19    C     0.13015   0.19031   0.40035   0.00000  Uiso   1.00
C20    C     0.19679   0.13578   0.10111   0.00000  Uiso   1.00
C21    C     0.07435   0.20247   0.46232   0.00000  Uiso   1.00
C22    C     0.04717   0.23004   0.06724   0.00000  Uiso   1.00
C23    C     0.15215   0.17120   0.42030   0.00000  Uiso   1.00
C24    C     0.30209   0.07852   0.02845   0.00000  Uiso   1.00
C25    C     0.32736   0.11648   0.31667   0.00000  Uiso   1.00
C26    C     0.17937   0.22449   0.08789   0.00000  Uiso   1.00
C27    C     0.15902   0.26239   0.11235   0.00000  Uiso   1.00
C28    C     0.00138   0.19058   0.47458   0.00000  Uiso   1.00
C29    C     0.29260   0.20388   0.00239   0.00000  Uiso   1.00
C30    C     0.08423   0.27199   0.40834   0.00000  Uiso   1.00
C31    C     0.06731   0.11012   0.08134   0.00000  Uiso   1.00
C32    C     0.16003   0.06591   0.41847   0.00000  Uiso   1.00
C33    C     0.16236   0.05134   0.37526   0.00000  Uiso   1.00
C34    C     0.13525   0.16510   0.46061   0.00000  Uiso   1.00
C35    C     0.09667   0.18257   0.48239   0.00000  Uiso   1.00
C36    C     0.15692   0.14347   0.48006   0.00000  Uiso   1.00
C37    C     0.14587   0.14843   0.02196   0.00000  Uiso   1.00
C38    C     0.10471   0.16077   0.04277   0.00000  Uiso   1.00
C39    C     0.08111   0.17922   0.02354   0.00000  Uiso   1.00
H40    H     0.01652   0.18708   0.21243   0.00000  Uiso   1.00
H41    H     0.30117   0.06337   0.05492   0.00000  Uiso   1.00
H42    H     0.31132   0.11287   0.03311   0.00000  Uiso   1.00
H43    H     0.32773   0.06567   0.00340   0.00000  Uiso   1.00
H44    H     0.01927   0.13316   0.33040   0.00000  Uiso   1.00
H45    H     0.00656   0.08987   0.29496   0.00000  Uiso   1.00
H46    H     0.30078   0.10324   0.34068   0.00000  Uiso   1.00
H47    H     0.18322   0.22717   0.05604   0.00000  Uiso   1.00
H48    H     0.21177   0.22498   0.09271   0.00000  Uiso   1.00
H49    H     0.15501   0.26063   0.14431   0.00000  Uiso   1.00
H50    H     0.18001   0.29144   0.10333   0.00000  Uiso   1.00
H51    H     0.20732   0.00263   0.21553   0.00000  Uiso   1.00
H52    H     0.12706   0.26358   0.10760   0.00000  Uiso   1.00
H53    H     0.00392   0.15795   0.47936   0.00000  Uiso   1.00
H54    H     0.00017   0.19104   0.44360   0.00000  Uiso   1.00
H55    H     0.28959   0.23678   0.49930   0.00000  Uiso   1.00
H56    H     0.26504   0.18350   0.49497   0.00000  Uiso   1.00
H57    H     0.29152   0.20116   0.03357   0.00000  Uiso   1.00
H58    H     0.07485   0.28462   0.44013   0.00000  Uiso   1.00
H59    H     0.11962   0.27877   0.39550   0.00000  Uiso   1.00
H60    H     0.06810   0.28867   0.39239   0.00000  Uiso   1.00
H61    H     0.09268   0.08849   0.06987   0.00000  Uiso   1.00
H62    H     0.12472   0.33247   0.28522   0.00000  Uiso   1.00
H63    H     0.04328   0.10349   0.06386   0.00000  Uiso   1.00
H64    H     0.05028   0.10389   0.11227   0.00000  Uiso   1.00
H65    H     0.12718   0.07535   0.43325   0.00000  Uiso   1.00
H66    H     0.16510   0.03920   0.43257   0.00000  Uiso   1.00
H67    H     0.19462   0.04137   0.35949   0.00000  Uiso   1.00
H68    H     0.13749   0.02453   0.37330   0.00000  Uiso   1.00
H69    H     0.15651   0.07723   0.36075   0.00000  Uiso   1.00
H70    H     0.24249   0.09330   0.09751   0.00000  Uiso   1.00
H71    H     0.23479   0.07802   0.46337   0.00000  Uiso   1.00
H72    H     0.18352   0.16243   0.40388   0.00000  Uiso   1.00
H73    H     0.06792   0.25393   0.04836   0.00000  Uiso   1.00
H74    H     0.06076   0.22662   0.09185   0.00000  Uiso   1.00
H75    H     0.01530   0.24176   0.08065   0.00000  Uiso   1.00
O76    O     0.16667   0.16667   0.25000   0.00000  Uiso   1.00
O77    O     0.15693   0.12393   0.16625   0.00000  Uiso   1.00
O78    O     0.12687   0.20646   0.33749   0.00000  Uiso   1.00
O79    O     0.21088   0.17493   0.15877   0.00000  Uiso   1.00
O80    O     0.17198   0.16135   0.33749   0.00000  Uiso   1.00
O81    O     0.04120   0.19122   0.04491   0.00000  Uiso   1.00
O82    O     0.26242   0.06869   0.01884   0.00000  Uiso   1.00
O83    O     0.31087   0.14438   0.29907   0.00000  Uiso   1.00
O84    O     0.15250   0.18777   0.09981   0.00000  Uiso   1.00
O85    O     0.03604   0.21867   0.48242   0.00000  Uiso   1.00
O86    O     0.07071   0.22880   0.40329   0.00000  Uiso   1.00
O87    O     0.17849   0.08101   0.27820   0.00000  Uiso   1.00
O88    O     0.08531   0.15230   0.08151   0.00000  Uiso   1.00
O89    O     0.19226   0.09961   0.42039   0.00000  Uiso   1.00
O90    O     0.14581   0.26136   0.26767   0.00000  Uiso   1.00
O91    O     0.07452   0.13251   0.23607   0.00000  Uiso   1.00
O92    O     0.26785   0.19179   0.21805   0.00000  Uiso   1.00
O93    O     0.06990   0.18960   0.27820   0.00000  Uiso   1.00
O94    O     0.25440   0.15277   0.26767   0.00000  Uiso   1.00
O95    O     0.13800   0.06903   0.23607   0.00000  Uiso   1.00
O96    O     0.20437   0.25527   0.21805   0.00000  Uiso   1.00
Zn97   Zn    0.19244   0.14090   0.28277   0.00000  Uiso   1.00
Zn98   Zn    0.13459   0.12378   0.22257   0.00000  Uiso   1.00
Zn99   Zn    0.21166   0.19664   0.21188   0.00000  Uiso   1.00
Zn100  Zn    0.12798   0.20535   0.28277   0.00000  Uiso   1.00
C101   C     0.38606   0.16027   0.25849   0.00000  Uiso   1.00
C102   C     0.52084   0.11507   0.45963   0.00000  Uiso   1.00
C103   C     0.54499   0.09933   0.47991   0.00000  Uiso   1.00
C104   C     0.61433   0.17332   0.24140   0.00000  Uiso   1.00
C105   C     0.53983   0.11088   0.02041   0.00000  Uiso   1.00
C106   C     0.50790   0.13739   0.04152   0.00000  Uiso   1.00
C107   C     0.56619   0.09629   0.03996   0.00000  Uiso   1.00
C108   C     0.55893   0.10703   0.08106   0.00000  Uiso   1.00
C109   C     0.50721   0.15353   0.08096   0.00000  Uiso   1.00
C110   C     0.66002   0.17375   0.23768   0.00000  Uiso   1.00
C111   C     0.34010   0.15717   0.26421   0.00000  Uiso   1.00
C112   C     0.42552   0.20801   0.42193   0.00000  Uiso   1.00
C113   C     0.51399   0.32212   0.23804   0.00000  Uiso   1.00
C114   C     0.48498   0.01214   0.26247   0.00000  Uiso   1.00
C115   C     0.48918   0.05611   0.25909   0.00000  Uiso   1.00
C116   C     0.51015   0.27767   0.24135   0.00000  Uiso   1.00
C117   C     0.52148   0.14523   0.14393   0.00000  Uiso   1.00
C118   C     0.47835   0.18742   0.35652   0.00000  Uiso   1.00
C119   C     0.46348   0.19031   0.40035   0.00000  Uiso   1.00
C120   C     0.53012   0.13578   0.10111   0.00000  Uiso   1.00
C121   C     0.40768   0.20247   0.46232   0.00000  Uiso   1.00
C122   C     0.38050   0.23004   0.06724   0.00000  Uiso   1.00
C123   C     0.48548   0.17120   0.42030   0.00000  Uiso   1.00
C124   C     0.63543   0.07852   0.02845   0.00000  Uiso   1.00
C125   C     0.66069   0.11648   0.31667   0.00000  Uiso   1.00
C126   C     0.51270   0.22449   0.08789   0.00000  Uiso   1.00
C127   C     0.49236   0.26239   0.11235   0.00000  Uiso   1.00
C128   C     0.33471   0.19058   0.47458   0.00000  Uiso   1.00
C129   C     0.62594   0.20388   0.00239   0.00000  Uiso   1.00
C130   C     0.41757   0.27199   0.40834   0.00000  Uiso   1.00
C131   C     0.40065   0.11012   0.08134   0.00000  Uiso   1.00
C132   C     0.49336   0.06591   0.41847   0.00000  Uiso   1.00
C133   C     0.49570   0.05134   0.37526   0.00000  Uiso   1.00
C134   C     0.46858   0.16510   0.46061   0.00000  Uiso   1.00
C135   C     0.43000   0.18257   0.48239   0.00000  Uiso   1.00
C136   C     0.49026   0.14347   0.48006   0.00000  Uiso   1.00
C137   C     0.47920   0.14843   0.02196   0.00000  Uiso   1.00
C138   C     0.43804   0.16077   0.04277   0.00000  Uiso   1.00
C139   C     0.41444   0.17922   0.02354   0.00000  Uiso   1.00
H140   H     0.34986   0.18708   0.21243   0.00000  Uiso   1.00
H141   H     0.63450   0.06337   0.05492   0.00000  Uiso   1.00
H142   H     0.64465   0.11287   0.03311   0.00000  Uiso   1.00
H143   H     0.66106   0.06567   0.00340   0.00000  Uiso   1.00
H144   H     0.35261   0.13316   0.33040   0.00000  Uiso   1.00
H145   H     0.33989   0.08987   0.29496   0.00000  Uiso   1.00
H146   H     0.63411   0.10324   0.34068   0.00000  Uiso   1.00
H147   H     0.51655   0.22717   0.05604   0.00000  Uiso   1.00
H148   H     0.54510   0.22498   0.09271   0.00000  Uiso   1.00
H149   H     0.48834   0.26063   0.14431   0.00000  Uiso   1.00
H150   H     0.51334   0.29144   0.10333   0.00000  Uiso   1.00
H151   H     0.54066   0.00263   0.21553   0.00000  Uiso   1.00
H152   H     0.46039   0.26358   0.10760   0.00000  Uiso   1.00
H153   H     0.33725   0.15795   0.47936   0.00000  Uiso   1.00
H154   H     0.33350   0.19104   0.44360   0.00000  Uiso   1.00
H155   H     0.62292   0.23678   0.49930   0.00000  Uiso   1.00
H156   H     0.59837   0.18350   0.49497   0.00000  Uiso   1.00
H157   H     0.62485   0.20116   0.03357   0.00000  Uiso   1.00
H158   H     0.40819   0.28462   0.44013   0.00000  Uiso   1.00
H159   H     0.45296   0.27877   0.39550   0.00000  Uiso   1.00
H160   H     0.40143   0.28867   0.39239   0.00000  Uiso   1.00
H161   H     0.42602   0.08849   0.06987   0.00000  Uiso   1.00
H162   H     0.45805   0.33247   0.28522   0.00000  Uiso   1.00
H163   H     0.37661   0.10349   0.06386   0.00000  Uiso   1.00
H164   H     0.38361   0.10389   0.11227   0.00000  Uiso   1.00
H165   H     0.46051   0.07535   0.43325   0.00000  Uiso   1.00
H166   H     0.49843   0.03920   0.43257   0.00000  Uiso   1.00
H167   H     0.52796   0.04137   0.35949   0.00000  Uiso   1.00
H168   H     0.47082   0.02453   0.37330   0.00000  Uiso   1.00
H169   H     0.48984   0.07723   0.36075   0.00000  Uiso   1.00
H170   H     0.57582   0.09330   0.09751   0.00000  Uiso   1.00
H171   H     0.56813   0.07802   0.46337   0.00000  Uiso   1.00
H172   H     0.51686   0.16243   0.40388   0.00000  Uiso   1.00
H173   H     0.40126   0.25393   0.04836   0.00000  Uiso   1.00
H174   H     0.39409   0.22662   0.09185   0.00000  Uiso   1.00
H175   H     0.34863   0.24176   0.08065   0.00000  Uiso   1.00
O176   O     0.50000   0.16667   0.25000   0.00000  Uiso   1.00
O177   O     0.49027   0.12393   0.16625   0.00000  Uiso   1.00
O178   O     0.46020   0.20646   0.33749   0.00000  Uiso   1.00
O179   O     0.54421   0.17493   0.15877   0.00000  Uiso   1.00
O180   O     0.50532   0.16135   0.33749   0.00000  Uiso   1.00
O181   O     0.37454   0.19122   0.04491   0.00000  Uiso   1.00
O182   O     0.59576   0.06869   0.01884   0.00000  Uiso   1.00
O183   O     0.64421   0.14438   0.29907   0.00000  Uiso   1.00
O184   O     0.48583   0.18777   0.09981   0.00000  Uiso   1.00
O185   O     0.36937   0.21867   0.48242   0.00000  Uiso   1.00
O186   O     0.40404   0.22880   0.40329   0.00000  Uiso   1.00
O187   O     0.51182   0.08101   0.27820   0.00000  Uiso   1.00
O188   O     0.41864   0.15230   0.08151   0.00000  Uiso   1.00
O189   O     0.52559   0.09961   0.42039   0.00000  Uiso   1.00
O190   O     0.47914   0.26136   0.26767   0.00000  Uiso   1.00
O191   O     0.40785   0.13251   0.23607   0.00000  Uiso   1.00
O192   O     0.60119   0.19179   0.21805   0.00000  Uiso   1.00
O193   O     0.40323   0.18960   0.27820   0.00000  Uiso   1.00
O194   O     0.58773   0.15277   0.26767   0.00000  Uiso   1.00
O195   O     0.47133   0.06903   0.23607   0.00000  Uiso   1.00
O196   O     0.53771   0.25527   0.21805   0.00000  Uiso   1.00
Zn197  Zn    0.52577   0.14090   0.28277   0.00000  Uiso   1.00
Zn198  Zn    0.46792   0.12378   0.22257   0.00000  Uiso   1.00
Zn199  Zn    0.54500   0.19664   0.21188   0.00000  Uiso   1.00
Zn200  Zn    0.46131   0.20535   0.28277   0.00000  Uiso   1.00
C201   C     0.71940   0.16027   0.25849   0.00000  Uiso   1.00
C202   C     0.85418   0.11507   0.45963   0.00000  Uiso   1.00
C203   C     0.87832   0.09933   0.47991   0.00000  Uiso   1.00
C204   C     0.94766   0.17332   0.24140   0.00000  Uiso   1.00
C205   C     0.87317   0.11088   0.02041   0.00000  Uiso   1.00
C206   C     0.84123   0.13739   0.04152   0.00000  Uiso   1.00
C207   C     0.89953   0.09629   0.03996   0.00000  Uiso   1.00
C208   C     0.89226   0.10703   0.08106   0.00000  Uiso   1.00
C209   C     0.84055   0.15353   0.08096   0.00000  Uiso   1.00
C210   C     0.99336   0.17375   0.23768   0.00000  Uiso   1.00
C211   C     0.67343   0.15717   0.26421   0.00000  Uiso   1.00
C212   C     0.75885   0.20801   0.42193   0.00000  Uiso   1.00
C213   C     0.84732   0.32212   0.23804   0.00000  Uiso   1.00
C214   C     0.81831   0.01214   0.26247   0.00000  Uiso   1.00
C215   C     0.82251   0.05611   0.25909   0.00000  Uiso   1.00
C216   C     0.84348   0.27767   0.24135   0.00000  Uiso   1.00
C217   C     0.85482   0.14523   0.14393   0.00000  Uiso   1.00
C218   C     0.81168   0.18742   0.35652   0.00000  Uiso   1.00
C219   C     0.79682   0.19031   0.40035   0.00000  Uiso   1.00
C220   C     0.86345   0.13578   0.10111   0.00000  Uiso   1.00
C221   C     0.74102   0.20247   0.46232   0.00000  Uiso   1.00
C222   C     0.71384   0.23004   0.06724   0.00000  Uiso   1.00
C223   C     0.81881   0.17120   0.42030   0.00000  Uiso   1.00
C224   C     0.96876   0.07852   0.02845   0.00000  Uiso   1.00
C225   C     0.99403   0.11648   0.31667   0.00000  Uiso   1.00
C226   C     0.84604   0.22449   0.08789   0.00000  Uiso   1.00
C227   C     0.82569   0.26239   0.11235   0.00000  Uiso   1.00
C228   C     0.66804   0.19058   0.47458   0.00000  Uiso   1.00
C229   C     0.95927   0.20388   0.00239   0.00000  Uiso   1.00
C230   C     0.75090   0.27199   0.40834   0.00000  Uiso   1.00
C231   C     0.73398   0.11012   0.08134   0.00000  Uiso   1.00
C232   C     0.82669   0.06591   0.41847   0.00000  Uiso   1.00
C233   C     0.82903   0.05134   0.37526   0.00000  Uiso   1.00
C234   C     0.80191   0.16510   0.46061   0.00000  Uiso   1.00
C235   C     0.76334   0.18257   0.48239   0.00000  Uiso   1.00
C236   C     0.82359   0.14347   0.48006   0.00000  Uiso   1.00
C237   C     0.81254   0.14843   0.02196   0.00000  Uiso   1.00
C238   C     0.77137   0.16077   0.04277   0.00000  Uiso   1.00
C239   C     0.74777   0.17922   0.02354   0.00000  Uiso   1.00
H240   H     0.68319   0.18708   0.21243   0.00000  Uiso   1.00
H241   H     0.96784   0.06337   0.05492   0.00000  Uiso   1.00
H242   H     0.97799   0.11287   0.03311   0.00000  Uiso   1.00
H243   H     0.99440   0.06567   0.00340   0.00000  Uiso   1.00
H244   H     0.68594   0.13316   0.33040   0.00000  Uiso   1.00
H245   H     0.67322   0.08987   0.29496   0.00000  Uiso   1.00
H246   H     0.96745   0.10324   0.34068   0.00000  Uiso   1.00
H247   H     0.84989   0.22717   0.05604   0.00000  Uiso   1.00
H248   H     0.87843   0.22498   0.09271   0.00000  Uiso   1.00
H249   H     0.82168   0.26063   0.14431   0.00000  Uiso   1.00
H250   H     0.84667   0.29144   0.10333   0.00000  Uiso   1.00
H251   H     0.87399   0.00263   0.21553   0.00000  Uiso   1.00
H252   H     0.79372   0.26358   0.10760   0.00000  Uiso   1.00
H253   H     0.67059   0.15795   0.47936   0.00000  Uiso   1.00
H254   H     0.66684   0.19104   0.44360   0.00000  Uiso   1.00
H255   H     0.95625   0.23678   0.49930   0.00000  Uiso   1.00
H256   H     0.93170   0.18350   0.49497   0.00000  Uiso   1.00
H257   H     0.95818   0.20116   0.03357   0.00000  Uiso   1.00
H258   H     0.74152   0.28462   0.44013   0.00000  Uiso   1.00
H259   H     0.78629   0.27877   0.39550   0.00000  Uiso   1.00
H260   H     0.73477   0.28867   0.39239   0.00000  Uiso   1.00
H261   H     0.75935   0.08849   0.06987   0.00000  Uiso   1.00
H262   H     0.79138   0.33247   0.28522   0.00000  Uiso   1.00
H263   H     0.70995   0.10349   0.06386   0.00000  Uiso   1.00
H264   H     0.71695   0.10389   0.11227   0.00000  Uiso   1.00
H265   H     0.79384   0.07535   0.43325   0.00000  Uiso   1.00
H266   H     0.83176   0.03920   0.43257   0.00000  Uiso   1.00
H267   H     0.86129   0.04137   0.35949   0.00000  Uiso   1.00
H268   H     0.80415   0.02453   0.37330   0.00000  Uiso   1.00
H269   H     0.82317   0.07723   0.36075   0.00000  Uiso   1.00
H270   H     0.90915   0.09330   0.09751   0.00000  Uiso   1.00
H271   H     0.90146   0.07802   0.46337   0.00000  Uiso   1.00
H272   H     0.85019   0.16243   0.40388   0.00000  Uiso   1.00
H273   H     0.73459   0.25393   0.04836   0.00000  Uiso   1.00
H274   H     0.72743   0.22662   0.09185   0.00000  Uiso   1.00
H275   H     0.68196   0.24176   0.08065   0.00000  Uiso   1.00
O276   O     0.83333   0.16667   0.25000   0.00000  Uiso   1.00
O277   O     0.82360   0.12393   0.16625   0.00000  Uiso   1.00
O278   O     0.79354   0.20646   0.33749   0.00000  Uiso   1.00
O279   O     0.87755   0.17493   0.15877   0.00000  Uiso   1.00
O280   O     0.83865   0.16135   0.33749   0.00000  Uiso   1.00
O281   O     0.70787   0.19122   0.04491   0.00000  Uiso   1.00
O282   O     0.92909   0.06869   0.01884   0.00000  Uiso   1.00
O283   O     0.97754   0.14438   0.29907   0.00000  Uiso   1.00
O284   O     0.81917   0.18777   0.09981   0.00000  Uiso   1.00
O285   O     0.70271   0.21867   0.48242   0.00000  Uiso   1.00
O286   O     0.73738   0.22880   0.40329   0.00000  Uiso   1.00
O287   O     0.84515   0.08101   0.27820   0.00000  Uiso   1.00
O288   O     0.75197   0.15230   0.08151   0.00000  Uiso   1.00
O289   O     0.85892   0.09961   0.42039   0.00000  Uiso   1.00
O290   O     0.81247   0.26136   0.26767   0.00000  Uiso   1.00
O291   O     0.74119   0.13251   0.23607   0.00000  Uiso   1.00
O292   O     0.93452   0.19179   0.21805   0.00000  Uiso   1.00
O293   O     0.73656   0.18960   0.27820   0.00000  Uiso   1.00
O294   O     0.92106   0.15277   0.26767   0.00000  Uiso   1.00
O295   O     0.80467   0.06903   0.23607   0.00000  Uiso   1.00
O296   O     0.87104   0.25527   0.21805   0.00000  Uiso   1.00
Zn297  Zn    0.85910   0.14090   0.28277   0.00000  Uiso   1.00
Zn298  Zn    0.80125   0.12378   0.22257   0.00000  Uiso   1.00
Zn299  Zn    0.87833   0.19664   0.21188   0.00000  Uiso   1.00
Zn300  Zn    0.79465   0.20535   0.28277   0.00000  Uiso   1.00
C301   C     0.05273   0.49361   0.25849   0.00000  Uiso   1.00
C302   C     0.18751   0.44841   0.45963   0.00000  Uiso   1.00
C303   C     0.21166   0.43266   0.47991   0.00000  Uiso   1.00
C304   C     0.28100   0.50665   0.24140   0.00000  Uiso   1.00
C305   C     0.20650   0.44422   0.02041   0.00000  Uiso   1.00
C306   C     0.17457   0.47072   0.04152   0.00000  Uiso   1.00
C307   C     0.23286   0.42962   0.03996   0.00000  Uiso   1.00
C308   C     0.22560   0.44037   0.08106   0.00000  Uiso   1.00
C309   C     0.17388   0.48686   0.08096   0.00000  Uiso   1.00
C310   C     0.32669   0.50708   0.23768   0.00000  Uiso   1.00
C311   C     0.00677   0.49051   0.26421   0.00000  Uiso   1.00
C312   C     0.09218   0.54134   0.42193   0.00000  Uiso   1.00
C313   C     0.18066   0.65545   0.23804   0.00000  Uiso   1.00
C314   C     0.15164   0.34547   0.26247   0.00000  Uiso   1.00
C315   C     0.15584   0.38944   0.25909   0.00000  Uiso   1.00
C316   C     0.17681   0.61100   0.24135   0.00000  Uiso   1.00
C317   C     0.18815   0.47856   0.14393   0.00000  Uiso   1.00
C318   C     0.14501   0.52075   0.35652   0.00000  Uiso   1.00
C319   C     0.13015   0.52365   0.40035   0.00000  Uiso   1.00
C320   C     0.19679   0.46912   0.10111   0.00000  Uiso   1.00
C321   C     0.07435   0.53581   0.46232   0.00000  Uiso   1.00
C322   C     0.04717   0.56338   0.06724   0.00000  Uiso   1.00
C323   C     0.15215   0.50453   0.42030   0.00000  Uiso   1.00
C324   C     0.30209   0.41186   0.02845   0.00000  Uiso   1.00
C325   C     0.32736   0.44981   0.31667   0.00000  Uiso   1.00
C326   C     0.17937   0.55782   0.08789   0.00000  Uiso   1.00
C327   C     0.15902   0.59573   0.11235   0.00000  Uiso   1.00
C328   C     0.00138   0.52392   0.47458   0.00000  Uiso   1.00
C329   C     0.29260   0.53721   0.00239   0.00000  Uiso   1.00
C330   C     0.08423   0.60532   0.40834   0.00000  Uiso   1.00
C331   C     0.06731   0.44346   0.08134   0.00000  Uiso   1.00
C332   C     0.16003   0.39924   0.41847   0.00000  Uiso   1.00
C333   C     0.16236   0.38468   0.37526   0.00000  Uiso   1.00
C334   C     0.13525   0.49844   0.46061   0.00000  Uiso   1.00
C335   C     0.09667   0.51590   0.48239   0.00000  Uiso   1.00
C336   C     0.15692   0.47680   0.48006   0.00000  Uiso   1.00
C337   C     0.14587   0.48176   0.02196   0.00000  Uiso   1.00
C338   C     0.10471   0.49411   0.04277   0.00000  Uiso   1.00
C339   C     0.08111   0.51255   0.02354   0.00000  Uiso   1.00
H340   H     0.01652   0.52041   0.21243   0.00000  Uiso   1.00
H341   H     0.30117   0.39670   0.05492   0.00000  Uiso   1.00
H342   H     0.31132   0.44620   0.03311   0.00000  Uiso   1.00
H343   H     0.32773   0.39900   0.00340   0.00000  Uiso   1.00
H344   H     0.01927   0.46650   0.33040   0.00000  Uiso   1.00
H345   H     0.00656   0.42320   0.29496   0.00000  Uiso   1.00
H346   H     0.30078   0.43657   0.34068   0.00000  Uiso   1.00
H347   H     0.18322   0.56051   0.05604   0.00000  Uiso   1.00
H348   H     0.21177   0.55831   0.09271   0.00000  Uiso   1.00
H349   H     0.15501   0.59396   0.14431   0.00000  Uiso   1.00
H350   H     0.18001   0.62478   0.10333   0.00000  Uiso   1.00
H351   H     0.20732   0.33596   0.21553   0.00000  Uiso   1.00
H352   H     0.12706   0.59691   0.10760   0.00000  Uiso   1.00
H353   H     0.00392   0.49129   0.47936   0.00000  Uiso   1.00
H354   H     0.00017   0.52437   0.44360   0.00000  Uiso   1.00
H355   H     0.28959   0.57011   0.49930   0.00000  Uiso   1.00
H356   H     0.26504   0.51684   0.49497   0.00000  Uiso   1.00
H357   H     0.29152   0.53449   0.03357   0.00000  Uiso   1.00
H358   H     0.07485   0.61795   0.44013   0.00000  Uiso   1.00
H359   H     0.11962   0.61210   0.39550   0.00000  Uiso   1.00
H360   H     0.06810   0.62200   0.39239   0.00000  Uiso   1.00
H361   H     0.09268   0.42182   0.06987   0.00000  Uiso   1.00
H362   H     0.12472   0.66580   0.28522   0.00000  Uiso   1.00
H363   H     0.04328   0.43683   0.06386   0.00000  Uiso   1.00
H364   H     0.05028   0.43722   0.11227   0.00000  Uiso   1.00
H365   H     0.12718   0.40868   0.43325   0.00000  Uiso   1.00
H366   H     0.16510   0.37254   0.43257   0.00000  Uiso   1.00
H367   H     0.19462   0.37470   0.35949   0.00000  Uiso   1.00
H368   H     0.13749   0.35786   0.37330   0.00000  Uiso   1.00
H369   H     0.15651   0.41057   0.36075   0.00000  Uiso   1.00
H370   H     0.24249   0.42664   0.09751   0.00000  Uiso   1.00
H371   H     0.23479   0.41135   0.46337   0.00000  Uiso   1.00
H372   H     0.18352   0.49576   0.40388   0.00000  Uiso   1.00
H373   H     0.06792   0.58727   0.04836   0.00000  Uiso   1.00
H374   H     0.06076   0.55995   0.09185   0.00000  Uiso   1.00
H375   H     0.01530   0.57510   0.08065   0.00000  Uiso   1.00
O376   O     0.16667   0.50000   0.25000   0.00000  Uiso   1.00
O377   O     0.15693   0.45726   0.16625   0.00000  Uiso   1.00
O378   O     0.12687   0.53979   0.33749   0.00000  Uiso   1.00
O379   O     0.21088   0.50826   0.15877   0.00000  Uiso   1.00
O380   O     0.17198   0.49468   0.33749   0.00000  Uiso   1.00
O381   O     0.04120   0.52455   0.04491   0.00000  Uiso   1.00
O382   O     0.26242   0.40203   0.01884   0.00000  Uiso   1.00
O383   O     0.31087   0.47771   0.29907   0.00000  Uiso   1.00
O384   O     0.15250   0.52111   0.09981   0.00000  Uiso   1.00
O385   O     0.03604   0.55200   0.48242   0.00000  Uiso   1.00
O386   O     0.07071   0.56213   0.40329   0.00000  Uiso   1.00
O387   O     0.17849   0.41434   0.27820   0.00000  Uiso   1.00
O388   O     0.08531   0.48563   0.08151   0.00000  Uiso   1.00
O389   O     0.19226   0.43295   0.42039   0.00000  Uiso   1.00
O390   O     0.14581   0.59469   0.26767   0.00000  Uiso   1.00
O391   O     0.07452   0.46584   0.23607   0.00000  Uiso   1.00
O392   O     0.26785   0.52512   0.21805   0.00000  Uiso   1.00
O393   O     0.06990   0.52293   0.27820   0.00000  Uiso   1.00
O394   O     0.25440   0.48610   0.26767   0.00000  Uiso   1.00
O395   O     0.13800   0.40236   0.23607   0.00000  Uiso   1.00
O396   O     0.20437   0.58860   0.21805   0.00000  Uiso   1.00
Zn397  Zn    0.19244   0.47423   0.28277   0.00000  Uiso   1.00
Zn398  Zn    0.13459   0.45711   0.22257   0.00000  Uiso   1.00
Zn399  Zn    0.21166   0.52997   0.21188   0.00000  Uiso   1.00
Zn400  Zn    0.12798   0.53868   0.28277   0.00000  Uiso   1.00
C401   C     0.38606   0.49361   0.25849   0.00000  Uiso   1.00
C402   C     0.52084   0.44841   0.45963   0.00000  Uiso   1.00
C403   C     0.54499   0.43266   0.47991   0.00000  Uiso   1.00
C404   C     0.61433   0.50665   0.24140   0.00000  Uiso   1.00
C405   C     0.53983   0.44422   0.02041   0.00000  Uiso   1.00
C406   C     0.50790   0.47072   0.04152   0.00000  Uiso   1.00
C407   C     0.56619   0.42962   0.03996   0.00000  Uiso   1.00
C408   C     0.55893   0.44037   0.08106   0.00000  Uiso   1.00
C409   C     0.50721   0.48686   0.08096   0.00000  Uiso   1.00
C410   C     0.66002   0.50708   0.23768   0.00000  Uiso   1.00
C411   C     0.34010   0.49051   0.26421   0.00000  Uiso   1.00
C412   C     0.42552   0.54134   0.42193   0.00000  Uiso   1.00
C413   C     0.51399   0.65545   0.23804   0.00000  Uiso   1.00
C414   C     0.48498   0.34547   0.26247   0.00000  Uiso   1.00
C415   C     0.48918   0.38944   0.25909   0.00000  Uiso   1.00
C416   C     0.51015   0.61100   0.24135   0.00000  Uiso   1.00
C417   C     0.52148   0.47856   0.14393   0.00000  Uiso   1.00
C418   C     0.47835   0.52075   0.35652   0.00000  Uiso   1.00
C419   C     0.46348   0.52365   0.40035   0.00000  Uiso   1.00
C420   C     0.53012   0.46912   0.10111   0.00000  Uiso   1.00
C421   C     0.40768   0.53581   0.46232   0.00000  Uiso   1.00
C422   C     0.38050   0.56338   0.06724   0.00000  Uiso   1.00
C423   C     0.48548   0.50453   0.42030   0.00000  Uiso   1.00
C424   C     0.63543   0.41186   0.02845   0.00000  Uiso   1.00
C425   C     0.66069   0.44981   0.31667   0.00000  Uiso   1.00
C426   C     0.51270   0.55782   0.08789   0.00000  Uiso   1.00
C427   C     0.49236   0.59573   0.11235   0.00000  Uiso   1.00
C428   C     0.33471   0.52392   0.47458   0.00000  Uiso   1.00
C429   C     0.62594   0.53721   0.00239   0.00000  Uiso   1.00
C430   C     0.41757   0.60532   0.40834   0.00000  Uiso   1.00
C431   C     0.40065   0.44346   0.08134   0.00000  Uiso   1.00
C432   C     0.49336   0.39924   0.41847   0.00000  Uiso   1.00
C433   C     0.49570   0.38468   0.37526   0.00000  Uiso   1.00
C434   C     0.46858   0.49844   0.46061   0.00000  Uiso   1.00
C435   C     0.43000   0.51590   0.48239   0.00000  Uiso   1.00
C436   C     0.49026   0.47680   0.48006   0.00000  Uiso   1.00
C437   C     0.47920   0.48176   0.02196   0.00000  Uiso   1.00
C438   C     0.43804   0.49411   0.04277   0.00000  Uiso   1.00
C439   C     0.41444   0.51255   0.02354   0.00000  Uiso   1.00
H440   H     0.34986   0.52041   0.21243   0.00000  Uiso   1.00
H441   H     0.63450   0.39670   0.05492   0.00000  Uiso   1.00
H442   H     0.64465   0.44620   0.03311   0.00000  Uiso   1.00
H443   H     0.66106   0.39900   0.00340   0.00000  Uiso   1.00
H444   H     0.35261   0.46650   0.33040   0.00000  Uiso   1.00
H445   H     0.33989   0.42320   0.29496   0.00000  Uiso   1.00
H446   H     0.63411   0.43657   0.34068   0.00000  Uiso   1.00
H447   H     0.51655   0.56051   0.05604   0.00000  Uiso   1.00
H448   H     0.54510   0.55831   0.09271   0.00000  Uiso   1.00
H449   H     0.48834   0.59396   0.14431   0.00000  Uiso   1.00
H450   H     0.51334   0.62478   0.10333   0.00000  Uiso   1.00
H451   H     0.54066   0.33596   0.21553   0.00000  Uiso   1.00
H452   H     0.46039   0.59691   0.10760   0.00000  Uiso   1.00
H453   H     0.33725   0.49129   0.47936   0.00000  Uiso   1.00
H454   H     0.33350   0.52437   0.44360   0.00000  Uiso   1.00
H455   H     0.62292   0.57011   0.49930   0.00000  Uiso   1.00
H456   H     0.59837   0.51684   0.49497   0.00000  Uiso   1.00
H457   H     0.62485   0.53449   0.03357   0.00000  Uiso   1.00
H458   H     0.40819   0.61795   0.44013   0.00000  Uiso   1.00
H459   H     0.45296   0.61210   0.39550   0.00000  Uiso   1.00
H460   H     0.40143   0.62200   0.39239   0.00000  Uiso   1.00
H461   H     0.42602   0.42182   0.06987   0.00000  Uiso   1.00
H462   H     0.45805   0.66580   0.28522   0.00000  Uiso   1.00
H463   H     0.37661   0.43683   0.06386   0.00000  Uiso   1.00
H464   H     0.38361   0.43722   0.11227   0.00000  Uiso   1.00
H465   H     0.46051   0.40868   0.43325   0.00000  Uiso   1.00
H466   H     0.49843   0.37254   0.43257   0.00000  Uiso   1.00
H467   H     0.52796   0.37470   0.35949   0.00000  Uiso   1.00
H468   H     0.47082   0.35786   0.37330   0.00000  Uiso   1.00
H469   H     0.48984   0.41057   0.36075   0.00000  Uiso   1.00
H470   H     0.57582   0.42664   0.09751   0.00000  Uiso   1.00
H471   H     0.56813   0.41135   0.46337   0.00000  Uiso   1.00
H472   H     0.51686   0.49576   0.40388   0.00000  Uiso   1.00
H473   H     0.40126   0.58727   0.04836   0.00000  Uiso   1.00
H474   H     0.39409   0.55995   0.09185   0.00000  Uiso   1.00
H475   H     0.34863   0.57510   0.08065   0.00000  Uiso   1.00
O476   O     0.50000   0.50000   0.25000   0.00000  Uiso   1.00
O477   O     0.49027   0.45726   0.16625   0.00000  Uiso   1.00
O478   O     0.46020   0.53979   0.33749   0.00000  Uiso   1.00
O479   O     0.54421   0.50826   0.15877   0.00000  Uiso   1.00
O480   O     0.50532   0.49468   0.33749   0.00000  Uiso   1.00
O481   O     0.37454   0.52455   0.04491   0.00000  Uiso   1.00
O482   O     0.59576   0.40203   0.01884   0.00000  Uiso   1.00
O483   O     0.64421   0.47771   0.29907   0.00000  Uiso   1.00
O484   O     0.48583   0.52111   0.09981   0.00000  Uiso   1.00
O485   O     0.36937   0.55200   0.48242   0.00000  Uiso   1.00
O486   O     0.40404   0.56213   0.40329   0.00000  Uiso   1.00
O487   O     0.51182   0.41434   0.27820   0.00000  Uiso   1.00
O488   O     0.41864   0.48563   0.08151   0.00000  Uiso   1.00
O489   O     0.52559   0.43295   0.42039   0.00000  Uiso   1.00
O490   O     0.47914   0.59469   0.26767   0.00000  Uiso   1.00
O491   O     0.40785   0.46584   0.23607   0.00000  Uiso   1.00
O492   O     0.60119   0.52512   0.21805   0.00000  Uiso   1.00
O493   O     0.40323   0.52293   0.27820   0.00000  Uiso   1.00
O494   O     0.58773   0.48610   0.26767   0.00000  Uiso   1.00
O495   O     0.47133   0.40236   0.23607   0.00000  Uiso   1.00
O496   O     0.53771   0.58860   0.21805   0.00000  Uiso   1.00
Zn497  Zn    0.52577   0.47423   0.28277   0.00000  Uiso   1.00
Zn498  Zn    0.46792   0.45711   0.22257   0.00000  Uiso   1.00
Zn499  Zn    0.54500   0.52997   0.21188   0.00000  Uiso   1.00
Zn500  Zn    0.46131   0.53868   0.28277   0.00000  Uiso   1.00
C501   C     0.71940   0.49361   0.25849   0.00000  Uiso   1.00
C502   C     0.85418   0.44841   0.45963   0.00000  Uiso   1.00
C503   C     0.87832   0.43266   0.47991   0.00000  Uiso   1.00
C504   C     0.94766   0.50665   0.24140   0.00000  Uiso   1.00
C505   C     0.87317   0.44422   0.02041   0.00000  Uiso   1.00
C506   C     0.84123   0.47072   0.04152   0.00000  Uiso   1.00
C507   C     0.89953   0.42962   0.03996   0.00000  Uiso   1.00
C508   C     0.89226   0.44037   0.08106   0.00000  Uiso   1.00
C509   C     0.84055   0.48686   0.08096   0.00000  Uiso   1.00
C510   C     0.99336   0.50708   0.23768   0.00000  Uiso   1.00
C511   C     0.67343   0.49051   0.26421   0.00000  Uiso   1.00
C512   C     0.75885   0.54134   0.42193   0.00000  Uiso   1.00
C513   C     0.84732   0.65545   0.23804   0.00000  Uiso   1.00
C514   C     0.81831   0.34547   0.26247   0.00000  Uiso   1.00
C515   C     0.82251   0.38944   0.25909   0.00000  Uiso   1.00
C516   C     0.84348   0.61100   0.24135   0.00000  Uiso   1.00
C517   C     0.85482   0.47856   0.14393   0.00000  Uiso   1.00
C518   C     0.81168   0.52075   0.35652   0.00000  Uiso   1.00
C519   C     0.79682   0.52365   0.40035   0.00000  Uiso   1.00
C520   C     0.86345   0.46912   0.10111   0.00000  Uiso   1.00
C521   C     0.74102   0.53581   0.46232   0.00000  Uiso   1.00
C522   C     0.71384   0.56338   0.06724   0.00000  Uiso   1.00
C523   C     0.81881   0.50453   0.42030   0.00000  Uiso   1.00
C524   C     0.96876   0.41186   0.02845   0.00000  Uiso   1.00
C525   C     0.99403   0.44981   0.31667   0.00000  Uiso   1.00
C526   C     0.84604   0.55782   0.08789   0.00000  Uiso   1.00
C527   C     0.82569   0.59573   0.11235   0.00000  Uiso   1.00
C528   C     0.66804   0.52392   0.47458   0.00000  Uiso   1.00
C529   C     0.95927   0.53721   0.00239   0.00000  Uiso   1.00
C530   C     0.75090   0.60532   0.40834   0.00000  Uiso   1.00
C531   C     0.73398   0.44346   0.08134   0.00000  Uiso   1.00
C532   C     0.82669   0.39924   0.41847   0.00000  Uiso   1.00
C533   C     0.82903   0.38468   0.37526   0.00000  Uiso   1.00
C534   C     0.80191   0.49844   0.46061   0.00000  Uiso   1.00
C535   C     0.76334   0.51590   0.48239   0.00000  Uiso   1.00
C536   C     0.82359   0.47680   0.48006   0.00000  Uiso   1.00
C537   C     0.81254   0.48176   0.02196   0.00000  Uiso   1.00
C538   C     0.77137   0.49411   0.04277   0.00000  Uiso   1.00
C539   C     0.74777   0.51255   0.02354   0.00000  Uiso   1.00
H540   H     0.68319   0.52041   0.21243   0.00000  Uiso   1.00
H541   H     0.96784   0.39670   0.05492   0.00000  Uiso   1.00
H542   H     0.97799   0.44620   0.03311   0.00000  Uiso   1.00
H543   H     0.99440   0.39900   0.00340   0.00000  Uiso   1.00
H544   H     0.68594   0.46650   0.33040   0.00000  Uiso   1.00
H545   H     0.67322   0.42320   0.29496   0.00000  Uiso   1.00
H546   H     0.96745   0.43657   0.34068   0.00000  Uiso   1.00
H547   H     0.84989   0.56051   0.05604   0.00000  Uiso   1.00
H548   H     0.87843   0.55831   0.09271   0.00000  Uiso   1.00
H549   H     0.82168   0.59396   0.14431   0.00000  Uiso   1.00
H550   H     0.84667   0.62478   0.10333   0.00000  Uiso   1.00
H551   H     0.87399   0.33596   0.21553   0.00000  Uiso   1.00
H552   H     0.79372   0.59691   0.10760   0.00000  Uiso   1.00
H553   H     0.67059   0.49129   0.47936   0.00000  Uiso   1.00
H554   H     0.66684   0.52437   0.44360   0.00000  Uiso   1.00
H555   H     0.95625   0.57011   0.49930   0.00000  Uiso   1.00
H556   H     0.93170   0.51684   0.49497   0.00000  Uiso   1.00
H557   H     0.95818   0.53449   0.03357   0.00000  Uiso   1.00
H558   H     0.74152   0.61795   0.44013   0.00000  Uiso   1.00
H559   H     0.78629   0.61210   0.39550   0.00000  Uiso   1.00
H560   H     0.73477   0.62200   0.39239   0.00000  Uiso   1.00
H561   H     0.75935   0.42182   0.06987   0.00000  Uiso   1.00
H562   H     0.79138   0.66580   0.28522   0.00000  Uiso   1.00
H563   H     0.70995   0.43683   0.06386   0.00000  Uiso   1.00
H564   H     0.71695   0.43722   0.11227   0.00000  Uiso   1.00
H565   H     0.79384   0.40868   0.43325   0.00000  Uiso   1.00
H566   H     0.83176   0.37254   0.43257   0.00000  Uiso   1.00
H567   H     0.86129   0.37470   0.35949   0.00000  Uiso   1.00
H568   H     0.80415   0.35786   0.37330   0.00000  Uiso   1.00
H569   H     0.82317   0.41057   0.36075   0.00000  Uiso   1.00
H570   H     0.90915   0.42664   0.09751   0.00000  Uiso   1.00
H571   H     0.90146   0.41135   0.46337   0.00000  Uiso   1.00
H572   H     0.85019   0.49576   0.40388   0.00000  Uiso   1.00
H573   H     0.73459   0.58727   0.04836   0.00000  Uiso   1.00
H574   H     0.72743   0.55995   0.09185   0.00000  Uiso   1.00
H575   H     0.68196   0.57510   0.08065   0.00000  Uiso   1.00
O576   O     0.83333   0.50000   0.25000   0.00000  Uiso   1.00
O577   O     0.82360   0.45726   0.16625   0.00000  Uiso   1.00
O578   O     0.79354   0.53979   0.33749   0.00000  Uiso   1.00
O579   O     0.87755   0.50826   0.15877   0.00000  Uiso   1.00
O580   O     0.83865   0.49468   0.33749   0.00000  Uiso   1.00
O581   O     0.70787   0.52455   0.04491   0.00000  Uiso   1.00
O582   O     0.92909   0.40203   0.01884   0.00000  Uiso   1.00
O583   O     0.97754   0.47771   0.29907   0.00000  Uiso   1.00
O584   O     0.81917   0.52111   0.09981   0.00000  Uiso   1.00
O585   O     0.70271   0.55200   0.48242   0.00000  Uiso   1.00
O586   O     0.73738   0.56213   0.40329   0.00000  Uiso   1.00
O587   O     0.84515   0.41434   0.27820   0.00000  Uiso   1.00
O588   O     0.75197   0.48563   0.08151   0.00000  Uiso   1.00
O589   O     0.85892   0.43295   0.42039   0.00000  Uiso   1.00
O590   O     0.81247   0.59469   0.26767   0.00000  Uiso   1.00
O591   O     0.74119   0.46584   0.23607   0.00000  Uiso   1.00
O592   O     0.93452   0.52512   0.21805   0.00000  Uiso   1.00
O593   O     0.73656   0.52293   0.27820   0.00000  Uiso   1.00
O594   O     0.92106   0.48610   0.26767   0.00000  Uiso   1.00
O595   O     0.80467   0.40236   0.23607   0.00000  Uiso   1.00
O596   O     0.87104   0.58860   0.21805   0.00000  Uiso   1.00
Zn597  Zn    0.85910   0.47423   0.28277   0.00000  Uiso   1.00
Zn598  Zn    0.80125   0.45711   0.22257   0.00000  Uiso   1.00
Zn599  Zn    0.87833   0.52997   0.21188   0.00000  Uiso   1.00
Zn600  Zn    0.79465   0.53868   0.28277   0.00000  Uiso   1.00
C601   C     0.05273   0.82694   0.25849   0.00000  Uiso   1.00
C602   C     0.18751   0.78174   0.45963   0.00000  Uiso   1.00
C603   C     0.21166   0.76599   0.47991   0.00000  Uiso   1.00
C604   C     0.28100   0.83999   0.24140   0.00000  Uiso   1.00
C605   C     0.20650   0.77755   0.02041   0.00000  Uiso   1.00
C606   C     0.17457   0.80406   0.04152   0.00000  Uiso   1.00
C607   C     0.23286   0.76296   0.03996   0.00000  Uiso   1.00
C608   C     0.22560   0.77370   0.08106   0.00000  Uiso   1.00
C609   C     0.17388   0.82019   0.08096   0.00000  Uiso   1.00
C610   C     0.32669   0.84041   0.23768   0.00000  Uiso   1.00
C611   C     0.00677   0.82384   0.26421   0.00000  Uiso   1.00
C612   C     0.09218   0.87467   0.42193   0.00000  Uiso   1.00
C613   C     0.18066   0.98879   0.23804   0.00000  Uiso   1.00
C614   C     0.15164   0.67880   0.26247   0.00000  Uiso   1.00
C615   C     0.15584   0.72277   0.25909   0.00000  Uiso   1.00
C616   C     0.17681   0.94433   0.24135   0.00000  Uiso   1.00
C617   C     0.18815   0.81189   0.14393   0.00000  Uiso   1.00
C618   C     0.14501   0.85408   0.35652   0.00000  Uiso   1.00
C619   C     0.13015   0.85698   0.40035   0.00000  Uiso   1.00
C620   C     0.19679   0.80245   0.10111   0.00000  Uiso   1.00
C621   C     0.07435   0.86914   0.46232   0.00000  Uiso   1.00
C622   C     0.04717   0.89671   0.06724   0.00000  Uiso   1.00
C623   C     0.15215   0.83787   0.42030   0.00000  Uiso   1.00
C624   C     0.30209   0.74519   0.02845   0.00000  Uiso   1.00
C625   C     0.32736   0.78315   0.31667   0.00000  Uiso   1.00
C626   C     0.17937   0.89115   0.08789   0.00000  Uiso   1.00
C627   C     0.15902   0.92906   0.11235   0.00000  Uiso   1.00
C628   C     0.00138   0.85725   0.47458   0.00000  Uiso   1.00
C629   C     0.29260   0.87055   0.00239   0.00000  Uiso   1.00
C630   C     0.08423   0.93865   0.40834   0.00000  Uiso   1.00
C631   C     0.06731   0.77679   0.08134   0.00000  Uiso   1.00
C632   C     0.16003   0.73258   0.41847   0.00000  Uiso   1.00
C633   C     0.16236   0.71801   0.37526   0.00000  Uiso   1.00
C634   C     0.13525   0.83177   0.46061   0.00000  Uiso   1.00
C635   C     0.09667   0.84924   0.48239   0.00000  Uiso   1.00
C636   C     0.15692   0.81013   0.48006   0.00000  Uiso   1.00
C637   C     0.14587   0.81510   0.02196   0.00000  Uiso   1.00
C638   C     0.10471   0.82744   0.04277   0.00000  Uiso   1.00
C639   C     0.08111   0.84589   0.02354   0.00000  Uiso   1.00
H640   H     0.01652   0.85374   0.21243   0.00000  Uiso   1.00
H641   H     0.30117   0.73003   0.05492   0.00000  Uiso   1.00
H642   H     0.31132   0.77954   0.03311   0.00000  Uiso   1.00
H643   H     0.32773   0.73234   0.00340   0.00000  Uiso   1.00
H644   H     0.01927   0.79983   0.33040   0.00000  Uiso   1.00
H645   H     0.00656   0.75654   0.29496   0.00000  Uiso   1.00
H646   H     0.30078   0.76990   0.34068   0.00000  Uiso   1.00
H647   H     0.18322   0.89384   0.05604   0.00000  Uiso   1.00
H648   H     0.21177   0.89164   0.09271   0.00000  Uiso   1.00
H649   H     0.15501   0.92729   0.14431   0.00000  Uiso   1.00
H650   H     0.18001   0.95811   0.10333   0.00000  Uiso   1.00
H651   H     0.20732   0.66929   0.21553   0.00000  Uiso   1.00
H652   H     0.12706   0.93024   0.10760   0.00000  Uiso   1.00
H653   H     0.00392   0.82462   0.47936   0.00000  Uiso   1.00
H654   H     0.00017   0.85770   0.44360   0.00000  Uiso   1.00
H655   H     0.28959   0.90345   0.49930   0.00000  Uiso   1.00
H656   H     0.26504   0.85017   0.49497   0.00000  Uiso   1.00
H657   H     0.29152   0.86782   0.03357   0.00000  Uiso   1.00
H658   H     0.07485   0.95128   0.44013   0.00000  Uiso   1.00
H659   H     0.11962   0.94544   0.39550   0.00000  Uiso   1.00
H660   H     0.06810   0.95534   0.39239   0.00000  Uiso   1.00
H661   H     0.09268   0.75515   0.06987   0.00000  Uiso   1.00
H662   H     0.12472   0.99913   0.28522   0.00000  Uiso   1.00
H663   H     0.04328   0.77016   0.06386   0.00000  Uiso   1.00
H664   H     0.05028   0.77056   0.11227   0.00000  Uiso   1.00
H665   H     0.12718   0.74202   0.43325   0.00000  Uiso   1.00
H666   H     0.16510   0.70587   0.43257   0.00000  Uiso   1.00
H667   H     0.19462   0.70804   0.35949   0.00000  Uiso   1.00
H668   H     0.13749   0.69119   0.37330   0.00000  Uiso   1.00
H669   H     0.15651   0.74390   0.36075   0.00000  Uiso   1.00
H670   H     0.24249   0.75997   0.09751   0.00000  Uiso   1.00
H671   H     0.23479   0.74469   0.46337   0.00000  Uiso   1.00
H672   H     0.18352   0.82909   0.40388   0.00000  Uiso   1.00
H673   H     0.06792   0.92060   0.04836   0.00000  Uiso   1.00
H674   H     0.06076   0.89329   0.09185   0.00000  Uiso   1.00
H675   H     0.01530   0.90843   0.08065   0.00000  Uiso   1.00
O676   O     0.16667   0.83333   0.25000   0.00000  Uiso   1.00
O677   O     0.15693   0.79060   0.16625   0.00000  Uiso   1.00
O678   O     0.12687   0.87313   0.33749   0.00000  Uiso   1.00
O679   O     0.21088   0.84159   0.15877   0.00000  Uiso   1.00
O680   O     0.17198   0.82802   0.33749   0.00000  Uiso   1.00
O681   O     0.04120   0.85789   0.04491   0.00000  Uiso   1.00
O682   O     0.26242   0.73536   0.01884   0.00000  Uiso   1.00
O683   O     0.31087   0.81105   0.29907   0.00000  Uiso   1.00
O684   O     0.15250   0.85444   0.09981   0.00000  Uiso   1.00
O685   O     0.03604   0.88534   0.48242   0.00000  Uiso   1.00
O686   O     0.07071   0.89547   0.40329   0.00000  Uiso   1.00
O687   O     0.17849   0.74768   0.27820   0.00000  Uiso   1.00
O688   O     0.08531   0.81896   0.08151   0.00000  Uiso   1.00
O689   O     0.19226   0.76628   0.42039   0.00000  Uiso   1.00
O690   O     0.14581   0.92803   0.26767   0.00000  Uiso   1.00
O691   O     0.07452   0.79917   0.23607   0.00000  Uiso   1.00
O692   O     0.26785   0.85845   0.21805   0.00000  Uiso   1.00
O693   O     0.06990   0.85627   0.27820   0.00000  Uiso   1.00
O694   O     0.25440   0.81944   0.26767   0.00000  Uiso   1.00
O695   O     0.13800   0.73570   0.23607   0.00000  Uiso   1.00
O696   O     0.20437   0.92193   0.21805   0.00000  Uiso   1.00
Zn697  Zn    0.19244   0.80756   0.28277   0.00000  Uiso   1.00
Zn698  Zn    0.13459   0.79044   0.22257   0.00000  Uiso   1.00
Zn699  Zn    0.21166   0.86331   0.21188   0.00000  Uiso   1.00
Zn700  Zn    0.12798   0.87202   0.28277   0.00000  Uiso   1.00
C701   C     0.38606   0.82694   0.25849   0.00000  Uiso   1.00
C702   C     0.52084   0.78174   0.45963   0.00000  Uiso   1.00
C703   C     0.54499   0.76599   0.47991   0.00000  Uiso   1.00
C704   C     0.61433   0.83999   0.24140   0.00000  Uiso   1.00
C705   C     0.53983   0.77755   0.02041   0.00000  Uiso   1.00
C706   C     0.50790   0.80406   0.04152   0.00000  Uiso   1.00
C707   C     0.56619   0.76296   0.03996   0.00000  Uiso   1.00
C708   C     0.55893   0.77370   0.08106   0.00000  Uiso   1.00
C709   C     0.50721   0.82019   0.08096   0.00000  Uiso   1.00
C710   C     0.66002   0.84041   0.23768   0.00000  Uiso   1.00
C711   C     0.34010   0.82384   0.26421   0.00000  Uiso   1.00
C712   C     0.42552   0.87467   0.42193   0.00000  Uiso   1.00
C713   C     0.51399   0.98879   0.23804   0.00000  Uiso   1.00
C714   C     0.48498   0.67880   0.26247   0.00000  Uiso   1.00
C715   C     0.48918   0.72277   0.25909   0.00000  Uiso   1.00
C716   C     0.51015   0.94433   0.24135   0.00000  Uiso   1.00
C717   C     0.52148   0.81189   0.14393   0.00000  Uiso   1.00
C718   C     0.47835   0.85408   0.35652   0.00000  Uiso   1.00
C719   C     0.46348   0.85698   0.40035   0.00000  Uiso   1.00
C720   C     0.53012   0.80245   0.10111   0.00000  Uiso   1.00
C721   C     0.40768   0.86914   0.46232   0.00000  Uiso   1.00
C722   C     0.38050   0.89671   0.06724   0.00000  Uiso   1.00
C723   C     0.48548   0.83787   0.42030   0.00000  Uiso   1.00
C724   C     0.63543   0.74519   0.02845   0.00000  Uiso   1.00
C725   C     0.66069   0.78315   0.31667   0.00000  Uiso   1.00
C726   C     0.51270   0.89115   0.08789   0.00000  Uiso   1.00
C727   C     0.49236   0.92906   0.11235   0.00000  Uiso   1.00
C728   C     0.33471   0.85725   0.47458   0.00000  Uiso   1.00
C729   C     0.62594   0.87055   0.00239   0.00000  Uiso   1.00
C730   C     0.41757   0.93865   0.40834   0.00000  Uiso   1.00
C731   C     0.40065   0.77679   0.08134   0.00000  Uiso   1.00
C732   C     0.49336   0.73258   0.41847   0.00000  Uiso   1.00
C733   C     0.49570   0.71801   0.37526   0.00000  Uiso   1.00
C734   C     0.46858   0.83177   0.46061   0.00000  Uiso   1.00
C735   C     0.43000   0.84924   0.48239   0.00000  Uiso   1.00
C736   C     0.49026   0.81013   0.48006   0.00000  Uiso   1.00
C737   C     0.47920   0.81510   0.02196   0.00000  Uiso   1.00
C738   C     0.43804   0.82744   0.04277   0.00000  Uiso   1.00
C739   C     0.41444   0.84589   0.02354   0.00000  Uiso   1.00
H740   H     0.34986   0.85374   0.21243   0.00000  Uiso   1.00
H741   H     0.63450   0.73003   0.05492   0.00000  Uiso   1.00
H742   H     0.64465   0.77954   0.03311   0.00000  Uiso   1.00
H743   H     0.66106   0.73234   0.00340   0.00000  Uiso   1.00
H744   H     0.35261   0.79983   0.33040   0.00000  Uiso   1.00
H745   H     0.33989   0.75654   0.29496   0.00000  Uiso   1.00
H746   H     0.63411   0.76990   0.34068   0.00000  Uiso   1.00
H747   H     0.51655   0.89384   0.05604   0.00000  Uiso   1.00
H748   H     0.54510   0.89164   0.09271   0.00000  Uiso   1.00
H749   H     0.48834   0.92729   0.14431   0.00000  Uiso   1.00
H750   H     0.51334   0.95811   0.10333   0.00000  Uiso   1.00
H751   H     0.54066   0.66929   0.21553   0.00000  Uiso   1.00
H752   H     0.46039   0.93024   0.10760   0.00000  Uiso   1.00
H753   H     0.33725   0.82462   0.47936   0.00000  Uiso   1.00
H754   H     0.33350   0.85770   0.44360   0.00000  Uiso   1.00
H755   H     0.62292   0.90345   0.49930   0.00000  Uiso   1.00
H756   H     0.59837   0.85017   0.49497   0.00000  Uiso   1.00
H757   H     0.62485   0.86782   0.03357   0.00000  Uiso   1.00
H758   H     0.40819   0.95128   0.44013   0.00000  Uiso   1.00
H759   H     0.45296   0.94544   0.39550   0.00000  Uiso   1.00
H760   H     0.40143   0.95534   0.39239   0.00000  Uiso   1.00
H761   H     0.42602   0.75515   0.06987   0.00000  Uiso   1.00
H762   H     0.45805   0.99913   0.28522   0.00000  Uiso   1.00
H763   H     0.37661   0.77016   0.06386   0.00000  Uiso   1.00
H764   H     0.38361   0.77056   0.11227   0.00000  Uiso   1.00
H765   H     0.46051   0.74202   0.43325   0.00000  Uiso   1.00
H766   H     0.49843   0.70587   0.43257   0.00000  Uiso   1.00
H767   H     0.52796   0.70804   0.35949   0.00000  Uiso   1.00
H768   H     0.47082   0.69119   0.37330   0.00000  Uiso   1.00
H769   H     0.48984   0.74390   0.36075   0.00000  Uiso   1.00
H770   H     0.57582   0.75997   0.09751   0.00000  Uiso   1.00
H771   H     0.56813   0.74469   0.46337   0.00000  Uiso   1.00
H772   H     0.51686   0.82909   0.40388   0.00000  Uiso   1.00
H773   H     0.40126   0.92060   0.04836   0.00000  Uiso   1.00
H774   H     0.39409   0.89329   0.09185   0.00000  Uiso   1.00
H775   H     0.34863   0.90843   0.08065   0.00000  Uiso   1.00
O776   O     0.50000   0.83333   0.25000   0.00000  Uiso   1.00
O777   O     0.49027   0.79060   0.16625   0.00000  Uiso   1.00
O778   O     0.46020   0.87313   0.33749   0.00000  Uiso   1.00
O779   O     0.54421   0.84159   0.15877   0.00000  Uiso   1.00
O780   O     0.50532   0.82802   0.33749   0.00000  Uiso   1.00
O781   O     0.37454   0.85789   0.04491   0.00000  Uiso   1.00
O782   O     0.59576   0.73536   0.01884   0.00000  Uiso   1.00
O783   O     0.64421   0.81105   0.29907   0.00000  Uiso   1.00
O784   O     0.48583   0.85444   0.09981   0.00000  Uiso   1.00
O785   O     0.36937   0.88534   0.48242   0.00000  Uiso   1.00
O786   O     0.40404   0.89547   0.40329   0.00000  Uiso   1.00
O787   O     0.51182   0.74768   0.27820   0.00000  Uiso   1.00
O788   O     0.41864   0.81896   0.08151   0.00000  Uiso   1.00
O789   O     0.52559   0.76628   0.42039   0.00000  Uiso   1.00
O790   O     0.47914   0.92803   0.26767   0.00000  Uiso   1.00
O791   O     0.40785   0.79917   0.23607   0.00000  Uiso   1.00
O792   O     0.60119   0.85845   0.21805   0.00000  Uiso   1.00
O793   O     0.40323   0.85627   0.27820   0.00000  Uiso   1.00
O794   O     0.58773   0.81944   0.26767   0.00000  Uiso   1.00
O795   O     0.47133   0.73570   0.23607   0.00000  Uiso   1.00
O796   O     0.53771   0.92193   0.21805   0.00000  Uiso   1.00
Zn797  Zn    0.52577   0.80756   0.28277   0.00000  Uiso   1.00
Zn798  Zn    0.46792   0.79044   0.22257   0.00000  Uiso   1.00
Zn799  Zn    0.54500   0.86331   0.21188   0.00000  Uiso   1.00
Zn800  Zn    0.46131   0.87202   0.28277   0.00000  Uiso   1.00
C801   C     0.71940   0.82694   0.25849   0.00000  Uiso   1.00
C802   C     0.85418   0.78174   0.45963   0.00000  Uiso   1.00
C803   C     0.87832   0.76599   0.47991   0.00000  Uiso   1.00
C804   C     0.94766   0.83999   0.24140   0.00000  Uiso   1.00
C805   C     0.87317   0.77755   0.02041   0.00000  Uiso   1.00
C806   C     0.84123   0.80406   0.04152   0.00000  Uiso   1.00
C807   C     0.89953   0.76296   0.03996   0.00000  Uiso   1.00
C808   C     0.89226   0.77370   0.08106   0.00000  Uiso   1.00
C809   C     0.84055   0.82019   0.08096   0.00000  Uiso   1.00
C810   C     0.99336   0.84041   0.23768   0.00000  Uiso   1.00
C811   C     0.67343   0.82384   0.26421   0.00000  Uiso   1.00
C812   C     0.75885   0.87467   0.42193   0.00000  Uiso   1.00
C813   C     0.84732   0.98879   0.23804   0.00000  Uiso   1.00
C814   C     0.81831   0.67880   0.26247   0.00000  Uiso   1.00
C815   C     0.82251   0.72277   0.25909   0.00000  Uiso   1.00
C816   C     0.84348   0.94433   0.24135   0.00000  Uiso   1.00
C817   C     0.85482   0.81189   0.14393   0.00000  Uiso   1.00
C818   C     0.81168   0.85408   0.35652   0.00000  Uiso   1.00
C819   C     0.79682   0.85698   0.40035   0.00000  Uiso   1.00
C820   C     0.86345   0.80245   0.10111   0.00000  Uiso   1.00
C821   C     0.74102   0.86914   0.46232   0.00000  Uiso   1.00
C822   C     0.71384   0.89671   0.06724   0.00000  Uiso   1.00
C823   C     0.81881   0.83787   0.42030   0.00000  Uiso   1.00
C824   C     0.96876   0.74519   0.02845   0.00000  Uiso   1.00
C825   C     0.99403   0.78315   0.31667   0.00000  Uiso   1.00
C826   C     0.84604   0.89115   0.08789   0.00000  Uiso   1.00
C827   C     0.82569   0.92906   0.11235   0.00000  Uiso   1.00
C828   C     0.66804   0.85725   0.47458   0.00000  Uiso   1.00
C829   C     0.95927   0.87055   0.00239   0.00000  Uiso   1.00
C830   C     0.75090   0.93865   0.40834   0.00000  Uiso   1.00
C831   C     0.73398   0.77679   0.08134   0.00000  Uiso   1.00
C832   C     0.82669   0.73258   0.41847   0.00000  Uiso   1.00
C833   C     0.82903   0.71801   0.37526   0.00000  Uiso   1.00
C834   C     0.80191   0.83177   0.46061   0.00000  Uiso   1.00
C835   C     0.76334   0.84924   0.48239   0.00000  Uiso   1.00
C836   C     0.82359   0.81013   0.48006   0.00000  Uiso   1.00
C837   C     0.81254   0.81510   0.02196   0.00000  Uiso   1.00
C838   C     0.77137   0.82744   0.04277   0.00000  Uiso   1.00
C839   C     0.74777   0.84589   0.02354   0.00000  Uiso   1.00
H840   H     0.68319   0.85374   0.21243   0.00000  Uiso   1.00
H841   H     0.96784   0.73003   0.05492   0.00000  Uiso   1.00
H842   H     0.97799   0.77954   0.03311   0.00000  Uiso   1.00
H843   H     0.99440   0.73234   0.00340   0.00000  Uiso   1.00
H844   H     0.68594   0.79983   0.33040   0.00000  Uiso   1.00
H845   H     0.67322   0.75654   0.29496   0.00000  Uiso   1.00
H846   H     0.96745   0.76990   0.34068   0.00000  Uiso   1.00
H847   H     0.84989   0.89384   0.05604   0.00000  Uiso   1.00
H848   H     0.87843   0.89164   0.09271   0.00000  Uiso   1.00
H849   H     0.82168   0.92729   0.14431   0.00000  Uiso   1.00
H850   H     0.84667   0.95811   0.10333   0.00000  Uiso   1.00
H851   H     0.87399   0.66929   0.21553   0.00000  Uiso   1.00
H852   H     0.79372   0.93024   0.10760   0.00000  Uiso   1.00
H853   H     0.67059   0.82462   0.47936   0.00000  Uiso   1.00
H854   H     0.66684   0.85770   0.44360   0.00000  Uiso   1.00
H855   H     0.95625   0.90345   0.49930   0.00000  Uiso   1.00
H856   H     0.93170   0.85017   0.49497   0.00000  Uiso   1.00
H857   H     0.95818   0.86782   0.03357   0.00000  Uiso   1.00
H858   H     0.74152   0.95128   0.44013   0.00000  Uiso   1.00
H859   H     0.78629   0.94544   0.39550   0.00000  Uiso   1.00
H860   H     0.73477   0.95534   0.39239   0.00000  Uiso   1.00
H861   H     0.75935   0.75515   0.06987   0.00000  Uiso   1.00
H862   H     0.79138   0.99913   0.28522   0.00000  Uiso   1.00
H863   H     0.70995   0.77016   0.06386   0.00000  Uiso   1.00
H864   H     0.71695   0.77056   0.11227   0.00000  Uiso   1.00
H865   H     0.79384   0.74202   0.43325   0.00000  Uiso   1.00
H866   H     0.83176   0.70587   0.43257   0.00000  Uiso   1.00
H867   H     0.86129   0.70804   0.35949   0.00000  Uiso   1.00
H868   H     0.80415   0.69119   0.37330   0.00000  Uiso   1.00
H869   H     0.82317   0.74390   0.36075   0.00000  Uiso   1.00
H870   H     0.90915   0.75997   0.09751   0.00000  Uiso   1.00
H871   H     0.90146   0.74469   0.46337   0.00000  Uiso   1.00
H872   H     0.85019   0.82909   0.40388   0.00000  Uiso   1.00
H873   H     0.73459   0.92060   0.04836   0.00000  Uiso   1.00
H874   H     0.72743   0.89329   0.09185   0.00000  Uiso   1.00
H875   H     0.68196   0.90843   0.08065   0.00000  Uiso   1.00
O876   O     0.83333   0.83333   0.25000   0.00000  Uiso   1.00
O877   O     0.82360   0.79060   0.16625   0.00000  Uiso   1.00
O878   O     0.79354   0.87313   0.33749   0.00000  Uiso   1.00
O879   O     0.87755   0.84159   0.15877   0.00000  Uiso   1.00
O880   O     0.83865   0.82802   0.33749   0.00000  Uiso   1.00
O881   O     0.70787   0.85789   0.04491   0.00000  Uiso   1.00
O882   O     0.92909   0.73536   0.01884   0.00000  Uiso   1.00
O883   O     0.97754   0.81105   0.29907   0.00000  Uiso   1.00
O884   O     0.81917   0.85444   0.09981   0.00000  Uiso   1.00
O885   O     0.70271   0.88534   0.48242   0.00000  Uiso   1.00
O886   O     0.73738   0.89547   0.40329   0.00000  Uiso   1.00
O887   O     0.84515   0.74768   0.27820   0.00000  Uiso   1.00
O888   O     0.75197   0.81896   0.08151   0.00000  Uiso   1.00
O889   O     0.85892   0.76628   0.42039   0.00000  Uiso   1.00
O890   O     0.81247   0.92803   0.26767   0.00000  Uiso   1.00
O891   O     0.74119   0.79917   0.23607   0.00000  Uiso   1.00
O892   O     0.93452   0.85845   0.21805   0.00000  Uiso   1.00
O893   O     0.73656   0.85627   0.27820   0.00000  Uiso   1.00
O894   O     0.92106   0.81944   0.26767   0.00000  Uiso   1.00
O895   O     0.80467   0.73570   0.23607   0.00000  Uiso   1.00
O896   O     0.87104   0.92193   0.21805   0.00000  Uiso   1.00
Zn897  Zn    0.85910   0.80756   0.28277   0.00000  Uiso   1.00
Zn898  Zn    0.80125   0.79044   0.22257   0.00000  Uiso   1.00
Zn899  Zn    0.87833   0.86331   0.21188   0.00000  Uiso   1.00
Zn900  Zn    0.79465   0.87202   0.28277   0.00000  Uiso   1.00
C901   C     0.05273   0.16027   0.75849   0.00000  Uiso   1.00
C902   C     0.18751   0.11507   0.95963   0.00000  Uiso   1.00
C903   C     0.21166   0.09933   0.97991   0.00000  Uiso   1.00
C904   C     0.28100   0.17332   0.74140   0.00000  Uiso   1.00
C905   C     0.20650   0.11088   0.52041   0.00000  Uiso   1.00
C906   C     0.17457   0.13739   0.54152   0.00000  Uiso   1.00
C907   C     0.23286   0.09629   0.53996   0.00000  Uiso   1.00
C908   C     0.22560   0.10703   0.58106   0.00000  Uiso   1.00
C909   C     0.17388   0.15353   0.58096   0.00000  Uiso   1.00
C910   C     0.32669   0.17375   0.73768   0.00000  Uiso   1.00
C911   C     0.00677   0.15717   0.76421   0.00000  Uiso   1.00
C912   C     0.09218   0.20801   0.92193   0.00000  Uiso   1.00
C913   C     0.18066   0.32212   0.73804   0.00000  Uiso   1.00
C914   C     0.15164   0.01214   0.76247   0.00000  Uiso   1.00
C915   C     0.15584   0.05611   0.75909   0.00000  Uiso   1.00
C916   C     0.17681   0.27767   0.74135   0.00000  Uiso   1.00
C917   C     0.18815   0.14523   0.64393   0.00000  Uiso   1.00
C918   C     0.14501   0.18742   0.85652   0.00000  Uiso   1.00
C919   C     0.13015   0.19031   0.90035   0.00000  Uiso   1.00
C920   C     0.19679   0.13578   0.60111   0.00000  Uiso   1.00
C921   C     0.07435   0.20247   0.96232   0.00000  Uiso   1.00
C922   C     0.04717   0.23004   0.56724   0.00000  Uiso   1.00
C923   C     0.15215   0.17120   0.92030   0.00000  Uiso   1.00
C924   C     0.30209   0.07852   0.52845   0.00000  Uiso   1.00
C925   C     0.32736   0.11648   0.81667   0.00000  Uiso   1.00
C926   C     0.17937   0.22449   0.58789   0.00000  Uiso   1.00
C927   C     0.15902   0.26239   0.61235   0.00000  Uiso   1.00
C928   C     0.00138   0.19058   0.97458   0.00000  Uiso   1.00
C929   C     0.29260   0.20388   0.50239   0.00000  Uiso   1.00
C930   C     0.08423   0.27199   0.90834   0.00000  Uiso   1.00
C931   C     0.06731   0.11012   0.58134   0.00000  Uiso   1.00
C932   C     0.16003   0.06591   0.91847   0.00000  Uiso   1.00
C933   C     0.16236   0.05134   0.87526   0.00000  Uiso   1.00
C934   C     0.13525   0.16510   0.96061   0.00000  Uiso   1.00
C935   C     0.09667   0.18257   0.98239   0.00000  Uiso   1.00
C936   C     0.15692   0.14347   0.98006   0.00000  Uiso   1.00
C937   C     0.14587   0.14843   0.52196   0.00000  Uiso   1.00
C938   C     0.10471   0.16077   0.54277   0.00000  Uiso   1.00
C939   C     0.08111   0.17922   0.52354   0.00000  Uiso   1.00
H940   H     0.01652   0.18708   0.71243   0.00000  Uiso   1.00
H941   H     0.30117   0.06337   0.55492   0.00000  Uiso   1.00
H942   H     0.31132   0.11287   0.53311   0.00000  Uiso   1.00
H943   H     0.32773   0.06567   0.50340   0.00000  Uiso   1.00
H944   H     0.01927   0.13316   0.83040   0.00000  Uiso   1.00
H945   H     0.00656   0.08987   0.79496   0.00000  Uiso   1.00
H946   H     0.30078   0.10324   0.84068   0.00000  Uiso   1.00
H947   H     0.18322   0.22717   0.55604   0.00000  Uiso   1.00
H948   H     0.21177   0.22498   0.59271   0.00000  Uiso   1.00
H949   H     0.15501   0.26063   0.64431   0.00000  Uiso   1.00
H950   H     0.18001   0.29144   0.60333   0.00000  Uiso   1.00
H951   H     0.20732   0.00263   0.71553   0.00000  Uiso   1.00
H952   H     0.12706   0.26358   0.60760   0.00000  Uiso   1.00
H953   H     0.00392   0.15795   0.97936   0.00000  Uiso   1.00
H954   H     0.00017   0.19104   0.94360   0.00000  Uiso   1.00
H955   H     0.28959   0.23678   0.99930   0.00000  Uiso   1.00
H956   H     0.26504   0.18350   0.99497   0.00000  Uiso   1.00
H957   H     0.29152   0.20116   0.53357   0.00000  Uiso   1.00
H958   H     0.07485   0.28462   0.94013   0.00000  Uiso   1.00
H959   H     0.11962   0.27877   0.89550   0.00000  Uiso   1.00
H960   H     0.06810   0.28867   0.89239   0.00000  Uiso   1.00
H961   H     0.09268   0.08849   0.56987   0.00000  Uiso   1.00
H962   H     0.12472   0.33247   0.78522   0.00000  Uiso   1.00
H963   H     0.04328   0.10349   0.56386   0.00000  Uiso   1.00
H964   H     0.05028   0.10389   0.61227   0.00000  Uiso   1.00
H965   H     0.12718   0.07535   0.93325   0.00000  Uiso   1.00
H966   H     0.16510   0.03920   0.93257   0.00000  Uiso   1.00
H967   H     0.19462   0.04137   0.85949   0.00000  Uiso   1.00
H968   H     0.13749   0.02453   0.87330   0.00000  Uiso   1.00
H969   H     0.15651   0.07723   0.86075   0.00000  Uiso   1.00
H970   H     0.24249   0.09330   0.59751   0.00000  Uiso   1.00
H971   H     0.23479   0.07802   0.96337   0.00000  Uiso   1.00
H972   H     0.18352   0.16243   0.90388   0.00000  Uiso   1.00
H973   H     0.06792   0.25393   0.54836   0.00000  Uiso   1.00
H974   H     0.06076   0.22662   0.59185   0.00000  Uiso   1.00
H975   H     0.01530   0.24176   0.58065   0.00000  Uiso   1.00
O976   O     0.16667   0.16667   0.75000   0.00000  Uiso   1.00
O977   O     0.15693   0.12393   0.66625   0.00000  Uiso   1.00
O978   O     0.12687   0.20646   0.83749   0.00000  Uiso   1.00
O979   O     0.21088   0.17493   0.65877   0.00000  Uiso   1.00
O980   O     0.17198   0.16135   0.83749   0.00000  Uiso   1.00
O981   O     0.04120   0.19122   0.54491   0.00000  Uiso   1.00
O982   O     0.26242   0.06869   0.51884   0.00000  Uiso   1.00
O983   O     0.31087   0.14438   0.79907   0.00000  Uiso   1.00
O984   O     0.15250   0.18777   0.59981   0.00000  Uiso   1.00
O985   O     0.03604   0.21867   0.98242   0.00000  Uiso   1.00
O986   O     0.07071   0.22880   0.90329   0.00000  Uiso   1.00
O987   O     0.17849   0.08101   0.77820   0.00000  Uiso   1.00
O988   O     0.08531   0.15230   0.58151   0.00000  Uiso   1.00
O989   O     0.19226   0.09961   0.92039   0.00000  Uiso   1.00
O990   O     0.14581   0.26136   0.76767   0.00000  Uiso   1.00
O991   O     0.07452   0.13251   0.73607   0.00000  Uiso   1.00
O992   O     0.26785   0.19179   0.71805   0.00000  Uiso   1.00
O993   O     0.06990   0.18960   0.77820   0.00000  Uiso   1.00
O994   O     0.25440   0.15277   0.76767   0.00000  Uiso   1.00
O995   O     0.13800   0.06903   0.73607   0.00000  Uiso   1.00
O996   O     0.20437   0.25527   0.71805   0.00000  Uiso   1.00
Zn997  Zn    0.19244   0.14090   0.78277   0.00000  Uiso   1.00
Zn998  Zn    0.13459   0.12378   0.72257   0.00000  Uiso   1.00
Zn999  Zn    0.21166   0.19664   0.71188   0.00000  Uiso   1.00
Zn1000 Zn    0.12798   0.20535   0.78277   0.00000  Uiso   1.00
C1001  C     0.38606   0.16027   0.75849   0.00000  Uiso   1.00
C1002  C     0.52084   0.11507   0.95963   0.00000  Uiso   1.00
C1003  C     0.54499   0.09933   0.97991   0.00000  Uiso   1.00
C1004  C     0.61433   0.17332   0.74140   0.00000  Uiso   1.00
C1005  C     0.53983   0.11088   0.52041   0.00000  Uiso   1.00
C1006  C     0.50790   0.13739   0.54152   0.00000  Uiso   1.00
C1007  C     0.56619   0.09629   0.53996   0.00000  Uiso   1.00
C1008  C     0.55893   0.10703   0.58106   0.00000  Uiso   1.00
C1009  C     0.50721   0.15353   0.58096   0.00000  Uiso   1.00
C1010  C     0.66002   0.17375   0.73768   0.00000  Uiso   1.00
C1011  C     0.34010   0.15717   0.76421   0.00000  Uiso   1.00
C1012  C     0.42552   0.20801   0.92193   0.00000  Uiso   1.00
C1013  C     0.51399   0.32212   0.73804   0.00000  Uiso   1.00
C1014  C     0.48498   0.01214   0.76247   0.00000  Uiso   1.00
C1015  C     0.48918   0.05611   0.75909   0.00000  Uiso   1.00
C1016  C     0.51015   0.27767   0.74135   0.00000  Uiso   1.00
C1017  C     0.52148   0.14523   0.64393   0.00000  Uiso   1.00
C1018  C     0.47835   0.18742   0.85652   0.00000  Uiso   1.00
C1019  C     0.46348   0.19031   0.90035   0.00000  Uiso   1.00
C1020  C     0.53012   0.13578   0.60111   0.00000  Uiso   1.00
C1021  C     0.40768   0.20247   0.96232   0.00000  Uiso   1.00
C1022  C     0.38050   0.23004   0.56724   0.00000  Uiso   1.00
C1023  C     0.48548   0.17120   0.92030   0.00000  Uiso   1.00
C1024  C     0.63543   0.07852   0.52845   0.00000  Uiso   1.00
C1025  C     0.66069   0.11648   0.81667   0.00000  Uiso   1.00
C1026  C     0.51270   0.22449   0.58789   0.00000  Uiso   1.00
C1027  C     0.49236   0.26239   0.61235   0.00000  Uiso   1.00
C1028  C     0.33471   0.19058   0.97458   0.00000  Uiso   1.00
C1029  C     0.62594   0.20388   0.50239   0.00000  Uiso   1.00
C1030  C     0.41757   0.27199   0.90834   0.00000  Uiso   1.00
C1031  C     0.40065   0.11012   0.58134   0.00000  Uiso   1.00
C1032  C     0.49336   0.06591   0.91847   0.00000  Uiso   1.00
C1033  C     0.49570   0.05134   0.87526   0.00000  Uiso   1.00
C1034  C     0.46858   0.16510   0.96061   0.00000  Uiso   1.00
C1035  C     0.43000   0.18257   0.98239   0.00000  Uiso   1.00
C1036  C     0.49026   0.14347   0.98006   0.00000  Uiso   1.00
C1037  C     0.47920   0.14843   0.52196   0.00000  Uiso   1.00
C1038  C     0.43804   0.16077   0.54277   0.00000  Uiso   1.00
C1039  C     0.41444   0.17922   0.52354   0.00000  Uiso   1.00
H1040  H     0.34986   0.18708   0.71243   0.00000  Uiso   1.00
H1041  H     0.63450   0.06337   0.55492   0.00000  Uiso   1.00
H1042  H     0.64465   0.11287   0.53311   0.00000  Uiso   1.00
H1043  H     0.66106   0.06567   0.50340   0.00000  Uiso   1.00
H1044  H     0.35261   0.13316   0.83040   0.00000  Uiso   1.00
H1045  H     0.33989   0.08987   0.79496   0.00000  Uiso   1.00
H1046  H     0.63411   0.10324   0.84068   0.00000  Uiso   1.00
H1047  H     0.51655   0.22717   0.55604   0.00000  Uiso   1.00
H1048  H     0.54510   0.22498   0.59271   0.00000  Uiso   1.00
H1049  H     0.48834   0.26063   0.64431   0.00000  Uiso   1.00
H1050  H     0.51334   0.29144   0.60333   0.00000  Uiso   1.00
H1051  H     0.54066   0.00263   0.71553   0.00000  Uiso   1.00
H1052  H     0.46039   0.26358   0.60760   0.00000  Uiso   1.00
H1053  H     0.33725   0.15795   0.97936   0.00000  Uiso   1.00
H1054  H     0.33350   0.19104   0.94360   0.00000  Uiso   1.00
H1055  H     0.62292   0.23678   0.99930   0.00000  Uiso   1.00
H1056  H     0.59837   0.18350   0.99497   0.00000  Uiso   1.00
H1057  H     0.62485   0.20116   0.53357   0.00000  Uiso   1.00
H1058  H     0.40819   0.28462   0.94013   0.00000  Uiso   1.00
H1059  H     0.45296   0.27877   0.89550   0.00000  Uiso   1.00
H1060  H     0.40143   0.28867   0.89239   0.00000  Uiso   1.00
H1061  H     0.42602   0.08849   0.56987   0.00000  Uiso   1.00
H1062  H     0.45805   0.33247   0.78522   0.00000  Uiso   1.00
H1063  H     0.37661   0.10349   0.56386   0.00000  Uiso   1.00
H1064  H     0.38361   0.10389   0.61227   0.00000  Uiso   1.00
H1065  H     0.46051   0.07535   0.93325   0.00000  Uiso   1.00
H1066  H     0.49843   0.03920   0.93257   0.00000  Uiso   1.00
H1067  H     0.52796   0.04137   0.85949   0.00000  Uiso   1.00
H1068  H     0.47082   0.02453   0.87330   0.00000  Uiso   1.00
H1069  H     0.48984   0.07723   0.86075   0.00000  Uiso   1.00
H1070  H     0.57582   0.09330   0.59751   0.00000  Uiso   1.00
H1071  H     0.56813   0.07802   0.96337   0.00000  Uiso   1.00
H1072  H     0.51686   0.16243   0.90388   0.00000  Uiso   1.00
H1073  H     0.40126   0.25393   0.54836   0.00000  Uiso   1.00
H1074  H     0.39409   0.22662   0.59185   0.00000  Uiso   1.00
H1075  H     0.34863   0.24176   0.58065   0.00000  Uiso   1.00
O1076  O     0.50000   0.16667   0.75000   0.00000  Uiso   1.00
O1077  O     0.49027   0.12393   0.66625   0.00000  Uiso   1.00
O1078  O     0.46020   0.20646   0.83749   0.00000  Uiso   1.00
O1079  O     0.54421   0.17493   0.65877   0.00000  Uiso   1.00
O1080  O     0.50532   0.16135   0.83749   0.00000  Uiso   1.00
O1081  O     0.37454   0.19122   0.54491   0.00000  Uiso   1.00
O1082  O     0.59576   0.06869   0.51884   0.00000  Uiso   1.00
O1083  O     0.64421   0.14438   0.79907   0.00000  Uiso   1.00
O1084  O     0.48583   0.18777   0.59981   0.00000  Uiso   1.00
O1085  O     0.36937   0.21867   0.98242   0.00000  Uiso   1.00
O1086  O     0.40404   0.22880   0.90329   0.00000  Uiso   1.00
O1087  O     0.51182   0.08101   0.77820   0.00000  Uiso   1.00
O1088  O     0.41864   0.15230   0.58151   0.00000  Uiso   1.00
O1089  O     0.52559   0.09961   0.92039   0.00000  Uiso   1.00
O1090  O     0.47914   0.26136   0.76767   0.00000  Uiso   1.00
O1091  O     0.40785   0.13251   0.73607   0.00000  Uiso   1.00
O1092  O     0.60119   0.19179   0.71805   0.00000  Uiso   1.00
O1093  O     0.40323   0.18960   0.77820   0.00000  Uiso   1.00
O1094  O     0.58773   0.15277   0.76767   0.00000  Uiso   1.00
O1095  O     0.47133   0.06903   0.73607   0.00000  Uiso   1.00
O1096  O     0.53771   0.25527   0.71805   0.00000  Uiso   1.00
Zn1097 Zn    0.52577   0.14090   0.78277   0.00000  Uiso   1.00
Zn1098 Zn    0.46792   0.12378   0.72257   0.00000  Uiso   1.00
Zn1099 Zn    0.54500   0.19664   0.71188   0.00000  Uiso   1.00
Zn1100 Zn    0.46131   0.20535   0.78277   0.00000  Uiso   1.00
C1101  C     0.71940   0.16027   0.75849   0.00000  Uiso   1.00
C1102  C     0.85418   0.11507   0.95963   0.00000  Uiso   1.00
C1103  C     0.87832   0.09933   0.97991   0.00000  Uiso   1.00
C1104  C     0.94766   0.17332   0.74140   0.00000  Uiso   1.00
C1105  C     0.87317   0.11088   0.52041   0.00000  Uiso   1.00
C1106  C     0.84123   0.13739   0.54152   0.00000  Uiso   1.00
C1107  C     0.89953   0.09629   0.53996   0.00000  Uiso   1.00
C1108  C     0.89226   0.10703   0.58106   0.00000  Uiso   1.00
C1109  C     0.84055   0.15353   0.58096   0.00000  Uiso   1.00
C1110  C     0.99336   0.17375   0.73768   0.00000  Uiso   1.00
C1111  C     0.67343   0.15717   0.76421   0.00000  Uiso   1.00
C1112  C     0.75885   0.20801   0.92193   0.00000  Uiso   1.00
C1113  C     0.84732   0.32212   0.73804   0.00000  Uiso   1.00
C1114  C     0.81831   0.01214   0.76247   0.00000  Uiso   1.00
C1115  C     0.82251   0.05611   0.75909   0.00000  Uiso   1.00
C1116  C     0.84348   0.27767   0.74135   0.00000  Uiso   1.00
C1117  C     0.85482   0.14523   0.64393   0.00000  Uiso   1.00
C1118  C     0.81168   0.18742   0.85652   0.00000  Uiso   1.00
C1119  C     0.79682   0.19031   0.90035   0.00000  Uiso   1.00
C1120  C     0.86345   0.13578   0.60111   0.00000  Uiso   1.00
C1121  C     0.74102   0.20247   0.96232   0.00000  Uiso   1.00
C1122  C     0.71384   0.23004   0.56724   0.00000  Uiso   1.00
C1123  C     0.81881   0.17120   0.92030   0.00000  Uiso   1.00
C1124  C     0.96876   0.07852   0.52845   0.00000  Uiso   1.00
C1125  C     0.99403   0.11648   0.81667   0.00000  Uiso   1.00
C1126  C     0.84604   0.22449   0.58789   0.00000  Uiso   1.00
C1127  C     0.82569   0.26239   0.61235   0.00000  Uiso   1.00
C1128  C     0.66804   0.19058   0.97458   0.00000  Uiso   1.00
C1129  C     0.95927   0.20388   0.50239   0.00000  Uiso   1.00
C1130  C     0.75090   0.27199   0.90834   0.00000  Uiso   1.00
C1131  C     0.73398   0.11012   0.58134   0.00000  Uiso   1.00
C1132  C     0.82669   0.06591   0.91847   0.00000  Uiso   1.00
C1133  C     0.82903   0.05134   0.87526   0.00000  Uiso   1.00
C1134  C     0.80191   0.16510   0.96061   0.00000  Uiso   1.00
C1135  C     0.76334   0.18257   0.98239   0.00000  Uiso   1.00
C1136  C     0.82359   0.14347   0.98006   0.00000  Uiso   1.00
C1137  C     0.81254   0.14843   0.52196   0.00000  Uiso   1.00
C1138  C     0.77137   0.16077   0.54277   0.00000  Uiso   1.00
C1139  C     0.74777   0.17922   0.52354   0.00000  Uiso   1.00
H1140  H     0.68319   0.18708   0.71243   0.00000  Uiso   1.00
H1141  H     0.96784   0.06337   0.55492   0.00000  Uiso   1.00
H1142  H     0.97799   0.11287   0.53311   0.00000  Uiso   1.00
H1143  H     0.99440   0.06567   0.50340   0.00000  Uiso   1.00
H1144  H     0.68594   0.13316   0.83040   0.00000  Uiso   1.00
H1145  H     0.67322   0.08987   0.79496   0.00000  Uiso   1.00
H1146  H     0.96745   0.10324   0.84068   0.00000  Uiso   1.00
H1147  H     0.84989   0.22717   0.55604   0.00000  Uiso   1.00
H1148  H     0.87843   0.22498   0.59271   0.00000  Uiso   1.00
H1149  H     0.82168   0.26063   0.64431   0.00000  Uiso   1.00
H1150  H     0.84667   0.29144   0.60333   0.00000  Uiso   1.00
H1151  H     0.87399   0.00263   0.71553   0.00000  Uiso   1.00
H1152  H     0.79372   0.26358   0.60760   0.00000  Uiso   1.00
H1153  H     0.67059   0.15795   0.97936   0.00000  Uiso   1.00
H1154  H     0.66684   0.19104   0.94360   0.00000  Uiso   1.00
H1155  H     0.95625   0.23678   0.99930   0.00000  Uiso   1.00
H1156  H     0.93170   0.18350   0.99497   0.00000  Uiso   1.00
H1157  H     0.95818   0.20116   0.53357   0.00000  Uiso   1.00
H1158  H     0.74152   0.28462   0.94013   0.00000  Uiso   1.00
H1159  H     0.78629   0.27877   0.89550   0.00000  Uiso   1.00
H1160  H     0.73477   0.28867   0.89239   0.00000  Uiso   1.00
H1161  H     0.75935   0.08849   0.56987   0.00000  Uiso   1.00
H1162  H     0.79138   0.33247   0.78522   0.00000  Uiso   1.00
H1163  H     0.70995   0.10349   0.56386   0.00000  Uiso   1.00
H1164  H     0.71695   0.10389   0.61227   0.00000  Uiso   1.00
H1165  H     0.79384   0.07535   0.93325   0.00000  Uiso   1.00
H1166  H     0.83176   0.03920   0.93257   0.00000  Uiso   1.00
H1167  H     0.86129   0.04137   0.85949   0.00000  Uiso   1.00
H1168  H     0.80415   0.02453   0.87330   0.00000  Uiso   1.00
H1169  H     0.82317   0.07723   0.86075   0.00000  Uiso   1.00
H1170  H     0.90915   0.09330   0.59751   0.00000  Uiso   1.00
H1171  H     0.90146   0.07802   0.96337   0.00000  Uiso   1.00
H1172  H     0.85019   0.16243   0.90388   0.00000  Uiso   1.00
H1173  H     0.73459   0.25393   0.54836   0.00000  Uiso   1.00
H1174  H     0.72743   0.22662   0.59185   0.00000  Uiso   1.00
H1175  H     0.68196   0.24176   0.58065   0.00000  Uiso   1.00
O1176  O     0.83333   0.16667   0.75000   0.00000  Uiso   1.00
O1177  O     0.82360   0.12393   0.66625   0.00000  Uiso   1.00
O1178  O     0.79354   0.20646   0.83749   0.00000  Uiso   1.00
O1179  O     0.87755   0.17493   0.65877   0.00000  Uiso   1.00
O1180  O     0.83865   0.16135   0.83749   0.00000  Uiso   1.00
O1181  O     0.70787   0.19122   0.54491   0.00000  Uiso   1.00
O1182  O     0.92909   0.06869   0.51884   0.00000  Uiso   1.00
O1183  O     0.97754   0.14438   0.79907   0.00000  Uiso   1.00
O1184  O     0.81917   0.18777   0.59981   0.00000  Uiso   1.00
O1185  O     0.70271   0.21867   0.98242   0.00000  Uiso   1.00
O1186  O     0.73738   0.22880   0.90329   0.00000  Uiso   1.00
O1187  O     0.84515   0.08101   0.77820   0.00000  Uiso   1.00
O1188  O     0.75197   0.15230   0.58151   0.00000  Uiso   1.00
O1189  O     0.85892   0.09961   0.92039   0.00000  Uiso   1.00
O1190  O     0.81247   0.26136   0.76767   0.00000  Uiso   1.00
O1191  O     0.74119   0.13251   0.73607   0.00000  Uiso   1.00
O1192  O     0.93452   0.19179   0.71805   0.00000  Uiso   1.00
O1193  O     0.73656   0.18960   0.77820   0.00000  Uiso   1.00
O1194  O     0.92106   0.15277   0.76767   0.00000  Uiso   1.00
O1195  O     0.80467   0.06903   0.73607   0.00000  Uiso   1.00
O1196  O     0.87104   0.25527   0.71805   0.00000  Uiso   1.00
Zn1197 Zn    0.85910   0.14090   0.78277   0.00000  Uiso   1.00
Zn1198 Zn    0.80125   0.12378   0.72257   0.00000  Uiso   1.00
Zn1199 Zn    0.87833   0.19664   0.71188   0.00000  Uiso   1.00
Zn1200 Zn    0.79465   0.20535   0.78277   0.00000  Uiso   1.00
C1201  C     0.05273   0.49361   0.75849   0.00000  Uiso   1.00
C1202  C     0.18751   0.44841   0.95963   0.00000  Uiso   1.00
C1203  C     0.21166   0.43266   0.97991   0.00000  Uiso   1.00
C1204  C     0.28100   0.50665   0.74140   0.00000  Uiso   1.00
C1205  C     0.20650   0.44422   0.52041   0.00000  Uiso   1.00
C1206  C     0.17457   0.47072   0.54152   0.00000  Uiso   1.00
C1207  C     0.23286   0.42962   0.53996   0.00000  Uiso   1.00
C1208  C     0.22560   0.44037   0.58106   0.00000  Uiso   1.00
C1209  C     0.17388   0.48686   0.58096   0.00000  Uiso   1.00
C1210  C     0.32669   0.50708   0.73768   0.00000  Uiso   1.00
C1211  C     0.00677   0.49051   0.76421   0.00000  Uiso   1.00
C1212  C     0.09218   0.54134   0.92193   0.00000  Uiso   1.00
C1213  C     0.18066   0.65545   0.73804   0.00000  Uiso   1.00
C1214  C     0.15164   0.34547   0.76247   0.00000  Uiso   1.00
C1215  C     0.15584   0.38944   0.75909   0.00000  Uiso   1.00
C1216  C     0.17681   0.61100   0.74135   0.00000  Uiso   1.00
C1217  C     0.18815   0.47856   0.64393   0.00000  Uiso   1.00
C1218  C     0.14501   0.52075   0.85652   0.00000  Uiso   1.00
C1219  C     0.13015   0.52365   0.90035   0.00000  Uiso   1.00
C1220  C     0.19679   0.46912   0.60111   0.00000  Uiso   1.00
C1221  C     0.07435   0.53581   0.96232   0.00000  Uiso   1.00
C1222  C     0.04717   0.56338   0.56724   0.00000  Uiso   1.00
C1223  C     0.15215   0.50453   0.92030   0.00000  Uiso   1.00
C1224  C     0.30209   0.41186   0.52845   0.00000  Uiso   1.00
C1225  C     0.32736   0.44981   0.81667   0.00000  Uiso   1.00
C1226  C     0.17937   0.55782   0.58789   0.00000  Uiso   1.00
C1227  C     0.15902   0.59573   0.61235   0.00000  Uiso   1.00
C1228  C     0.00138   0.52392   0.97458   0.00000  Uiso   1.00
C1229  C     0.29260   0.53721   0.50239   0.00000  Uiso   1.00
C1230  C     0.08423   0.60532   0.90834   0.00000  Uiso   1.00
C1231  C     0.06731   0.44346   0.58134   0.00000  Uiso   1.00
C1232  C     0.16003   0.39924   0.91847   0.00000  Uiso   1.00
C1233  C     0.16236   0.38468   0.87526   0.00000  Uiso   1.00
C1234  C     0.13525   0.49844   0.96061   0.00000  Uiso   1.00
C1235  C     0.09667   0.51590   0.98239   0.00000  Uiso   1.00
C1236  C     0.15692   0.47680   0.98006   0.00000  Uiso   1.00
C1237  C     0.14587   0.48176   0.52196   0.00000  Uiso   1.00
C1238  C     0.10471   0.49411   0.54277   0.00000  Uiso   1.00
C1239  C     0.08111   0.51255   0.52354   0.00000  Uiso   1.00
H1240  H     0.01652   0.52041   0.71243   0.00000  Uiso   1.00
H1241  H     0.30117   0.39670   0.55492   0.00000  Uiso   1.00
H1242  H     0.31132   0.44620   0.53311   0.00000  Uiso   1.00
H1243  H     0.32773   0.39900   0.50340   0.00000  Uiso   1.00
H1244  H     0.01927   0.46650   0.83040   0.00000  Uiso   1.00
H1245  H     0.00656   0.42320   0.79496   0.00000  Uiso   1.00
H1246  H     0.30078   0.43657   0.84068   0.00000  Uiso   1.00
H1247  H     0.18322   0.56051   0.55604   0.00000  Uiso   1.00
H1248  H     0.21177   0.55831   0.59271   0.00000  Uiso   1.00
H1249  H     0.15501   0.59396   0.64431   0.00000  Uiso   1.00
H1250  H     0.18001   0.62478   0.60333   0.00000  Uiso   1.00
H1251  H     0.20732   0.33596   0.71553   0.00000  Uiso   1.00
H1252  H     0.12706   0.59691   0.60760   0.00000  Uiso   1.00
H1253  H     0.00392   0.49129   0.97936   0.00000  Uiso   1.00
H1254  H     0.00017   0.52437   0.94360   0.00000  Uiso   1.00
H1255  H     0.28959   0.57011   0.99930   0.00000  Uiso   1.00
H1256  H     0.26504   0.51684   0.99497   0.00000  Uiso   1.00
H1257  H     0.29152   0.53449   0.53357   0.00000  Uiso   1.00
H1258  H     0.07485   0.61795   0.94013   0.00000  Uiso   1.00
H1259  H     0.11962   0.61210   0.89550   0.00000  Uiso   1.00
H1260  H     0.06810   0.62200   0.89239   0.00000  Uiso   1.00
H1261  H     0.09268   0.42182   0.56987   0.00000  Uiso   1.00
H1262  H     0.12472   0.66580   0.78522   0.00000  Uiso   1.00
H1263  H     0.04328   0.43683   0.56386   0.00000  Uiso   1.00
H1264  H     0.05028   0.43722   0.61227   0.00000  Uiso   1.00
H1265  H     0.12718   0.40868   0.93325   0.00000  Uiso   1.00
H1266  H     0.16510   0.37254   0.93257   0.00000  Uiso   1.00
H1267  H     0.19462   0.37470   0.85949   0.00000  Uiso   1.00
H1268  H     0.13749   0.35786   0.87330   0.00000  Uiso   1.00
H1269  H     0.15651   0.41057   0.86075   0.00000  Uiso   1.00
H1270  H     0.24249   0.42664   0.59751   0.00000  Uiso   1.00
H1271  H     0.23479   0.41135   0.96337   0.00000  Uiso   1.00
H1272  H     0.18352   0.49576   0.90388   0.00000  Uiso   1.00
H1273  H     0.06792   0.58727   0.54836   0.00000  Uiso   1.00
H1274  H     0.06076   0.55995   0.59185   0.00000  Uiso   1.00
H1275  H     0.01530   0.57510   0.58065   0.00000  Uiso   1.00
O1276  O     0.16667   0.50000   0.75000   0.00000  Uiso   1.00
O1277  O     0.15693   0.45726   0.66625   0.00000  Uiso   1.00
O1278  O     0.12687   0.53979   0.83749   0.00000  Uiso   1.00
O1279  O     0.21088   0.50826   0.65877   0.00000  Uiso   1.00
O1280  O     0.17198   0.49468   0.83749   0.00000  Uiso   1.00
O1281  O     0.04120   0.52455   0.54491   0.00000  Uiso   1.00
O1282  O     0.26242   0.40203   0.51884   0.00000  Uiso   1.00
O1283  O     0.31087   0.47771   0.79907   0.00000  Uiso   1.00
O1284  O     0.15250   0.52111   0.59981   0.00000  Uiso   1.00
O1285  O     0.03604   0.55200   0.98242   0.00000  Uiso   1.00
O1286  O     0.07071   0.56213   0.90329   0.00000  Uiso   1.00
O1287  O     0.17849   0.41434   0.77820   0.00000  Uiso   1.00
O1288  O     0.08531   0.48563   0.58151   0.00000  Uiso   1.00
O1289  O     0.19226   0.43295   0.92039   0.00000  Uiso   1.00
O1290  O     0.14581   0.59469   0.76767   0.00000  Uiso   1.00
O1291  O     0.07452   0.46584   0.73607   0.00000  Uiso   1.00
O1292  O     0.26785   0.52512   0.71805   0.00000  Uiso   1.00
O1293  O     0.06990   0.52293   0.77820   0.00000  Uiso   1.00
O1294  O     0.25440   0.48610   0.76767   0.00000  Uiso   1.00
O1295  O     0.13800   0.40236   0.73607   0.00000  Uiso   1.00
O1296  O     0.20437   0.58860   0.71805   0.00000  Uiso   1.00
Zn1297 Zn    0.19244   0.47423   0.78277   0.00000  Uiso   1.00
Zn1298 Zn    0.13459   0.45711   0.72257   0.00000  Uiso   1.00
Zn1299 Zn    0.21166   0.52997   0.71188   0.00000  Uiso   1.00
Zn1300 Zn    0.12798   0.53868   0.78277   0.00000  Uiso   1.00
C1301  C     0.38606   0.49361   0.75849   0.00000  Uiso   1.00
C1302  C     0.52084   0.44841   0.95963   0.00000  Uiso   1.00
C1303  C     0.54499   0.43266   0.97991   0.00000  Uiso   1.00
C1304  C     0.61433   0.50665   0.74140   0.00000  Uiso   1.00
C1305  C     0.53983   0.44422   0.52041   0.00000  Uiso   1.00
C1306  C     0.50790   0.47072   0.54152   0.00000  Uiso   1.00
C1307  C     0.56619   0.42962   0.53996   0.00000  Uiso   1.00
C1308  C     0.55893   0.44037   0.58106   0.00000  Uiso   1.00
C1309  C     0.50721   0.48686   0.58096   0.00000  Uiso   1.00
C1310  C     0.66002   0.50708   0.73768   0.00000  Uiso   1.00
C1311  C     0.34010   0.49051   0.76421   0.00000  Uiso   1.00
C1312  C     0.42552   0.54134   0.92193   0.00000  Uiso   1.00
C1313  C     0.51399   0.65545   0.73804   0.00000  Uiso   1.00
C1314  C     0.48498   0.34547   0.76247   0.00000  Uiso   1.00
C1315  C     0.48918   0.38944   0.75909   0.00000  Uiso   1.00
C1316  C     0.51015   0.61100   0.74135   0.00000  Uiso   1.00
C1317  C     0.52148   0.47856   0.64393   0.00000  Uiso   1.00
C1318  C     0.47835   0.52075   0.85652   0.00000  Uiso   1.00
C1319  C     0.46348   0.52365   0.90035   0.00000  Uiso   1.00
C1320  C     0.53012   0.46912   0.60111   0.00000  Uiso   1.00
C1321  C     0.40768   0.53581   0.96232   0.00000  Uiso   1.00
C1322  C     0.38050   0.56338   0.56724   0.00000  Uiso   1.00
C1323  C     0.48548   0.50453   0.92030   0.00000  Uiso   1.00
C1324  C     0.63543   0.41186   0.52845   0.00000  Uiso   1.00
C1325  C     0.66069   0.44981   0.81667   0.00000  Uiso   1.00
C1326  C     0.51270   0.55782   0.58789   0.00000  Uiso   1.00
C1327  C     0.49236   0.59573   0.61235   0.00000  Uiso   1.00
C1328  C     0.33471   0.52392   0.97458   0.00000  Uiso   1.00
C1329  C     0.62594   0.53721   0.50239   0.00000  Uiso   1.00
C1330  C     0.41757   0.60532   0.90834   0.00000  Uiso   1.00
C1331  C     0.40065   0.44346   0.58134   0.00000  Uiso   1.00
C1332  C     0.49336   0.39924   0.91847   0.00000  Uiso   1.00
C1333  C     0.49570   0.38468   0.87526   0.00000  Uiso   1.00
C1334  C     0.46858   0.49844   0.96061   0.00000  Uiso   1.00
C1335  C     0.43000   0.51590   0.98239   0.00000  Uiso   1.00
C1336  C     0.49026   0.47680   0.98006   0.00000  Uiso   1.00
C1337  C     0.47920   0.48176   0.52196   0.00000  Uiso   1.00
C1338  C     0.43804   0.49411   0.54277   0.00000  Uiso   1.00
C1339  C     0.41444   0.51255   0.52354   0.00000  Uiso   1.00
H1340  H     0.34986   0.52041   0.71243   0.00000  Uiso   1.00
H1341  H     0.63450   0.39670   0.55492   0.00000  Uiso   1.00
H1342  H     0.64465   0.44620   0.53311   0.00000  Uiso   1.00
H1343  H     0.66106   0.39900   0.50340   0.00000  Uiso   1.00
H1344  H     0.35261   0.46650   0.83040   0.00000  Uiso   1.00
H1345  H     0.33989   0.42320   0.79496   0.00000  Uiso   1.00
H1346  H     0.63411   0.43657   0.84068   0.00000  Uiso   1.00
H1347  H     0.51655   0.56051   0.55604   0.00000  Uiso   1.00
H1348  H     0.54510   0.55831   0.59271   0.00000  Uiso   1.00
H1349  H     0.48834   0.59396   0.64431   0.00000  Uiso   1.00
H1350  H     0.51334   0.62478   0.60333   0.00000  Uiso   1.00
H1351  H     0.54066   0.33596   0.71553   0.00000  Uiso   1.00
H1352  H     0.46039   0.59691   0.60760   0.00000  Uiso   1.00
H1353  H     0.33725   0.49129   0.97936   0.00000  Uiso   1.00
H1354  H     0.33350   0.52437   0.94360   0.00000  Uiso   1.00
H1355  H     0.62292   0.57011   0.99930   0.00000  Uiso   1.00
H1356  H     0.59837   0.51684   0.99497   0.00000  Uiso   1.00
H1357  H     0.62485   0.53449   0.53357   0.00000  Uiso   1.00
H1358  H     0.40819   0.61795   0.94013   0.00000  Uiso   1.00
H1359  H     0.45296   0.61210   0.89550   0.00000  Uiso   1.00
H1360  H     0.40143   0.62200   0.89239   0.00000  Uiso   1.00
H1361  H     0.42602   0.42182   0.56987   0.00000  Uiso   1.00
H1362  H     0.45805   0.66580   0.78522   0.00000  Uiso   1.00
H1363  H     0.37661   0.43683   0.56386   0.00000  Uiso   1.00
H1364  H     0.38361   0.43722   0.61227   0.00000  Uiso   1.00
H1365  H     0.46051   0.40868   0.93325   0.00000  Uiso   1.00
H1366  H     0.49843   0.37254   0.93257   0.00000  Uiso   1.00
H1367  H     0.52796   0.37470   0.85949   0.00000  Uiso   1.00
H1368  H     0.47082   0.35786   0.87330   0.00000  Uiso   1.00
H1369  H     0.48984   0.41057   0.86075   0.00000  Uiso   1.00
H1370  H     0.57582   0.42664   0.59751   0.00000  Uiso   1.00
H1371  H     0.56813   0.41135   0.96337   0.00000  Uiso   1.00
H1372  H     0.51686   0.49576   0.90388   0.00000  Uiso   1.00
H1373  H     0.40126   0.58727   0.54836   0.00000  Uiso   1.00
H1374  H     0.39409   0.55995   0.59185   0.00000  Uiso   1.00
H1375  H     0.34863   0.57510   0.58065   0.00000  Uiso   1.00
O1376  O     0.50000   0.50000   0.75000   0.00000  Uiso   1.00
O1377  O     0.49027   0.45726   0.66625   0.00000  Uiso   1.00
O1378  O     0.46020   0.53979   0.83749   0.00000  Uiso   1.00
O1379  O     0.54421   0.50826   0.65877   0.00000  Uiso   1.00
O1380  O     0.50532   0.49468   0.83749   0.00000  Uiso   1.00
O1381  O     0.37454   0.52455   0.54491   0.00000  Uiso   1.00
O1382  O     0.59576   0.40203   0.51884   0.00000  Uiso   1.00
O1383  O     0.64421   0.47771   0.79907   0.00000  Uiso   1.00
O1384  O     0.48583   0.52111   0.59981   0.00000  Uiso   1.00
O1385  O     0.36937   0.55200   0.98242   0.00000  Uiso   1.00
O1386  O     0.40404   0.56213   0.90329   0.00000  Uiso   1.00
O1387  O     0.51182   0.41434   0.77820   0.00000  Uiso   1.00
O1388  O     0.41864   0.48563   0.58151   0.00000  Uiso   1.00
O1389  O     0.52559   0.43295   0.92039   0.00000  Uiso   1.00
O1390  O     0.47914   0.59469   0.76767   0.00000  Uiso   1.00
O1391  O     0.40785   0.46584   0.73607   0.00000  Uiso   1.00
O1392  O     0.60119   0.52512   0.71805   0.00000  Uiso   1.00
O1393  O     0.40323   0.52293   0.77820   0.00000  Uiso   1.00
O1394  O     0.58773   0.48610   0.76767   0.00000  Uiso   1.00
O1395  O     0.47133   0.40236   0.73607   0.00000  Uiso   1.00
O1396  O     0.53771   0.58860   0.71805   0.00000  Uiso   1.00
Zn1397 Zn    0.52577   0.47423   0.78277   0.00000  Uiso   1.00
Zn1398 Zn    0.46792   0.45711   0.72257   0.00000  Uiso   1.00
Zn1399 Zn    0.54500   0.52997   0.71188   0.00000  Uiso   1.00
Zn1400 Zn    0.46131   0.53868   0.78277   0.00000  Uiso   1.00
C1401  C     0.71940   0.49361   0.75849   0.00000  Uiso   1.00
C1402  C     0.85418   0.44841   0.95963   0.00000  Uiso   1.00
C1403  C     0.87832   0.43266   0.97991   0.00000  Uiso   1.00
C1404  C     0.94766   0.50665   0.74140   0.00000  Uiso   1.00
C1405  C     0.87317   0.44422   0.52041   0.00000  Uiso   1.00
C1406  C     0.84123   0.47072   0.54152   0.00000  Uiso   1.00
C1407  C     0.89953   0.42962   0.53996   0.00000  Uiso   1.00
C1408  C     0.89226   0.44037   0.58106   0.00000  Uiso   1.00
C1409  C     0.84055   0.48686   0.58096   0.00000  Uiso   1.00
C1410  C     0.99336   0.50708   0.73768   0.00000  Uiso   1.00
C1411  C     0.67343   0.49051   0.76421   0.00000  Uiso   1.00
C1412  C     0.75885   0.54134   0.92193   0.00000  Uiso   1.00
C1413  C     0.84732   0.65545   0.73804   0.00000  Uiso   1.00
C1414  C     0.81831   0.34547   0.76247   0.00000  Uiso   1.00
C1415  C     0.82251   0.38944   0.75909   0.00000  Uiso   1.00
C1416  C     0.84348   0.61100   0.74135   0.00000  Uiso   1.00
C1417  C     0.85482   0.47856   0.64393   0.00000  Uiso   1.00
C1418  C     0.81168   0.52075   0.85652   0.00000  Uiso   1.00
C1419  C     0.79682   0.52365   0.90035   0.00000  Uiso   1.00
C1420  C     0.86345   0.46912   0.60111   0.00000  Uiso   1.00
C1421  C     0.74102   0.53581   0.96232   0.00000  Uiso   1.00
C1422  C     0.71384   0.56338   0.56724   0.00000  Uiso   1.00
C1423  C     0.81881   0.50453   0.92030   0.00000  Uiso   1.00
C1424  C     0.96876   0.41186   0.52845   0.00000  Uiso   1.00
C1425  C     0.99403   0.44981   0.81667   0.00000  Uiso   1.00
C1426  C     0.84604   0.55782   0.58789   0.00000  Uiso   1.00
C1427  C     0.82569   0.59573   0.61235   0.00000  Uiso   1.00
C1428  C     0.66804   0.52392   0.97458   0.00000  Uiso   1.00
C1429  C     0.95927   0.53721   0.50239   0.00000  Uiso   1.00
C1430  C     0.75090   0.60532   0.90834   0.00000  Uiso   1.00
C1431  C     0.73398   0.44346   0.58134   0.00000  Uiso   1.00
C1432  C     0.82669   0.39924   0.91847   0.00000  Uiso   1.00
C1433  C     0.82903   0.38468   0.87526   0.00000  Uiso   1.00
C1434  C     0.80191   0.49844   0.96061   0.00000  Uiso   1.00
C1435  C     0.76334   0.51590   0.98239   0.00000  Uiso   1.00
C1436  C     0.82359   0.47680   0.98006   0.00000  Uiso   1.00
C1437  C     0.81254   0.48176   0.52196   0.00000  Uiso   1.00
C1438  C     0.77137   0.49411   0.54277   0.00000  Uiso   1.00
C1439  C     0.74777   0.51255   0.52354   0.00000  Uiso   1.00
H1440  H     0.68319   0.52041   0.71243   0.00000  Uiso   1.00
H1441  H     0.96784   0.39670   0.55492   0.00000  Uiso   1.00
H1442  H     0.97799   0.44620   0.53311   0.00000  Uiso   1.00
H1443  H     0.99440   0.39900   0.50340   0.00000  Uiso   1.00
H1444  H     0.68594   0.46650   0.83040   0.00000  Uiso   1.00
H1445  H     0.67322   0.42320   0.79496   0.00000  Uiso   1.00
H1446  H     0.96745   0.43657   0.84068   0.00000  Uiso   1.00
H1447  H     0.84989   0.56051   0.55604   0.00000  Uiso   1.00
H1448  H     0.87843   0.55831   0.59271   0.00000  Uiso   1.00
H1449  H     0.82168   0.59396   0.64431   0.00000  Uiso   1.00
H1450  H     0.84667   0.62478   0.60333   0.00000  Uiso   1.00
H1451  H     0.87399   0.33596   0.71553   0.00000  Uiso   1.00
H1452  H     0.79372   0.59691   0.60760   0.00000  Uiso   1.00
H1453  H     0.67059   0.49129   0.97936   0.00000  Uiso   1.00
H1454  H     0.66684   0.52437   0.94360   0.00000  Uiso   1.00
H1455  H     0.95625   0.57011   0.99930   0.00000  Uiso   1.00
H1456  H     0.93170   0.51684   0.99497   0.00000  Uiso   1.00
H1457  H     0.95818   0.53449   0.53357   0.00000  Uiso   1.00
H1458  H     0.74152   0.61795   0.94013   0.00000  Uiso   1.00
H1459  H     0.78629   0.61210   0.89550   0.00000  Uiso   1.00
H1460  H     0.73477   0.62200   0.89239   0.00000  Uiso   1.00
H1461  H     0.75935   0.42182   0.56987   0.00000  Uiso   1.00
H1462  H     0.79138   0.66580   0.78522   0.00000  Uiso   1.00
H1463  H     0.70995   0.43683   0.56386   0.00000  Uiso   1.00
H1464  H     0.71695   0.43722   0.61227   0.00000  Uiso   1.00
H1465  H     0.79384   0.40868   0.93325   0.00000  Uiso   1.00
H1466  H     0.83176   0.37254   0.93257   0.00000  Uiso   1.00
H1467  H     0.86129   0.37470   0.85949   0.00000  Uiso   1.00
H1468  H     0.80415   0.35786   0.87330   0.00000  Uiso   1.00
H1469  H     0.82317   0.41057   0.86075   0.00000  Uiso   1.00
H1470  H     0.90915   0.42664   0.59751   0.00000  Uiso   1.00
H1471  H     0.90146   0.41135   0.96337   0.00000  Uiso   1.00
H1472  H     0.85019   0.49576   0.90388   0.00000  Uiso   1.00
H1473  H     0.73459   0.58727   0.54836   0.00000  Uiso   1.00
H1474  H     0.72743   0.55995   0.59185   0.00000  Uiso   1.00
H1475  H     0.68196   0.57510   0.58065   0.00000  Uiso   1.00
O1476  O     0.83333   0.50000   0.75000   0.00000  Uiso   1.00
O1477  O     0.82360   0.45726   0.66625   0.00000  Uiso   1.00
O1478  O     0.79354   0.53979   0.83749   0.00000  Uiso   1.00
O1479  O     0.87755   0.50826   0.65877   0.00000  Uiso   1.00
O1480  O     0.83865   0.49468   0.83749   0.00000  Uiso   1.00
O1481  O     0.70787   0.52455   0.54491   0.00000  Uiso   1.00
O1482  O     0.92909   0.40203   0.51884   0.00000  Uiso   1.00
O1483  O     0.97754   0.47771   0.79907   0.00000  Uiso   1.00
O1484  O     0.81917   0.52111   0.59981   0.00000  Uiso   1.00
O1485  O     0.70271   0.55200   0.98242   0.00000  Uiso   1.00
O1486  O     0.73738   0.56213   0.90329   0.00000  Uiso   1.00
O1487  O     0.84515   0.41434   0.77820   0.00000  Uiso   1.00
O1488  O     0.75197   0.48563   0.58151   0.00000  Uiso   1.00
O1489  O     0.85892   0.43295   0.92039   0.00000  Uiso   1.00
O1490  O     0.81247   0.59469   0.76767   0.00000  Uiso   1.00
O1491  O     0.74119   0.46584   0.73607   0.00000  Uiso   1.00
O1492  O     0.93452   0.52512   0.71805   0.00000  Uiso   1.00
O1493  O     0.73656   0.52293   0.77820   0.00000  Uiso   1.00
O1494  O     0.92106   0.48610   0.76767   0.00000  Uiso   1.00
O1495  O     0.80467   0.40236   0.73607   0.00000  Uiso   1.00
O1496  O     0.87104   0.58860   0.71805   0.00000  Uiso   1.00
Zn1497 Zn    0.85910   0.47423   0.78277   0.00000  Uiso   1.00
Zn1498 Zn    0.80125   0.45711   0.72257   0.00000  Uiso   1.00
Zn1499 Zn    0.87833   0.52997   0.71188   0.00000  Uiso   1.00
Zn1500 Zn    0.79465   0.53868   0.78277   0.00000  Uiso   1.00
C1501  C     0.05273   0.82694   0.75849   0.00000  Uiso   1.00
C1502  C     0.18751   0.78174   0.95963   0.00000  Uiso   1.00
C1503  C     0.21166   0.76599   0.97991   0.00000  Uiso   1.00
C1504  C     0.28100   0.83999   0.74140   0.00000  Uiso   1.00
C1505  C     0.20650   0.77755   0.52041   0.00000  Uiso   1.00
C1506  C     0.17457   0.80406   0.54152   0.00000  Uiso   1.00
C1507  C     0.23286   0.76296   0.53996   0.00000  Uiso   1.00
C1508  C     0.22560   0.77370   0.58106   0.00000  Uiso   1.00
C1509  C     0.17388   0.82019   0.58096   0.00000  Uiso   1.00
C1510  C     0.32669   0.84041   0.73768   0.00000  Uiso   1.00
C1511  C     0.00677   0.82384   0.76421   0.00000  Uiso   1.00
C1512  C     0.09218   0.87467   0.92193   0.00000  Uiso   1.00
C1513  C     0.18066   0.98879   0.73804   0.00000  Uiso   1.00
C1514  C     0.15164   0.67880   0.76247   0.00000  Uiso   1.00
C1515  C     0.15584   0.72277   0.75909   0.00000  Uiso   1.00
C1516  C     0.17681   0.94433   0.74135   0.00000  Uiso   1.00
C1517  C     0.18815   0.81189   0.64393   0.00000  Uiso   1.00
C1518  C     0.14501   0.85408   0.85652   0.00000  Uiso   1.00
C1519  C     0.13015   0.85698   0.90035   0.00000  Uiso   1.00
C1520  C     0.19679   0.80245   0.60111   0.00000  Uiso   1.00
C1521  C     0.07435   0.86914   0.96232   0.00000  Uiso   1.00
C1522  C     0.04717   0.89671   0.56724   0.00000  Uiso   1.00
C1523  C     0.15215   0.83787   0.92030   0.00000  Uiso   1.00
C1524  C     0.30209   0.74519   0.52845   0.00000  Uiso   1.00
C1525  C     0.32736   0.78315   0.81667   0.00000  Uiso   1.00
C1526  C     0.17937   0.89115   0.58789   0.00000  Uiso   1.00
C1527  C     0.15902   0.92906   0.61235   0.00000  Uiso   1.00
C1528  C     0.00138   0.85725   0.97458   0.00000  Uiso   1.00
C1529  C     0.29260   0.87055   0.50239   0.00000  Uiso   1.00
C1530  C     0.08423   0.93865   0.90834   0.00000  Uiso   1.00
C1531  C     0.06731   0.77679   0.58134   0.00000  Uiso   1.00
C1532  C     0.16003   0.73258   0.91847   0.00000  Uiso   1.00
C1533  C     0.16236   0.71801   0.87526   0.00000  Uiso   1.00
C1534  C     0.13525   0.83177   0.96061   0.00000  Uiso   1.00
C1535  C     0.09667   0.84924   0.98239   0.00000  Uiso   1.00
C1536  C     0.15692   0.81013   0.98006   0.00000  Uiso   1.00
C1537  C     0.14587   0.81510   0.52196   0.00000  Uiso   1.00
C1538  C     0.10471   0.82744   0.54277   0.00000  Uiso   1.00
C1539  C     0.08111   0.84589   0.52354   0.00000  Uiso   1.00
H1540  H     0.01652   0.85374   0.71243   0.00000  Uiso   1.00
H1541  H     0.30117   0.73003   0.55492   0.00000  Uiso   1.00
H1542  H     0.31132   0.77954   0.53311   0.00000  Uiso   1.00
H1543  H     0.32773   0.73234   0.50340   0.00000  Uiso   1.00
H1544  H     0.01927   0.79983   0.83040   0.00000  Uiso   1.00
H1545  H     0.00656   0.75654   0.79496   0.00000  Uiso   1.00
H1546  H     0.30078   0.76990   0.84068   0.00000  Uiso   1.00
H1547  H     0.18322   0.89384   0.55604   0.00000  Uiso   1.00
H1548  H     0.21177   0.89164   0.59271   0.00000  Uiso   1.00
H1549  H     0.15501   0.92729   0.64431   0.00000  Uiso   1.00
H1550  H     0.18001   0.95811   0.60333   0.00000  Uiso   1.00
H1551  H     0.20732   0.66929   0.71553   0.00000  Uiso   1.00
H1552  H     0.12706   0.93024   0.60760   0.00000  Uiso   1.00
H1553  H     0.00392   0.82462   0.97936   0.00000  Uiso   1.00
H1554  H     0.00017   0.85770   0.94360   0.00000  Uiso   1.00
H1555  H     0.28959   0.90345   0.99930   0.00000  Uiso   1.00
H1556  H     0.26504   0.85017   0.99497   0.00000  Uiso   1.00
H1557  H     0.29152   0.86782   0.53357   0.00000  Uiso   1.00
H1558  H     0.07485   0.95128   0.94013   0.00000  Uiso   1.00
H1559  H     0.11962   0.94544   0.89550   0.00000  Uiso   1.00
H1560  H     0.06810   0.95534   0.89239   0.00000  Uiso   1.00
H1561  H     0.09268   0.75515   0.56987   0.00000  Uiso   1.00
H1562  H     0.12472   0.99913   0.78522   0.00000  Uiso   1.00
H1563  H     0.04328   0.77016   0.56386   0.00000  Uiso   1.00
H1564  H     0.05028   0.77056   0.61227   0.00000  Uiso   1.00
H1565  H     0.12718   0.74202   0.93325   0.00000  Uiso   1.00
H1566  H     0.16510   0.70587   0.93257   0.00000  Uiso   1.00
H1567  H     0.19462   0.70804   0.85949   0.00000  Uiso   1.00
H1568  H     0.13749   0.69119   0.87330   0.00000  Uiso   1.00
H1569  H     0.15651   0.74390   0.86075   0.00000  Uiso   1.00
H1570  H     0.24249   0.75997   0.59751   0.00000  Uiso   1.00
H1571  H     0.23479   0.74469   0.96337   0.00000  Uiso   1.00
H1572  H     0.18352   0.82909   0.90388   0.00000  Uiso   1.00
H1573  H     0.06792   0.92060   0.54836   0.00000  Uiso   1.00
H1574  H     0.06076   0.89329   0.59185   0.00000  Uiso   1.00
H1575  H     0.01530   0.90843   0.58065   0.00000  Uiso   1.00
O1576  O     0.16667   0.83333   0.75000   0.00000  Uiso   1.00
O1577  O     0.15693   0.79060   0.66625   0.00000  Uiso   1.00
O1578  O     0.12687   0.87313   0.83749   0.00000  Uiso   1.00
O1579  O     0.21088   0.84159   0.65877   0.00000  Uiso   1.00
O1580  O     0.17198   0.82802   0.83749   0.00000  Uiso   1.00
O1581  O     0.04120   0.85789   0.54491   0.00000  Uiso   1.00
O1582  O     0.26242   0.73536   0.51884   0.00000  Uiso   1.00
O1583  O     0.31087   0.81105   0.79907   0.00000  Uiso   1.00
O1584  O     0.15250   0.85444   0.59981   0.00000  Uiso   1.00
O1585  O     0.03604   0.88534   0.98242   0.00000  Uiso   1.00
O1586  O     0.07071   0.89547   0.90329   0.00000  Uiso   1.00
O1587  O     0.17849   0.74768   0.77820   0.00000  Uiso   1.00
O1588  O     0.08531   0.81896   0.58151   0.00000  Uiso   1.00
O1589  O     0.19226   0.76628   0.92039   0.00000  Uiso   1.00
O1590  O     0.14581   0.92803   0.76767   0.00000  Uiso   1.00
O1591  O     0.07452   0.79917   0.73607   0.00000  Uiso   1.00
O1592  O     0.26785   0.85845   0.71805   0.00000  Uiso   1.00
O1593  O     0.06990   0.85627   0.77820   0.00000  Uiso   1.00
O1594  O     0.25440   0.81944   0.76767   0.00000  Uiso   1.00
O1595  O     0.13800   0.73570   0.73607   0.00000  Uiso   1.00
O1596  O     0.20437   0.92193   0.71805   0.00000  Uiso   1.00
Zn1597 Zn    0.19244   0.80756   0.78277   0.00000  Uiso   1.00
Zn1598 Zn    0.13459   0.79044   0.72257   0.00000  Uiso   1.00
Zn1599 Zn    0.21166   0.86331   0.71188   0.00000  Uiso   1.00
Zn1600 Zn    0.12798   0.87202   0.78277   0.00000  Uiso   1.00
C1601  C     0.38606   0.82694   0.75849   0.00000  Uiso   1.00
C1602  C     0.52084   0.78174   0.95963   0.00000  Uiso   1.00
C1603  C     0.54499   0.76599   0.97991   0.00000  Uiso   1.00
C1604  C     0.61433   0.83999   0.74140   0.00000  Uiso   1.00
C1605  C     0.53983   0.77755   0.52041   0.00000  Uiso   1.00
C1606  C     0.50790   0.80406   0.54152   0.00000  Uiso   1.00
C1607  C     0.56619   0.76296   0.53996   0.00000  Uiso   1.00
C1608  C     0.55893   0.77370   0.58106   0.00000  Uiso   1.00
C1609  C     0.50721   0.82019   0.58096   0.00000  Uiso   1.00
C1610  C     0.66002   0.84041   0.73768   0.00000  Uiso   1.00
C1611  C     0.34010   0.82384   0.76421   0.00000  Uiso   1.00
C1612  C     0.42552   0.87467   0.92193   0.00000  Uiso   1.00
C1613  C     0.51399   0.98879   0.73804   0.00000  Uiso   1.00
C1614  C     0.48498   0.67880   0.76247   0.00000  Uiso   1.00
C1615  C     0.48918   0.72277   0.75909   0.00000  Uiso   1.00
C1616  C     0.51015   0.94433   0.74135   0.00000  Uiso   1.00
C1617  C     0.52148   0.81189   0.64393   0.00000  Uiso   1.00
C1618  C     0.47835   0.85408   0.85652   0.00000  Uiso   1.00
C1619  C     0.46348   0.85698   0.90035   0.00000  Uiso   1.00
C1620  C     0.53012   0.80245   0.60111   0.00000  Uiso   1.00
C1621  C     0.40768   0.86914   0.96232   0.00000  Uiso   1.00
C1622  C     0.38050   0.89671   0.56724   0.00000  Uiso   1.00
C1623  C     0.48548   0.83787   0.92030   0.00000  Uiso   1.00
C1624  C     0.63543   0.74519   0.52845   0.00000  Uiso   1.00
C1625  C     0.66069   0.78315   0.81667   0.00000  Uiso   1.00
C1626  C     0.51270   0.89115   0.58789   0.00000  Uiso   1.00
C1627  C     0.49236   0.92906   0.61235   0.00000  Uiso   1.00
C1628  C     0.33471   0.85725   0.97458   0.00000  Uiso   1.00
C1629  C     0.62594   0.87055   0.50239   0.00000  Uiso   1.00
C1630  C     0.41757   0.93865   0.90834   0.00000  Uiso   1.00
C1631  C     0.40065   0.77679   0.58134   0.00000  Uiso   1.00
C1632  C     0.49336   0.73258   0.91847   0.00000  Uiso   1.00
C1633  C     0.49570   0.71801   0.87526   0.00000  Uiso   1.00
C1634  C     0.46858   0.83177   0.96061   0.00000  Uiso   1.00
C1635  C     0.43000   0.84924   0.98239   0.00000  Uiso   1.00
C1636  C     0.49026   0.81013   0.98006   0.00000  Uiso   1.00
C1637  C     0.47920   0.81510   0.52196   0.00000  Uiso   1.00
C1638  C     0.43804   0.82744   0.54277   0.00000  Uiso   1.00
C1639  C     0.41444   0.84589   0.52354   0.00000  Uiso   1.00
H1640  H     0.34986   0.85374   0.71243   0.00000  Uiso   1.00
H1641  H     0.63450   0.73003   0.55492   0.00000  Uiso   1.00
H1642  H     0.64465   0.77954   0.53311   0.00000  Uiso   1.00
H1643  H     0.66106   0.73234   0.50340   0.00000  Uiso   1.00
H1644  H     0.35261   0.79983   0.83040   0.00000  Uiso   1.00
H1645  H     0.33989   0.75654   0.79496   0.00000  Uiso   1.00
H1646  H     0.63411   0.76990   0.84068   0.00000  Uiso   1.00
H1647  H     0.51655   0.89384   0.55604   0.00000  Uiso   1.00
H1648  H     0.54510   0.89164   0.59271   0.00000  Uiso   1.00
H1649  H     0.48834   0.92729   0.64431   0.00000  Uiso   1.00
H1650  H     0.51334   0.95811   0.60333   0.00000  Uiso   1.00
H1651  H     0.54066   0.66929   0.71553   0.00000  Uiso   1.00
H1652  H     0.46039   0.93024   0.60760   0.00000  Uiso   1.00
H1653  H     0.33725   0.82462   0.97936   0.00000  Uiso   1.00
H1654  H     0.33350   0.85770   0.94360   0.00000  Uiso   1.00
H1655  H     0.62292   0.90345   0.99930   0.00000  Uiso   1.00
H1656  H     0.59837   0.85017   0.99497   0.00000  Uiso   1.00
H1657  H     0.62485   0.86782   0.53357   0.00000  Uiso   1.00
H1658  H     0.40819   0.95128   0.94013   0.00000  Uiso   1.00
H1659  H     0.45296   0.94544   0.89550   0.00000  Uiso   1.00
H1660  H     0.40143   0.95534   0.89239   0.00000  Uiso   1.00
H1661  H     0.42602   0.75515   0.56987   0.00000  Uiso   1.00
H1662  H     0.45805   0.99913   0.78522   0.00000  Uiso   1.00
H1663  H     0.37661   0.77016   0.56386   0.00000  Uiso   1.00
H1664  H     0.38361   0.77056   0.61227   0.00000  Uiso   1.00
H1665  H     0.46051   0.74202   0.93325   0.00000  Uiso   1.00
H1666  H     0.49843   0.70587   0.93257   0.00000  Uiso   1.00
H1667  H     0.52796   0.70804   0.85949   0.00000  Uiso   1.00
H1668  H     0.47082   0.69119   0.87330   0.00000  Uiso   1.00
H1669  H     0.48984   0.74390   0.86075   0.00000  Uiso   1.00
H1670  H     0.57582   0.75997   0.59751   0.00000  Uiso   1.00
H1671  H     0.56813   0.74469   0.96337   0.00000  Uiso   1.00
H1672  H     0.51686   0.82909   0.90388   0.00000  Uiso   1.00
H1673  H     0.40126   0.92060   0.54836   0.00000  Uiso   1.00
H1674  H     0.39409   0.89329   0.59185   0.00000  Uiso   1.00
H1675  H     0.34863   0.90843   0.58065   0.00000  Uiso   1.00
O1676  O     0.50000   0.83333   0.75000   0.00000  Uiso   1.00
O1677  O     0.49027   0.79060   0.66625   0.00000  Uiso   1.00
O1678  O     0.46020   0.87313   0.83749   0.00000  Uiso   1.00
O1679  O     0.54421   0.84159   0.65877   0.00000  Uiso   1.00
O1680  O     0.50532   0.82802   0.83749   0.00000  Uiso   1.00
O1681  O     0.37454   0.85789   0.54491   0.00000  Uiso   1.00
O1682  O     0.59576   0.73536   0.51884   0.00000  Uiso   1.00
O1683  O     0.64421   0.81105   0.79907   0.00000  Uiso   1.00
O1684  O     0.48583   0.85444   0.59981   0.00000  Uiso   1.00
O1685  O     0.36937   0.88534   0.98242   0.00000  Uiso   1.00
O1686  O     0.40404   0.89547   0.90329   0.00000  Uiso   1.00
O1687  O     0.51182   0.74768   0.77820   0.00000  Uiso   1.00
O1688  O     0.41864   0.81896   0.58151   0.00000  Uiso   1.00
O1689  O     0.52559   0.76628   0.92039   0.00000  Uiso   1.00
O1690  O     0.47914   0.92803   0.76767   0.00000  Uiso   1.00
O1691  O     0.40785   0.79917   0.73607   0.00000  Uiso   1.00
O1692  O     0.60119   0.85845   0.71805   0.00000  Uiso   1.00
O1693  O     0.40323   0.85627   0.77820   0.00000  Uiso   1.00
O1694  O     0.58773   0.81944   0.76767   0.00000  Uiso   1.00
O1695  O     0.47133   0.73570   0.73607   0.00000  Uiso   1.00
O1696  O     0.53771   0.92193   0.71805   0.00000  Uiso   1.00
Zn1697 Zn    0.52577   0.80756   0.78277   0.00000  Uiso   1.00
Zn1698 Zn    0.46792   0.79044   0.72257   0.00000  Uiso   1.00
Zn1699 Zn    0.54500   0.86331   0.71188   0.00000  Uiso   1.00
Zn1700 Zn    0.46131   0.87202   0.78277   0.00000  Uiso   1.00
C1701  C     0.71940   0.82694   0.75849   0.00000  Uiso   1.00
C1702  C     0.85418   0.78174   0.95963   0.00000  Uiso   1.00
C1703  C     0.87832   0.76599   0.97991   0.00000  Uiso   1.00
C1704  C     0.94766   0.83999   0.74140   0.00000  Uiso   1.00
C1705  C     0.87317   0.77755   0.52041   0.00000  Uiso   1.00
C1706  C     0.84123   0.80406   0.54152   0.00000  Uiso   1.00
C1707  C     0.89953   0.76296   0.53996   0.00000  Uiso   1.00
C1708  C     0.89226   0.77370   0.58106   0.00000  Uiso   1.00
C1709  C     0.84055   0.82019   0.58096   0.00000  Uiso   1.00
C1710  C     0.99336   0.84041   0.73768   0.00000  Uiso   1.00
C1711  C     0.67343   0.82384   0.76421   0.00000  Uiso   1.00
C1712  C     0.75885   0.87467   0.92193   0.00000  Uiso   1.00
C1713  C     0.84732   0.98879   0.73804   0.00000  Uiso   1.00
C1714  C     0.81831   0.67880   0.76247   0.00000  Uiso   1.00
C1715  C     0.82251   0.72277   0.75909   0.00000  Uiso   1.00
C1716  C     0.84348   0.94433   0.74135   0.00000  Uiso   1.00
C1717  C     0.85482   0.81189   0.64393   0.00000  Uiso   1.00
C1718  C     0.81168   0.85408   0.85652   0.00000  Uiso   1.00
C1719  C     0.79682   0.85698   0.90035   0.00000  Uiso   1.00
C1720  C     0.86345   0.80245   0.60111   0.00000  Uiso   1.00
C1721  C     0.74102   0.86914   0.96232   0.00000  Uiso   1.00
C1722  C     0.71384   0.89671   0.56724   0.00000  Uiso   1.00
C1723  C     0.81881   0.83787   0.92030   0.00000  Uiso   1.00
C1724  C     0.96876   0.74519   0.52845   0.00000  Uiso   1.00
C1725  C     0.99403   0.78315   0.81667   0.00000  Uiso   1.00
C1726  C     0.84604   0.89115   0.58789   0.00000  Uiso   1.00
C1727  C     0.82569   0.92906   0.61235   0.00000  Uiso   1.00
C1728  C     0.66804   0.85725   0.97458   0.00000  Uiso   1.00
C1729  C     0.95927   0.87055   0.50239   0.00000  Uiso   1.00
C1730  C     0.75090   0.93865   0.90834   0.00000  Uiso   1.00
C1731  C     0.73398   0.77679   0.58134   0.00000  Uiso   1.00
C1732  C     0.82669   0.73258   0.91847   0.00000  Uiso   1.00
C1733  C     0.82903   0.71801   0.87526   0.00000  Uiso   1.00
C1734  C     0.80191   0.83177   0.96061   0.00000  Uiso   1.00
C1735  C     0.76334   0.84924   0.98239   0.00000  Uiso   1.00
C1736  C     0.82359   0.81013   0.98006   0.00000  Uiso   1.00
C1737  C     0.81254   0.81510   0.52196   0.00000  Uiso   1.00
C1738  C     0.77137   0.82744   0.54277   0.00000  Uiso   1.00
C1739  C     0.74777   0.84589   0.52354   0.00000  Uiso   1.00
H1740  H     0.68319   0.85374   0.71243   0.00000  Uiso   1.00
H1741  H     0.96784   0.73003   0.55492   0.00000  Uiso   1.00
H1742  H     0.97799   0.77954   0.53311   0.00000  Uiso   1.00
H1743  H     0.99440   0.73234   0.50340   0.00000  Uiso   1.00
H1744  H     0.68594   0.79983   0.83040   0.00000  Uiso   1.00
H1745  H     0.67322   0.75654   0.79496   0.00000  Uiso   1.00
H1746  H     0.96745   0.76990   0.84068   0.00000  Uiso   1.00
H1747  H     0.84989   0.89384   0.55604   0.00000  Uiso   1.00
H1748  H     0.87843   0.89164   0.59271   0.00000  Uiso   1.00
H1749  H     0.82168   0.92729   0.64431   0.00000  Uiso   1.00
H1750  H     0.84667   0.95811   0.60333   0.00000  Uiso   1.00
H1751  H     0.87399   0.66929   0.71553   0.00000  Uiso   1.00
H1752  H     0.79372   0.93024   0.60760   0.00000  Uiso   1.00
H1753  H     0.67059   0.82462   0.97936   0.00000  Uiso   1.00
H1754  H     0.66684   0.85770   0.94360   0.00000  Uiso   1.00
H1755  H     0.95625   0.90345   0.99930   0.00000  Uiso   1.00
H1756  H     0.93170   0.85017   0.99497   0.00000  Uiso   1.00
H1757  H     0.95818   0.86782   0.53357   0.00000  Uiso   1.00
H1758  H     0.74152   0.95128   0.94013   0.00000  Uiso   1.00
H1759  H     0.78629   0.94544   0.89550   0.00000  Uiso   1.00
H1760  H     0.73477   0.95534   0.89239   0.00000  Uiso   1.00
H1761  H     0.75935   0.75515   0.56987   0.00000  Uiso   1.00
H1762  H     0.79138   0.99913   0.78522   0.00000  Uiso   1.00
H1763  H     0.70995   0.77016   0.56386   0.00000  Uiso   1.00
H1764  H     0.71695   0.77056   0.61227   0.00000  Uiso   1.00
H1765  H     0.79384   0.74202   0.93325   0.00000  Uiso   1.00
H1766  H     0.83176   0.70587   0.93257   0.00000  Uiso   1.00
H1767  H     0.86129   0.70804   0.85949   0.00000  Uiso   1.00
H1768  H     0.80415   0.69119   0.87330   0.00000  Uiso   1.00
H1769  H     0.82317   0.74390   0.86075   0.00000  Uiso   1.00
H1770  H     0.90915   0.75997   0.59751   0.00000  Uiso   1.00
H1771  H     0.90146   0.74469   0.96337   0.00000  Uiso   1.00
H1772  H     0.85019   0.82909   0.90388   0.00000  Uiso   1.00
H1773  H     0.73459   0.92060   0.54836   0.00000  Uiso   1.00
H1774  H     0.72743   0.89329   0.59185   0.00000  Uiso   1.00
H1775  H     0.68196   0.90843   0.58065   0.00000  Uiso   1.00
O1776  O     0.83333   0.83333   0.75000   0.00000  Uiso   1.00
O1777  O     0.82360   0.79060   0.66625   0.00000  Uiso   1.00
O1778  O     0.79354   0.87313   0.83749   0.00000  Uiso   1.00
O1779  O     0.87755   0.84159   0.65877   0.00000  Uiso   1.00
O1780  O     0.83865   0.82802   0.83749   0.00000  Uiso   1.00
O1781  O     0.70787   0.85789   0.54491   0.00000  Uiso   1.00
O1782  O     0.92909   0.73536   0.51884   0.00000  Uiso   1.00
O1783  O     0.97754   0.81105   0.79907   0.00000  Uiso   1.00
O1784  O     0.81917   0.85444   0.59981   0.00000  Uiso   1.00
O1785  O     0.70271   0.88534   0.98242   0.00000  Uiso   1.00
O1786  O     0.73738   0.89547   0.90329   0.00000  Uiso   1.00
O1787  O     0.84515   0.74768   0.77820   0.00000  Uiso   1.00
O1788  O     0.75197   0.81896   0.58151   0.00000  Uiso   1.00
O1789  O     0.85892   0.76628   0.92039   0.00000  Uiso   1.00
O1790  O     0.81247   0.92803   0.76767   0.00000  Uiso   1.00
O1791  O     0.74119   0.79917   0.73607   0.00000  Uiso   1.00
O1792  O     0.93452   0.85845   0.71805   0.00000  Uiso   1.00
O1793  O     0.73656   0.85627   0.77820   0.00000  Uiso   1.00
O1794  O     0.92106   0.81944   0.76767   0.00000  Uiso   1.00
O1795  O     0.80467   0.73570   0.73607   0.00000  Uiso   1.00
O1796  O     0.87104   0.92193   0.71805   0.00000  Uiso   1.00
Zn1797 Zn    0.85910   0.80756   0.78277   0.00000  Uiso   1.00
Zn1798 Zn    0.80125   0.79044   0.72257   0.00000  Uiso   1.00
Zn1799 Zn    0.87833   0.86331   0.71188   0.00000  Uiso   1.00
Zn1800 Zn    0.79465   0.87202   0.78277   0.00000  Uiso   1.00
loop_
_geom_bond_atom_site_label_1
_geom_bond_atom_site_label_2
_geom_bond_distance
_geom_bond_site_symmetry_2
_ccdc_geom_bond_type
C1     C11     1.444   .     S
C1     O91     1.268   .     A
C1     O93     1.262   .     A
C2     O89     1.383   .     S
C2     C36     1.425   .     A
C2     C3      1.395   .     A
C3     H71     1.083   .     S
C3     C905    1.398   .     S
C4     O94     1.268   .     A
C4     C10     1.456   .     S
C4     O92     1.283   .     A
C5     C7      1.414   .     A
C5     C6      1.419   .     A
C5     C903    1.398   1_554 S
C6     C9      1.417   .     A
C6     C37     1.424   .     A
C7     C8      1.408   .     A
C7     O82     1.392   .     S
C8     C20     1.394   .     A
C8     H70     1.083   .     S
C9     C20     1.396   .     A
C9     O84     1.384   .     S
C10    C111    1.347   .     S
C10    H140    1.088   .     S
C11    C210    1.347   1_455 S
C11    O283    1.400   1_455 S
C12    C21     1.408   .     A
C12    O86     1.383   .     S
C12    C19     1.409   .     A
C13    C16     1.450   .     S
C13    C314    1.331   .     S
C13    H351    1.088   .     S
C14    C15     1.434   .     S
C14    C613    1.331   1_545 S
C14    H662    1.086   1_545 S
C15    O95     1.273   .     A
C15    O87     1.273   .     A
C16    O90     1.271   .     A
C16    O96     1.270   .     A
C17    O79     1.277   .     A
C17    C20     1.457   .     S
C17    O77     1.276   .     A
C18    C19     1.481   .     S
C18    O78     1.281   .     A
C18    O80     1.288   .     A
C19    C23     1.395   .     A
C21    O85     1.385   .     S
C21    C35     1.421   .     A
C22    H75     1.109   .     S
C22    O81     1.411   .     S
C22    H74     1.111   .     S
C22    H73     1.114   .     S
C23    C34     1.406   .     A
C23    H72     1.078   .     S
C24    H42     1.114   .     S
C24    O82     1.413   .     S
C24    H41     1.110   .     S
C24    H43     1.109   .     S
C25    O83     1.412   .     S
C25    H46     1.109   .     S
C25    H144    1.112   .     S
C25    H145    1.113   .     S
C26    C27     1.520   .     S
C26    H48     1.116   .     S
C26    H47     1.114   .     S
C26    O84     1.413   .     S
C27    H50     1.111   .     S
C27    H52     1.110   .     S
C27    H49     1.111   .     S
C28    H54     1.112   .     S
C28    H53     1.115   .     S
C28    O85     1.414   .     S
C28    C1129   1.522   1_455 S
C29    H57     1.111   .     S
C29    C1028   1.522   1_554 S
C29    H955    1.111   1_554 S
C29    H956    1.109   1_554 S
C30    H60     1.109   .     S
C30    O86     1.411   .     S
C30    H59     1.114   .     S
C30    H58     1.113   .     S
C31    H61     1.113   .     S
C31    H64     1.109   .     S
C31    H63     1.113   .     S
C31    O88     1.410   .     S
C32    O89     1.413   .     S
C32    H66     1.114   .     S
C32    C33     1.521   .     S
C32    H65     1.115   .     S
C33    H67     1.111   .     S
C33    H69     1.110   .     S
C33    H68     1.110   .     S
C34    C35     1.423   .     A
C34    C36     1.425   .     A
C35    C939    1.414   .     S
C36    C937    1.415   .     S
C37    C38     1.418   .     A
C37    C936    1.415   1_554 S
C38    C39     1.403   .     A
C38    O88     1.384   .     S
C39    O81     1.384   .     S
C39    C935    1.414   1_554 S
H40    C210    1.088   1_455 S
H44    C225    1.112   1_455 S
H45    C225    1.113   1_455 S
H51    C613    1.088   1_545 S
H55    C929    1.111   .     S
H56    C929    1.109   .     S
H62    C314    1.086   .     S
O76    Zn99    1.935   .     S
O76    Zn98    1.940   .     S
O76    Zn97    1.949   .     S
O76    Zn100   1.929   .     S
O77    Zn98    1.918   .     S
O78    Zn100   1.924   .     S
O79    Zn99    1.921   .     S
O80    Zn97    1.915   .     S
O83    C111    1.400   .     S
O87    Zn97    1.927   .     S
O90    Zn100   1.930   .     S
O91    Zn98    1.932   .     S
O92    Zn99    1.938   .     S
O93    Zn100   1.937   .     S
O94    Zn97    1.931   .     S
O95    Zn98    1.932   .     S
O96    Zn99    1.927   .     S
C101   C111    1.444   .     S
C101   O191    1.268   .     A
C101   O193    1.262   .     A
C102   O189    1.383   .     S
C102   C136    1.425   .     A
C102   C103    1.395   .     A
C103   H171    1.083   .     S
C103   C1005   1.398   .     S
C104   O194    1.268   .     A
C104   C110    1.456   .     S
C104   O192    1.283   .     A
C105   C107    1.414   .     A
C105   C106    1.419   .     A
C105   C1003   1.398   1_554 S
C106   C109    1.417   .     A
C106   C137    1.424   .     A
C107   C108    1.408   .     A
C107   O182    1.392   .     S
C108   C120    1.394   .     A
C108   H170    1.083   .     S
C109   C120    1.396   .     A
C109   O184    1.384   .     S
C110   C211    1.347   .     S
C110   H240    1.088   .     S
C112   C121    1.408   .     A
C112   O186    1.383   .     S
C112   C119    1.409   .     A
C113   C116    1.450   .     S
C113   C414    1.331   .     S
C113   H451    1.088   .     S
C114   C115    1.434   .     S
C114   C713    1.331   1_545 S
C114   H762    1.086   1_545 S
C115   O195    1.273   .     A
C115   O187    1.273   .     A
C116   O190    1.271   .     A
C116   O196    1.270   .     A
C117   O179    1.277   .     A
C117   C120    1.457   .     S
C117   O177    1.276   .     A
C118   C119    1.481   .     S
C118   O178    1.281   .     A
C118   O180    1.288   .     A
C119   C123    1.395   .     A
C121   O185    1.385   .     S
C121   C135    1.421   .     A
C122   H175    1.109   .     S
C122   O181    1.411   .     S
C122   H174    1.111   .     S
C122   H173    1.114   .     S
C123   C134    1.406   .     A
C123   H172    1.078   .     S
C124   H142    1.114   .     S
C124   O182    1.413   .     S
C124   H141    1.110   .     S
C124   H143    1.109   .     S
C125   O183    1.412   .     S
C125   H146    1.109   .     S
C125   H244    1.112   .     S
C125   H245    1.113   .     S
C126   C127    1.520   .     S
C126   H148    1.116   .     S
C126   H147    1.114   .     S
C126   O184    1.413   .     S
C127   H150    1.111   .     S
C127   H152    1.110   .     S
C127   H149    1.111   .     S
C128   H154    1.112   .     S
C128   H153    1.115   .     S
C128   O185    1.414   .     S
C128   C929    1.522   .     S
C129   H157    1.111   .     S
C129   C1128   1.522   1_554 S
C129   H1055   1.111   1_554 S
C129   H1056   1.109   1_554 S
C130   H160    1.109   .     S
C130   O186    1.411   .     S
C130   H159    1.114   .     S
C130   H158    1.113   .     S
C131   H161    1.113   .     S
C131   H164    1.109   .     S
C131   H163    1.113   .     S
C131   O188    1.410   .     S
C132   O189    1.413   .     S
C132   H166    1.114   .     S
C132   C133    1.521   .     S
C132   H165    1.115   .     S
C133   H167    1.111   .     S
C133   H169    1.110   .     S
C133   H168    1.110   .     S
C134   C135    1.423   .     A
C134   C136    1.425   .     A
C135   C1039   1.414   .     S
C136   C1037   1.415   .     S
C137   C138    1.418   .     A
C137   C1036   1.415   1_554 S
C138   C139    1.403   .     A
C138   O188    1.384   .     S
C139   O181    1.384   .     S
C139   C1035   1.414   1_554 S
H151   C713    1.088   1_545 S
H155   C1029   1.111   .     S
H156   C1029   1.109   .     S
H162   C414    1.086   .     S
O176   Zn199   1.935   .     S
O176   Zn198   1.940   .     S
O176   Zn197   1.949   .     S
O176   Zn200   1.929   .     S
O177   Zn198   1.918   .     S
O178   Zn200   1.924   .     S
O179   Zn199   1.921   .     S
O180   Zn197   1.915   .     S
O183   C211    1.400   .     S
O187   Zn197   1.927   .     S
O190   Zn200   1.930   .     S
O191   Zn198   1.932   .     S
O192   Zn199   1.938   .     S
O193   Zn200   1.937   .     S
O194   Zn197   1.931   .     S
O195   Zn198   1.932   .     S
O196   Zn199   1.927   .     S
C201   C211    1.444   .     S
C201   O291    1.268   .     A
C201   O293    1.262   .     A
C202   O289    1.383   .     S
C202   C236    1.425   .     A
C202   C203    1.395   .     A
C203   H271    1.083   .     S
C203   C1105   1.398   .     S
C204   O294    1.268   .     A
C204   C210    1.456   .     S
C204   O292    1.283   .     A
C205   C207    1.414   .     A
C205   C206    1.419   .     A
C205   C1103   1.398   1_554 S
C206   C209    1.417   .     A
C206   C237    1.424   .     A
C207   C208    1.408   .     A
C207   O282    1.392   .     S
C208   C220    1.394   .     A
C208   H270    1.083   .     S
C209   C220    1.396   .     A
C209   O284    1.384   .     S
C210   C11     1.347   1_655 S
C210   H40     1.088   1_655 S
C212   C221    1.408   .     A
C212   O286    1.383   .     S
C212   C219    1.409   .     A
C213   C216    1.450   .     S
C213   C514    1.331   .     S
C213   H551    1.088   .     S
C214   C215    1.434   .     S
C214   C813    1.331   1_545 S
C214   H862    1.086   1_545 S
C215   O295    1.273   .     A
C215   O287    1.273   .     A
C216   O290    1.271   .     A
C216   O296    1.270   .     A
C217   O279    1.277   .     A
C217   C220    1.457   .     S
C217   O277    1.276   .     A
C218   C219    1.481   .     S
C218   O278    1.281   .     A
C218   O280    1.288   .     A
C219   C223    1.395   .     A
C221   O285    1.385   .     S
C221   C235    1.421   .     A
C222   H275    1.109   .     S
C222   O281    1.411   .     S
C222   H274    1.111   .     S
C222   H273    1.114   .     S
C223   C234    1.406   .     A
C223   H272    1.078   .     S
C224   H242    1.114   .     S
C224   O282    1.413   .     S
C224   H241    1.110   .     S
C224   H243    1.109   .     S
C225   O283    1.412   .     S
C225   H246    1.109   .     S
C225   H44     1.112   1_655 S
C225   H45     1.113   1_655 S
C226   C227    1.520   .     S
C226   H248    1.116   .     S
C226   H247    1.114   .     S
C226   O284    1.413   .     S
C227   H250    1.111   .     S
C227   H252    1.110   .     S
C227   H249    1.111   .     S
C228   H254    1.112   .     S
C228   H253    1.115   .     S
C228   O285    1.414   .     S
C228   C1029   1.522   .     S
C229   H257    1.111   .     S
C229   C928    1.522   1_654 S
C229   H1155   1.111   1_554 S
C229   H1156   1.109   1_554 S
C230   H260    1.109   .     S
C230   O286    1.411   .     S
C230   H259    1.114   .     S
C230   H258    1.113   .     S
C231   H261    1.113   .     S
C231   H264    1.109   .     S
C231   H263    1.113   .     S
C231   O288    1.410   .     S
C232   O289    1.413   .     S
C232   H266    1.114   .     S
C232   C233    1.521   .     S
C232   H265    1.115   .     S
C233   H267    1.111   .     S
C233   H269    1.110   .     S
C233   H268    1.110   .     S
C234   C235    1.423   .     A
C234   C236    1.425   .     A
C235   C1139   1.414   .     S
C236   C1137   1.415   .     S
C237   C238    1.418   .     A
C237   C1136   1.415   1_554 S
C238   C239    1.403   .     A
C238   O288    1.384   .     S
C239   O281    1.384   .     S
C239   C1135   1.414   1_554 S
H251   C813    1.088   1_545 S
H255   C1129   1.111   .     S
H256   C1129   1.109   .     S
H262   C514    1.086   .     S
O276   Zn299   1.935   .     S
O276   Zn298   1.940   .     S
O276   Zn297   1.949   .     S
O276   Zn300   1.929   .     S
O277   Zn298   1.918   .     S
O278   Zn300   1.924   .     S
O279   Zn299   1.921   .     S
O280   Zn297   1.915   .     S
O283   C11     1.400   1_655 S
O287   Zn297   1.927   .     S
O290   Zn300   1.930   .     S
O291   Zn298   1.932   .     S
O292   Zn299   1.938   .     S
O293   Zn300   1.937   .     S
O294   Zn297   1.931   .     S
O295   Zn298   1.932   .     S
O296   Zn299   1.927   .     S
C301   C311    1.444   .     S
C301   O391    1.268   .     A
C301   O393    1.262   .     A
C302   O389    1.383   .     S
C302   C336    1.425   .     A
C302   C303    1.395   .     A
C303   H371    1.083   .     S
C303   C1205   1.398   .     S
C304   O394    1.268   .     A
C304   C310    1.456   .     S
C304   O392    1.283   .     A
C305   C307    1.414   .     A
C305   C306    1.419   .     A
C305   C1203   1.398   1_554 S
C306   C309    1.417   .     A
C306   C337    1.424   .     A
C307   C308    1.408   .     A
C307   O382    1.392   .     S
C308   C320    1.394   .     A
C308   H370    1.083   .     S
C309   C320    1.396   .     A
C309   O384    1.384   .     S
C310   C411    1.347   .     S
C310   H440    1.088   .     S
C311   C510    1.347   1_455 S
C311   O583    1.400   1_455 S
C312   C321    1.408   .     A
C312   O386    1.383   .     S
C312   C319    1.409   .     A
C313   C316    1.450   .     S
C313   C614    1.331   .     S
C313   H651    1.088   .     S
C314   C315    1.434   .     S
C315   O395    1.273   .     A
C315   O387    1.273   .     A
C316   O390    1.271   .     A
C316   O396    1.270   .     A
C317   O379    1.277   .     A
C317   C320    1.457   .     S
C317   O377    1.276   .     A
C318   C319    1.481   .     S
C318   O378    1.281   .     A
C318   O380    1.288   .     A
C319   C323    1.395   .     A
C321   O385    1.385   .     S
C321   C335    1.421   .     A
C322   H375    1.109   .     S
C322   O381    1.411   .     S
C322   H374    1.111   .     S
C322   H373    1.114   .     S
C323   C334    1.406   .     A
C323   H372    1.078   .     S
C324   H342    1.114   .     S
C324   O382    1.413   .     S
C324   H341    1.110   .     S
C324   H343    1.109   .     S
C325   O383    1.412   .     S
C325   H346    1.109   .     S
C325   H444    1.112   .     S
C325   H445    1.113   .     S
C326   C327    1.520   .     S
C326   H348    1.116   .     S
C326   H347    1.114   .     S
C326   O384    1.413   .     S
C327   H350    1.111   .     S
C327   H352    1.110   .     S
C327   H349    1.111   .     S
C328   H354    1.112   .     S
C328   H353    1.115   .     S
C328   O385    1.414   .     S
C328   C1429   1.522   1_455 S
C329   H357    1.111   .     S
C329   C1328   1.522   1_554 S
C329   H1255   1.111   1_554 S
C329   H1256   1.109   1_554 S
C330   H360    1.109   .     S
C330   O386    1.411   .     S
C330   H359    1.114   .     S
C330   H358    1.113   .     S
C331   H361    1.113   .     S
C331   H364    1.109   .     S
C331   H363    1.113   .     S
C331   O388    1.410   .     S
C332   O389    1.413   .     S
C332   H366    1.114   .     S
C332   C333    1.521   .     S
C332   H365    1.115   .     S
C333   H367    1.111   .     S
C333   H369    1.110   .     S
C333   H368    1.110   .     S
C334   C335    1.423   .     A
C334   C336    1.425   .     A
C335   C1239   1.414   .     S
C336   C1237   1.415   .     S
C337   C338    1.418   .     A
C337   C1236   1.415   1_554 S
C338   C339    1.403   .     A
C338   O388    1.384   .     S
C339   O381    1.384   .     S
C339   C1235   1.414   1_554 S
H340   C510    1.088   1_455 S
H344   C525    1.112   1_455 S
H345   C525    1.113   1_455 S
H355   C1229   1.111   .     S
H356   C1229   1.109   .     S
H362   C614    1.086   .     S
O376   Zn399   1.935   .     S
O376   Zn398   1.940   .     S
O376   Zn397   1.949   .     S
O376   Zn400   1.929   .     S
O377   Zn398   1.918   .     S
O378   Zn400   1.924   .     S
O379   Zn399   1.921   .     S
O380   Zn397   1.915   .     S
O383   C411    1.400   .     S
O387   Zn397   1.927   .     S
O390   Zn400   1.930   .     S
O391   Zn398   1.932   .     S
O392   Zn399   1.938   .     S
O393   Zn400   1.937   .     S
O394   Zn397   1.931   .     S
O395   Zn398   1.932   .     S
O396   Zn399   1.927   .     S
C401   C411    1.444   .     S
C401   O491    1.268   .     A
C401   O493    1.262   .     A
C402   O489    1.383   .     S
C402   C436    1.425   .     A
C402   C403    1.395   .     A
C403   H471    1.083   .     S
C403   C1305   1.398   .     S
C404   O494    1.268   .     A
C404   C410    1.456   .     S
C404   O492    1.283   .     A
C405   C407    1.414   .     A
C405   C406    1.419   .     A
C405   C1303   1.398   1_554 S
C406   C409    1.417   .     A
C406   C437    1.424   .     A
C407   C408    1.408   .     A
C407   O482    1.392   .     S
C408   C420    1.394   .     A
C408   H470    1.083   .     S
C409   C420    1.396   .     A
C409   O484    1.384   .     S
C410   C511    1.347   .     S
C410   H540    1.088   .     S
C412   C421    1.408   .     A
C412   O486    1.383   .     S
C412   C419    1.409   .     A
C413   C416    1.450   .     S
C413   C714    1.331   .     S
C413   H751    1.088   .     S
C414   C415    1.434   .     S
C415   O495    1.273   .     A
C415   O487    1.273   .     A
C416   O490    1.271   .     A
C416   O496    1.270   .     A
C417   O479    1.277   .     A
C417   C420    1.457   .     S
C417   O477    1.276   .     A
C418   C419    1.481   .     S
C418   O478    1.281   .     A
C418   O480    1.288   .     A
C419   C423    1.395   .     A
C421   O485    1.385   .     S
C421   C435    1.421   .     A
C422   H475    1.109   .     S
C422   O481    1.411   .     S
C422   H474    1.111   .     S
C422   H473    1.114   .     S
C423   C434    1.406   .     A
C423   H472    1.078   .     S
C424   H442    1.114   .     S
C424   O482    1.413   .     S
C424   H441    1.110   .     S
C424   H443    1.109   .     S
C425   O483    1.412   .     S
C425   H446    1.109   .     S
C425   H544    1.112   .     S
C425   H545    1.113   .     S
C426   C427    1.520   .     S
C426   H448    1.116   .     S
C426   H447    1.114   .     S
C426   O484    1.413   .     S
C427   H450    1.111   .     S
C427   H452    1.110   .     S
C427   H449    1.111   .     S
C428   H454    1.112   .     S
C428   H453    1.115   .     S
C428   O485    1.414   .     S
C428   C1229   1.522   .     S
C429   H457    1.111   .     S
C429   C1428   1.522   1_554 S
C429   H1355   1.111   1_554 S
C429   H1356   1.109   1_554 S
C430   H460    1.109   .     S
C430   O486    1.411   .     S
C430   H459    1.114   .     S
C430   H458    1.113   .     S
C431   H461    1.113   .     S
C431   H464    1.109   .     S
C431   H463    1.113   .     S
C431   O488    1.410   .     S
C432   O489    1.413   .     S
C432   H466    1.114   .     S
C432   C433    1.521   .     S
C432   H465    1.115   .     S
C433   H467    1.111   .     S
C433   H469    1.110   .     S
C433   H468    1.110   .     S
C434   C435    1.423   .     A
C434   C436    1.425   .     A
C435   C1339   1.414   .     S
C436   C1337   1.415   .     S
C437   C438    1.418   .     A
C437   C1336   1.415   1_554 S
C438   C439    1.403   .     A
C438   O488    1.384   .     S
C439   O481    1.384   .     S
C439   C1335   1.414   1_554 S
H455   C1329   1.111   .     S
H456   C1329   1.109   .     S
H462   C714    1.086   .     S
O476   Zn499   1.935   .     S
O476   Zn498   1.940   .     S
O476   Zn497   1.949   .     S
O476   Zn500   1.929   .     S
O477   Zn498   1.918   .     S
O478   Zn500   1.924   .     S
O479   Zn499   1.921   .     S
O480   Zn497   1.915   .     S
O483   C511    1.400   .     S
O487   Zn497   1.927   .     S
O490   Zn500   1.930   .     S
O491   Zn498   1.932   .     S
O492   Zn499   1.938   .     S
O493   Zn500   1.937   .     S
O494   Zn497   1.931   .     S
O495   Zn498   1.932   .     S
O496   Zn499   1.927   .     S
C501   C511    1.444   .     S
C501   O591    1.268   .     A
C501   O593    1.262   .     A
C502   O589    1.383   .     S
C502   C536    1.425   .     A
C502   C503    1.395   .     A
C503   H571    1.083   .     S
C503   C1405   1.398   .     S
C504   O594    1.268   .     A
C504   C510    1.456   .     S
C504   O592    1.283   .     A
C505   C507    1.414   .     A
C505   C506    1.419   .     A
C505   C1403   1.398   1_554 S
C506   C509    1.417   .     A
C506   C537    1.424   .     A
C507   C508    1.408   .     A
C507   O582    1.392   .     S
C508   C520    1.394   .     A
C508   H570    1.083   .     S
C509   C520    1.396   .     A
C509   O584    1.384   .     S
C510   C311    1.347   1_655 S
C510   H340    1.088   1_655 S
C512   C521    1.408   .     A
C512   O586    1.383   .     S
C512   C519    1.409   .     A
C513   C516    1.450   .     S
C513   C814    1.331   .     S
C513   H851    1.088   .     S
C514   C515    1.434   .     S
C515   O595    1.273   .     A
C515   O587    1.273   .     A
C516   O590    1.271   .     A
C516   O596    1.270   .     A
C517   O579    1.277   .     A
C517   C520    1.457   .     S
C517   O577    1.276   .     A
C518   C519    1.481   .     S
C518   O578    1.281   .     A
C518   O580    1.288   .     A
C519   C523    1.395   .     A
C521   O585    1.385   .     S
C521   C535    1.421   .     A
C522   H575    1.109   .     S
C522   O581    1.411   .     S
C522   H574    1.111   .     S
C522   H573    1.114   .     S
C523   C534    1.406   .     A
C523   H572    1.078   .     S
C524   H542    1.114   .     S
C524   O582    1.413   .     S
C524   H541    1.110   .     S
C524   H543    1.109   .     S
C525   O583    1.412   .     S
C525   H546    1.109   .     S
C525   H344    1.112   1_655 S
C525   H345    1.113   1_655 S
C526   C527    1.520   .     S
C526   H548    1.116   .     S
C526   H547    1.114   .     S
C526   O584    1.413   .     S
C527   H550    1.111   .     S
C527   H552    1.110   .     S
C527   H549    1.111   .     S
C528   H554    1.112   .     S
C528   H553    1.115   .     S
C528   O585    1.414   .     S
C528   C1329   1.522   .     S
C529   H557    1.111   .     S
C529   C1228   1.522   1_654 S
C529   H1455   1.111   1_554 S
C529   H1456   1.109   1_554 S
C530   H560    1.109   .     S
C530   O586    1.411   .     S
C530   H559    1.114   .     S
C530   H558    1.113   .     S
C531   H561    1.113   .     S
C531   H564    1.109   .     S
C531   H563    1.113   .     S
C531   O588    1.410   .     S
C532   O589    1.413   .     S
C532   H566    1.114   .     S
C532   C533    1.521   .     S
C532   H565    1.115   .     S
C533   H567    1.111   .     S
C533   H569    1.110   .     S
C533   H568    1.110   .     S
C534   C535    1.423   .     A
C534   C536    1.425   .     A
C535   C1439   1.414   .     S
C536   C1437   1.415   .     S
C537   C538    1.418   .     A
C537   C1436   1.415   1_554 S
C538   C539    1.403   .     A
C538   O588    1.384   .     S
C539   O581    1.384   .     S
C539   C1435   1.414   1_554 S
H555   C1429   1.111   .     S
H556   C1429   1.109   .     S
H562   C814    1.086   .     S
O576   Zn599   1.935   .     S
O576   Zn598   1.940   .     S
O576   Zn597   1.949   .     S
O576   Zn600   1.929   .     S
O577   Zn598   1.918   .     S
O578   Zn600   1.924   .     S
O579   Zn599   1.921   .     S
O580   Zn597   1.915   .     S
O583   C311    1.400   1_655 S
O587   Zn597   1.927   .     S
O590   Zn600   1.930   .     S
O591   Zn598   1.932   .     S
O592   Zn599   1.938   .     S
O593   Zn600   1.937   .     S
O594   Zn597   1.931   .     S
O595   Zn598   1.932   .     S
O596   Zn599   1.927   .     S
C601   C611    1.444   .     S
C601   O691    1.268   .     A
C601   O693    1.262   .     A
C602   O689    1.383   .     S
C602   C636    1.425   .     A
C602   C603    1.395   .     A
C603   H671    1.083   .     S
C603   C1505   1.398   .     S
C604   O694    1.268   .     A
C604   C610    1.456   .     S
C604   O692    1.283   .     A
C605   C607    1.414   .     A
C605   C606    1.419   .     A
C605   C1503   1.398   1_554 S
C606   C609    1.417   .     A
C606   C637    1.424   .     A
C607   C608    1.408   .     A
C607   O682    1.392   .     S
C608   C620    1.394   .     A
C608   H670    1.083   .     S
C609   C620    1.396   .     A
C609   O684    1.384   .     S
C610   C711    1.347   .     S
C610   H740    1.088   .     S
C611   C810    1.347   1_455 S
C611   O883    1.400   1_455 S
C612   C621    1.408   .     A
C612   O686    1.383   .     S
C612   C619    1.409   .     A
C613   C616    1.450   .     S
C613   C14     1.331   1_565 S
C613   H51     1.088   1_565 S
C614   C615    1.434   .     S
C615   O695    1.273   .     A
C615   O687    1.273   .     A
C616   O690    1.271   .     A
C616   O696    1.270   .     A
C617   O679    1.277   .     A
C617   C620    1.457   .     S
C617   O677    1.276   .     A
C618   C619    1.481   .     S
C618   O678    1.281   .     A
C618   O680    1.288   .     A
C619   C623    1.395   .     A
C621   O685    1.385   .     S
C621   C635    1.421   .     A
C622   H675    1.109   .     S
C622   O681    1.411   .     S
C622   H674    1.111   .     S
C622   H673    1.114   .     S
C623   C634    1.406   .     A
C623   H672    1.078   .     S
C624   H642    1.114   .     S
C624   O682    1.413   .     S
C624   H641    1.110   .     S
C624   H643    1.109   .     S
C625   O683    1.412   .     S
C625   H646    1.109   .     S
C625   H744    1.112   .     S
C625   H745    1.113   .     S
C626   C627    1.520   .     S
C626   H648    1.116   .     S
C626   H647    1.114   .     S
C626   O684    1.413   .     S
C627   H650    1.111   .     S
C627   H652    1.110   .     S
C627   H649    1.111   .     S
C628   H654    1.112   .     S
C628   H653    1.115   .     S
C628   O685    1.414   .     S
C628   C1729   1.522   1_455 S
C629   H657    1.111   .     S
C629   C1628   1.522   1_554 S
C629   H1555   1.111   1_554 S
C629   H1556   1.109   1_554 S
C630   H660    1.109   .     S
C630   O686    1.411   .     S
C630   H659    1.114   .     S
C630   H658    1.113   .     S
C631   H661    1.113   .     S
C631   H664    1.109   .     S
C631   H663    1.113   .     S
C631   O688    1.410   .     S
C632   O689    1.413   .     S
C632   H666    1.114   .     S
C632   C633    1.521   .     S
C632   H665    1.115   .     S
C633   H667    1.111   .     S
C633   H669    1.110   .     S
C633   H668    1.110   .     S
C634   C635    1.423   .     A
C634   C636    1.425   .     A
C635   C1539   1.414   .     S
C636   C1537   1.415   .     S
C637   C638    1.418   .     A
C637   C1536   1.415   1_554 S
C638   C639    1.403   .     A
C638   O688    1.384   .     S
C639   O681    1.384   .     S
C639   C1535   1.414   1_554 S
H640   C810    1.088   1_455 S
H644   C825    1.112   1_455 S
H645   C825    1.113   1_455 S
H655   C1529   1.111   .     S
H656   C1529   1.109   .     S
H662   C14     1.086   1_565 S
O676   Zn699   1.935   .     S
O676   Zn698   1.940   .     S
O676   Zn697   1.949   .     S
O676   Zn700   1.929   .     S
O677   Zn698   1.918   .     S
O678   Zn700   1.924   .     S
O679   Zn699   1.921   .     S
O680   Zn697   1.915   .     S
O683   C711    1.400   .     S
O687   Zn697   1.927   .     S
O690   Zn700   1.930   .     S
O691   Zn698   1.932   .     S
O692   Zn699   1.938   .     S
O693   Zn700   1.937   .     S
O694   Zn697   1.931   .     S
O695   Zn698   1.932   .     S
O696   Zn699   1.927   .     S
C701   C711    1.444   .     S
C701   O791    1.268   .     A
C701   O793    1.262   .     A
C702   O789    1.383   .     S
C702   C736    1.425   .     A
C702   C703    1.395   .     A
C703   H771    1.083   .     S
C703   C1605   1.398   .     S
C704   O794    1.268   .     A
C704   C710    1.456   .     S
C704   O792    1.283   .     A
C705   C707    1.414   .     A
C705   C706    1.419   .     A
C705   C1603   1.398   1_554 S
C706   C709    1.417   .     A
C706   C737    1.424   .     A
C707   C708    1.408   .     A
C707   O782    1.392   .     S
C708   C720    1.394   .     A
C708   H770    1.083   .     S
C709   C720    1.396   .     A
C709   O784    1.384   .     S
C710   C811    1.347   .     S
C710   H840    1.088   .     S
C712   C721    1.408   .     A
C712   O786    1.383   .     S
C712   C719    1.409   .     A
C713   C716    1.450   .     S
C713   C114    1.331   1_565 S
C713   H151    1.088   1_565 S
C714   C715    1.434   .     S
C715   O795    1.273   .     A
C715   O787    1.273   .     A
C716   O790    1.271   .     A
C716   O796    1.270   .     A
C717   O779    1.277   .     A
C717   C720    1.457   .     S
C717   O777    1.276   .     A
C718   C719    1.481   .     S
C718   O778    1.281   .     A
C718   O780    1.288   .     A
C719   C723    1.395   .     A
C721   O785    1.385   .     S
C721   C735    1.421   .     A
C722   H775    1.109   .     S
C722   O781    1.411   .     S
C722   H774    1.111   .     S
C722   H773    1.114   .     S
C723   C734    1.406   .     A
C723   H772    1.078   .     S
C724   H742    1.114   .     S
C724   O782    1.413   .     S
C724   H741    1.110   .     S
C724   H743    1.109   .     S
C725   O783    1.412   .     S
C725   H746    1.109   .     S
C725   H844    1.112   .     S
C725   H845    1.113   .     S
C726   C727    1.520   .     S
C726   H748    1.116   .     S
C726   H747    1.114   .     S
C726   O784    1.413   .     S
C727   H750    1.111   .     S
C727   H752    1.110   .     S
C727   H749    1.111   .     S
C728   H754    1.112   .     S
C728   H753    1.115   .     S
C728   O785    1.414   .     S
C728   C1529   1.522   .     S
C729   H757    1.111   .     S
C729   C1728   1.522   1_554 S
C729   H1655   1.111   1_554 S
C729   H1656   1.109   1_554 S
C730   H760    1.109   .     S
C730   O786    1.411   .     S
C730   H759    1.114   .     S
C730   H758    1.113   .     S
C731   H761    1.113   .     S
C731   H764    1.109   .     S
C731   H763    1.113   .     S
C731   O788    1.410   .     S
C732   O789    1.413   .     S
C732   H766    1.114   .     S
C732   C733    1.521   .     S
C732   H765    1.115   .     S
C733   H767    1.111   .     S
C733   H769    1.110   .     S
C733   H768    1.110   .     S
C734   C735    1.423   .     A
C734   C736    1.425   .     A
C735   C1639   1.414   .     S
C736   C1637   1.415   .     S
C737   C738    1.418   .     A
C737   C1636   1.415   1_554 S
C738   C739    1.403   .     A
C738   O788    1.384   .     S
C739   O781    1.384   .     S
C739   C1635   1.414   1_554 S
H755   C1629   1.111   .     S
H756   C1629   1.109   .     S
H762   C114    1.086   1_565 S
O776   Zn799   1.935   .     S
O776   Zn798   1.940   .     S
O776   Zn797   1.949   .     S
O776   Zn800   1.929   .     S
O777   Zn798   1.918   .     S
O778   Zn800   1.924   .     S
O779   Zn799   1.921   .     S
O780   Zn797   1.915   .     S
O783   C811    1.400   .     S
O787   Zn797   1.927   .     S
O790   Zn800   1.930   .     S
O791   Zn798   1.932   .     S
O792   Zn799   1.938   .     S
O793   Zn800   1.937   .     S
O794   Zn797   1.931   .     S
O795   Zn798   1.932   .     S
O796   Zn799   1.927   .     S
C801   C811    1.444   .     S
C801   O891    1.268   .     A
C801   O893    1.262   .     A
C802   O889    1.383   .     S
C802   C836    1.425   .     A
C802   C803    1.395   .     A
C803   H871    1.083   .     S
C803   C1705   1.398   .     S
C804   O894    1.268   .     A
C804   C810    1.456   .     S
C804   O892    1.283   .     A
C805   C807    1.414   .     A
C805   C806    1.419   .     A
C805   C1703   1.398   1_554 S
C806   C809    1.417   .     A
C806   C837    1.424   .     A
C807   C808    1.408   .     A
C807   O882    1.392   .     S
C808   C820    1.394   .     A
C808   H870    1.083   .     S
C809   C820    1.396   .     A
C809   O884    1.384   .     S
C810   C611    1.347   1_655 S
C810   H640    1.088   1_655 S
C812   C821    1.408   .     A
C812   O886    1.383   .     S
C812   C819    1.409   .     A
C813   C816    1.450   .     S
C813   C214    1.331   1_565 S
C813   H251    1.088   1_565 S
C814   C815    1.434   .     S
C815   O895    1.273   .     A
C815   O887    1.273   .     A
C816   O890    1.271   .     A
C816   O896    1.270   .     A
C817   O879    1.277   .     A
C817   C820    1.457   .     S
C817   O877    1.276   .     A
C818   C819    1.481   .     S
C818   O878    1.281   .     A
C818   O880    1.288   .     A
C819   C823    1.395   .     A
C821   O885    1.385   .     S
C821   C835    1.421   .     A
C822   H875    1.109   .     S
C822   O881    1.411   .     S
C822   H874    1.111   .     S
C822   H873    1.114   .     S
C823   C834    1.406   .     A
C823   H872    1.078   .     S
C824   H842    1.114   .     S
C824   O882    1.413   .     S
C824   H841    1.110   .     S
C824   H843    1.109   .     S
C825   O883    1.412   .     S
C825   H846    1.109   .     S
C825   H644    1.112   1_655 S
C825   H645    1.113   1_655 S
C826   C827    1.520   .     S
C826   H848    1.116   .     S
C826   H847    1.114   .     S
C826   O884    1.413   .     S
C827   H850    1.111   .     S
C827   H852    1.110   .     S
C827   H849    1.111   .     S
C828   H854    1.112   .     S
C828   H853    1.115   .     S
C828   O885    1.414   .     S
C828   C1629   1.522   .     S
C829   H857    1.111   .     S
C829   C1528   1.522   1_654 S
C829   H1755   1.111   1_554 S
C829   H1756   1.109   1_554 S
C830   H860    1.109   .     S
C830   O886    1.411   .     S
C830   H859    1.114   .     S
C830   H858    1.113   .     S
C831   H861    1.113   .     S
C831   H864    1.109   .     S
C831   H863    1.113   .     S
C831   O888    1.410   .     S
C832   O889    1.413   .     S
C832   H866    1.114   .     S
C832   C833    1.521   .     S
C832   H865    1.115   .     S
C833   H867    1.111   .     S
C833   H869    1.110   .     S
C833   H868    1.110   .     S
C834   C835    1.423   .     A
C834   C836    1.425   .     A
C835   C1739   1.414   .     S
C836   C1737   1.415   .     S
C837   C838    1.418   .     A
C837   C1736   1.415   1_554 S
C838   C839    1.403   .     A
C838   O888    1.384   .     S
C839   O881    1.384   .     S
C839   C1735   1.414   1_554 S
H855   C1729   1.111   .     S
H856   C1729   1.109   .     S
H862   C214    1.086   1_565 S
O876   Zn899   1.935   .     S
O876   Zn898   1.940   .     S
O876   Zn897   1.949   .     S
O876   Zn900   1.929   .     S
O877   Zn898   1.918   .     S
O878   Zn900   1.924   .     S
O879   Zn899   1.921   .     S
O880   Zn897   1.915   .     S
O883   C611    1.400   1_655 S
O887   Zn897   1.927   .     S
O890   Zn900   1.930   .     S
O891   Zn898   1.932   .     S
O892   Zn899   1.938   .     S
O893   Zn900   1.937   .     S
O894   Zn897   1.931   .     S
O895   Zn898   1.932   .     S
O896   Zn899   1.927   .     S
C901   C911    1.444   .     S
C901   O991    1.268   .     A
C901   O993    1.262   .     A
C902   O989    1.383   .     S
C902   C936    1.425   .     A
C902   C903    1.395   .     A
C903   H971    1.083   .     S
C903   C5      1.398   1_556 S
C904   O994    1.268   .     A
C904   C910    1.456   .     S
C904   O992    1.283   .     A
C905   C907    1.414   .     A
C905   C906    1.419   .     A
C906   C909    1.417   .     A
C906   C937    1.424   .     A
C907   C908    1.408   .     A
C907   O982    1.392   .     S
C908   C920    1.394   .     A
C908   H970    1.083   .     S
C909   C920    1.396   .     A
C909   O984    1.384   .     S
C910   C1011   1.347   .     S
C910   H1040   1.088   .     S
C911   C1110   1.347   1_455 S
C911   O1183   1.400   1_455 S
C912   C921    1.408   .     A
C912   O986    1.383   .     S
C912   C919    1.409   .     A
C913   C916    1.450   .     S
C913   C1214   1.331   .     S
C913   H1251   1.088   .     S
C914   C915    1.434   .     S
C914   C1513   1.331   1_545 S
C914   H1562   1.086   1_545 S
C915   O995    1.273   .     A
C915   O987    1.273   .     A
C916   O990    1.271   .     A
C916   O996    1.270   .     A
C917   O979    1.277   .     A
C917   C920    1.457   .     S
C917   O977    1.276   .     A
C918   C919    1.481   .     S
C918   O978    1.281   .     A
C918   O980    1.288   .     A
C919   C923    1.395   .     A
C921   O985    1.385   .     S
C921   C935    1.421   .     A
C922   H975    1.109   .     S
C922   O981    1.411   .     S
C922   H974    1.111   .     S
C922   H973    1.114   .     S
C923   C934    1.406   .     A
C923   H972    1.078   .     S
C924   H942    1.114   .     S
C924   O982    1.413   .     S
C924   H941    1.110   .     S
C924   H943    1.109   .     S
C925   O983    1.412   .     S
C925   H946    1.109   .     S
C925   H1044   1.112   .     S
C925   H1045   1.113   .     S
C926   C927    1.520   .     S
C926   H948    1.116   .     S
C926   H947    1.114   .     S
C926   O984    1.413   .     S
C927   H950    1.111   .     S
C927   H952    1.110   .     S
C927   H949    1.111   .     S
C928   H954    1.112   .     S
C928   H953    1.115   .     S
C928   O985    1.414   .     S
C928   C229    1.522   1_456 S
C929   H957    1.111   .     S
C930   H960    1.109   .     S
C930   O986    1.411   .     S
C930   H959    1.114   .     S
C930   H958    1.113   .     S
C931   H961    1.113   .     S
C931   H964    1.109   .     S
C931   H963    1.113   .     S
C931   O988    1.410   .     S
C932   O989    1.413   .     S
C932   H966    1.114   .     S
C932   C933    1.521   .     S
C932   H965    1.115   .     S
C933   H967    1.111   .     S
C933   H969    1.110   .     S
C933   H968    1.110   .     S
C934   C935    1.423   .     A
C934   C936    1.425   .     A
C935   C39     1.414   1_556 S
C936   C37     1.415   1_556 S
C937   C938    1.418   .     A
C938   C939    1.403   .     A
C938   O988    1.384   .     S
C939   O981    1.384   .     S
H940   C1110   1.088   1_455 S
H944   C1125   1.112   1_455 S
H945   C1125   1.113   1_455 S
H951   C1513   1.088   1_545 S
H955   C29     1.111   1_556 S
H956   C29     1.109   1_556 S
H962   C1214   1.086   .     S
O976   Zn999   1.935   .     S
O976   Zn998   1.940   .     S
O976   Zn997   1.949   .     S
O976   Zn1000  1.929   .     S
O977   Zn998   1.918   .     S
O978   Zn1000  1.924   .     S
O979   Zn999   1.921   .     S
O980   Zn997   1.915   .     S
O983   C1011   1.400   .     S
O987   Zn997   1.927   .     S
O990   Zn1000  1.930   .     S
O991   Zn998   1.932   .     S
O992   Zn999   1.938   .     S
O993   Zn1000  1.937   .     S
O994   Zn997   1.931   .     S
O995   Zn998   1.932   .     S
O996   Zn999   1.927   .     S
C1001  C1011   1.444   .     S
C1001  O1091   1.268   .     A
C1001  O1093   1.262   .     A
C1002  O1089   1.383   .     S
C1002  C1036   1.425   .     A
C1002  C1003   1.395   .     A
C1003  H1071   1.083   .     S
C1003  C105    1.398   1_556 S
C1004  O1094   1.268   .     A
C1004  C1010   1.456   .     S
C1004  O1092   1.283   .     A
C1005  C1007   1.414   .     A
C1005  C1006   1.419   .     A
C1006  C1009   1.417   .     A
C1006  C1037   1.424   .     A
C1007  C1008   1.408   .     A
C1007  O1082   1.392   .     S
C1008  C1020   1.394   .     A
C1008  H1070   1.083   .     S
C1009  C1020   1.396   .     A
C1009  O1084   1.384   .     S
C1010  C1111   1.347   .     S
C1010  H1140   1.088   .     S
C1012  C1021   1.408   .     A
C1012  O1086   1.383   .     S
C1012  C1019   1.409   .     A
C1013  C1016   1.450   .     S
C1013  C1314   1.331   .     S
C1013  H1351   1.088   .     S
C1014  C1015   1.434   .     S
C1014  C1613   1.331   1_545 S
C1014  H1662   1.086   1_545 S
C1015  O1095   1.273   .     A
C1015  O1087   1.273   .     A
C1016  O1090   1.271   .     A
C1016  O1096   1.270   .     A
C1017  O1079   1.277   .     A
C1017  C1020   1.457   .     S
C1017  O1077   1.276   .     A
C1018  C1019   1.481   .     S
C1018  O1078   1.281   .     A
C1018  O1080   1.288   .     A
C1019  C1023   1.395   .     A
C1021  O1085   1.385   .     S
C1021  C1035   1.421   .     A
C1022  H1075   1.109   .     S
C1022  O1081   1.411   .     S
C1022  H1074   1.111   .     S
C1022  H1073   1.114   .     S
C1023  C1034   1.406   .     A
C1023  H1072   1.078   .     S
C1024  H1042   1.114   .     S
C1024  O1082   1.413   .     S
C1024  H1041   1.110   .     S
C1024  H1043   1.109   .     S
C1025  O1083   1.412   .     S
C1025  H1046   1.109   .     S
C1025  H1144   1.112   .     S
C1025  H1145   1.113   .     S
C1026  C1027   1.520   .     S
C1026  H1048   1.116   .     S
C1026  H1047   1.114   .     S
C1026  O1084   1.413   .     S
C1027  H1050   1.111   .     S
C1027  H1052   1.110   .     S
C1027  H1049   1.111   .     S
C1028  H1054   1.112   .     S
C1028  H1053   1.115   .     S
C1028  O1085   1.414   .     S
C1028  C29     1.522   1_556 S
C1029  H1057   1.111   .     S
C1030  H1060   1.109   .     S
C1030  O1086   1.411   .     S
C1030  H1059   1.114   .     S
C1030  H1058   1.113   .     S
C1031  H1061   1.113   .     S
C1031  H1064   1.109   .     S
C1031  H1063   1.113   .     S
C1031  O1088   1.410   .     S
C1032  O1089   1.413   .     S
C1032  H1066   1.114   .     S
C1032  C1033   1.521   .     S
C1032  H1065   1.115   .     S
C1033  H1067   1.111   .     S
C1033  H1069   1.110   .     S
C1033  H1068   1.110   .     S
C1034  C1035   1.423   .     A
C1034  C1036   1.425   .     A
C1035  C139    1.414   1_556 S
C1036  C137    1.415   1_556 S
C1037  C1038   1.418   .     A
C1038  C1039   1.403   .     A
C1038  O1088   1.384   .     S
C1039  O1081   1.384   .     S
H1051  C1613   1.088   1_545 S
H1055  C129    1.111   1_556 S
H1056  C129    1.109   1_556 S
H1062  C1314   1.086   .     S
O1076  Zn1099  1.935   .     S
O1076  Zn1098  1.940   .     S
O1076  Zn1097  1.949   .     S
O1076  Zn1100  1.929   .     S
O1077  Zn1098  1.918   .     S
O1078  Zn1100  1.924   .     S
O1079  Zn1099  1.921   .     S
O1080  Zn1097  1.915   .     S
O1083  C1111   1.400   .     S
O1087  Zn1097  1.927   .     S
O1090  Zn1100  1.930   .     S
O1091  Zn1098  1.932   .     S
O1092  Zn1099  1.938   .     S
O1093  Zn1100  1.937   .     S
O1094  Zn1097  1.931   .     S
O1095  Zn1098  1.932   .     S
O1096  Zn1099  1.927   .     S
C1101  C1111   1.444   .     S
C1101  O1191   1.268   .     A
C1101  O1193   1.262   .     A
C1102  O1189   1.383   .     S
C1102  C1136   1.425   .     A
C1102  C1103   1.395   .     A
C1103  H1171   1.083   .     S
C1103  C205    1.398   1_556 S
C1104  O1194   1.268   .     A
C1104  C1110   1.456   .     S
C1104  O1192   1.283   .     A
C1105  C1107   1.414   .     A
C1105  C1106   1.419   .     A
C1106  C1109   1.417   .     A
C1106  C1137   1.424   .     A
C1107  C1108   1.408   .     A
C1107  O1182   1.392   .     S
C1108  C1120   1.394   .     A
C1108  H1170   1.083   .     S
C1109  C1120   1.396   .     A
C1109  O1184   1.384   .     S
C1110  C911    1.347   1_655 S
C1110  H940    1.088   1_655 S
C1112  C1121   1.408   .     A
C1112  O1186   1.383   .     S
C1112  C1119   1.409   .     A
C1113  C1116   1.450   .     S
C1113  C1414   1.331   .     S
C1113  H1451   1.088   .     S
C1114  C1115   1.434   .     S
C1114  C1713   1.331   1_545 S
C1114  H1762   1.086   1_545 S
C1115  O1195   1.273   .     A
C1115  O1187   1.273   .     A
C1116  O1190   1.271   .     A
C1116  O1196   1.270   .     A
C1117  O1179   1.277   .     A
C1117  C1120   1.457   .     S
C1117  O1177   1.276   .     A
C1118  C1119   1.481   .     S
C1118  O1178   1.281   .     A
C1118  O1180   1.288   .     A
C1119  C1123   1.395   .     A
C1121  O1185   1.385   .     S
C1121  C1135   1.421   .     A
C1122  H1175   1.109   .     S
C1122  O1181   1.411   .     S
C1122  H1174   1.111   .     S
C1122  H1173   1.114   .     S
C1123  C1134   1.406   .     A
C1123  H1172   1.078   .     S
C1124  H1142   1.114   .     S
C1124  O1182   1.413   .     S
C1124  H1141   1.110   .     S
C1124  H1143   1.109   .     S
C1125  O1183   1.412   .     S
C1125  H1146   1.109   .     S
C1125  H944    1.112   1_655 S
C1125  H945    1.113   1_655 S
C1126  C1127   1.520   .     S
C1126  H1148   1.116   .     S
C1126  H1147   1.114   .     S
C1126  O1184   1.413   .     S
C1127  H1150   1.111   .     S
C1127  H1152   1.110   .     S
C1127  H1149   1.111   .     S
C1128  H1154   1.112   .     S
C1128  H1153   1.115   .     S
C1128  O1185   1.414   .     S
C1128  C129    1.522   1_556 S
C1129  H1157   1.111   .     S
C1129  C28     1.522   1_655 S
C1130  H1160   1.109   .     S
C1130  O1186   1.411   .     S
C1130  H1159   1.114   .     S
C1130  H1158   1.113   .     S
C1131  H1161   1.113   .     S
C1131  H1164   1.109   .     S
C1131  H1163   1.113   .     S
C1131  O1188   1.410   .     S
C1132  O1189   1.413   .     S
C1132  H1166   1.114   .     S
C1132  C1133   1.521   .     S
C1132  H1165   1.115   .     S
C1133  H1167   1.111   .     S
C1133  H1169   1.110   .     S
C1133  H1168   1.110   .     S
C1134  C1135   1.423   .     A
C1134  C1136   1.425   .     A
C1135  C239    1.414   1_556 S
C1136  C237    1.415   1_556 S
C1137  C1138   1.418   .     A
C1138  C1139   1.403   .     A
C1138  O1188   1.384   .     S
C1139  O1181   1.384   .     S
H1151  C1713   1.088   1_545 S
H1155  C229    1.111   1_556 S
H1156  C229    1.109   1_556 S
H1162  C1414   1.086   .     S
O1176  Zn1199  1.935   .     S
O1176  Zn1198  1.940   .     S
O1176  Zn1197  1.949   .     S
O1176  Zn1200  1.929   .     S
O1177  Zn1198  1.918   .     S
O1178  Zn1200  1.924   .     S
O1179  Zn1199  1.921   .     S
O1180  Zn1197  1.915   .     S
O1183  C911    1.400   1_655 S
O1187  Zn1197  1.927   .     S
O1190  Zn1200  1.930   .     S
O1191  Zn1198  1.932   .     S
O1192  Zn1199  1.938   .     S
O1193  Zn1200  1.937   .     S
O1194  Zn1197  1.931   .     S
O1195  Zn1198  1.932   .     S
O1196  Zn1199  1.927   .     S
C1201  C1211   1.444   .     S
C1201  O1291   1.268   .     A
C1201  O1293   1.262   .     A
C1202  O1289   1.383   .     S
C1202  C1236   1.425   .     A
C1202  C1203   1.395   .     A
C1203  H1271   1.083   .     S
C1203  C305    1.398   1_556 S
C1204  O1294   1.268   .     A
C1204  C1210   1.456   .     S
C1204  O1292   1.283   .     A
C1205  C1207   1.414   .     A
C1205  C1206   1.419   .     A
C1206  C1209   1.417   .     A
C1206  C1237   1.424   .     A
C1207  C1208   1.408   .     A
C1207  O1282   1.392   .     S
C1208  C1220   1.394   .     A
C1208  H1270   1.083   .     S
C1209  C1220   1.396   .     A
C1209  O1284   1.384   .     S
C1210  C1311   1.347   .     S
C1210  H1340   1.088   .     S
C1211  C1410   1.347   1_455 S
C1211  O1483   1.400   1_455 S
C1212  C1221   1.408   .     A
C1212  O1286   1.383   .     S
C1212  C1219   1.409   .     A
C1213  C1216   1.450   .     S
C1213  C1514   1.331   .     S
C1213  H1551   1.088   .     S
C1214  C1215   1.434   .     S
C1215  O1295   1.273   .     A
C1215  O1287   1.273   .     A
C1216  O1290   1.271   .     A
C1216  O1296   1.270   .     A
C1217  O1279   1.277   .     A
C1217  C1220   1.457   .     S
C1217  O1277   1.276   .     A
C1218  C1219   1.481   .     S
C1218  O1278   1.281   .     A
C1218  O1280   1.288   .     A
C1219  C1223   1.395   .     A
C1221  O1285   1.385   .     S
C1221  C1235   1.421   .     A
C1222  H1275   1.109   .     S
C1222  O1281   1.411   .     S
C1222  H1274   1.111   .     S
C1222  H1273   1.114   .     S
C1223  C1234   1.406   .     A
C1223  H1272   1.078   .     S
C1224  H1242   1.114   .     S
C1224  O1282   1.413   .     S
C1224  H1241   1.110   .     S
C1224  H1243   1.109   .     S
C1225  O1283   1.412   .     S
C1225  H1246   1.109   .     S
C1225  H1344   1.112   .     S
C1225  H1345   1.113   .     S
C1226  C1227   1.520   .     S
C1226  H1248   1.116   .     S
C1226  H1247   1.114   .     S
C1226  O1284   1.413   .     S
C1227  H1250   1.111   .     S
C1227  H1252   1.110   .     S
C1227  H1249   1.111   .     S
C1228  H1254   1.112   .     S
C1228  H1253   1.115   .     S
C1228  O1285   1.414   .     S
C1228  C529    1.522   1_456 S
C1229  H1257   1.111   .     S
C1230  H1260   1.109   .     S
C1230  O1286   1.411   .     S
C1230  H1259   1.114   .     S
C1230  H1258   1.113   .     S
C1231  H1261   1.113   .     S
C1231  H1264   1.109   .     S
C1231  H1263   1.113   .     S
C1231  O1288   1.410   .     S
C1232  O1289   1.413   .     S
C1232  H1266   1.114   .     S
C1232  C1233   1.521   .     S
C1232  H1265   1.115   .     S
C1233  H1267   1.111   .     S
C1233  H1269   1.110   .     S
C1233  H1268   1.110   .     S
C1234  C1235   1.423   .     A
C1234  C1236   1.425   .     A
C1235  C339    1.414   1_556 S
C1236  C337    1.415   1_556 S
C1237  C1238   1.418   .     A
C1238  C1239   1.403   .     A
C1238  O1288   1.384   .     S
C1239  O1281   1.384   .     S
H1240  C1410   1.088   1_455 S
H1244  C1425   1.112   1_455 S
H1245  C1425   1.113   1_455 S
H1255  C329    1.111   1_556 S
H1256  C329    1.109   1_556 S
H1262  C1514   1.086   .     S
O1276  Zn1299  1.935   .     S
O1276  Zn1298  1.940   .     S
O1276  Zn1297  1.949   .     S
O1276  Zn1300  1.929   .     S
O1277  Zn1298  1.918   .     S
O1278  Zn1300  1.924   .     S
O1279  Zn1299  1.921   .     S
O1280  Zn1297  1.915   .     S
O1283  C1311   1.400   .     S
O1287  Zn1297  1.927   .     S
O1290  Zn1300  1.930   .     S
O1291  Zn1298  1.932   .     S
O1292  Zn1299  1.938   .     S
O1293  Zn1300  1.937   .     S
O1294  Zn1297  1.931   .     S
O1295  Zn1298  1.932   .     S
O1296  Zn1299  1.927   .     S
C1301  C1311   1.444   .     S
C1301  O1391   1.268   .     A
C1301  O1393   1.262   .     A
C1302  O1389   1.383   .     S
C1302  C1336   1.425   .     A
C1302  C1303   1.395   .     A
C1303  H1371   1.083   .     S
C1303  C405    1.398   1_556 S
C1304  O1394   1.268   .     A
C1304  C1310   1.456   .     S
C1304  O1392   1.283   .     A
C1305  C1307   1.414   .     A
C1305  C1306   1.419   .     A
C1306  C1309   1.417   .     A
C1306  C1337   1.424   .     A
C1307  C1308   1.408   .     A
C1307  O1382   1.392   .     S
C1308  C1320   1.394   .     A
C1308  H1370   1.083   .     S
C1309  C1320   1.396   .     A
C1309  O1384   1.384   .     S
C1310  C1411   1.347   .     S
C1310  H1440   1.088   .     S
C1312  C1321   1.408   .     A
C1312  O1386   1.383   .     S
C1312  C1319   1.409   .     A
C1313  C1316   1.450   .     S
C1313  C1614   1.331   .     S
C1313  H1651   1.088   .     S
C1314  C1315   1.434   .     S
C1315  O1395   1.273   .     A
C1315  O1387   1.273   .     A
C1316  O1390   1.271   .     A
C1316  O1396   1.270   .     A
C1317  O1379   1.277   .     A
C1317  C1320   1.457   .     S
C1317  O1377   1.276   .     A
C1318  C1319   1.481   .     S
C1318  O1378   1.281   .     A
C1318  O1380   1.288   .     A
C1319  C1323   1.395   .     A
C1321  O1385   1.385   .     S
C1321  C1335   1.421   .     A
C1322  H1375   1.109   .     S
C1322  O1381   1.411   .     S
C1322  H1374   1.111   .     S
C1322  H1373   1.114   .     S
C1323  C1334   1.406   .     A
C1323  H1372   1.078   .     S
C1324  H1342   1.114   .     S
C1324  O1382   1.413   .     S
C1324  H1341   1.110   .     S
C1324  H1343   1.109   .     S
C1325  O1383   1.412   .     S
C1325  H1346   1.109   .     S
C1325  H1444   1.112   .     S
C1325  H1445   1.113   .     S
C1326  C1327   1.520   .     S
C1326  H1348   1.116   .     S
C1326  H1347   1.114   .     S
C1326  O1384   1.413   .     S
C1327  H1350   1.111   .     S
C1327  H1352   1.110   .     S
C1327  H1349   1.111   .     S
C1328  H1354   1.112   .     S
C1328  H1353   1.115   .     S
C1328  O1385   1.414   .     S
C1328  C329    1.522   1_556 S
C1329  H1357   1.111   .     S
C1330  H1360   1.109   .     S
C1330  O1386   1.411   .     S
C1330  H1359   1.114   .     S
C1330  H1358   1.113   .     S
C1331  H1361   1.113   .     S
C1331  H1364   1.109   .     S
C1331  H1363   1.113   .     S
C1331  O1388   1.410   .     S
C1332  O1389   1.413   .     S
C1332  H1366   1.114   .     S
C1332  C1333   1.521   .     S
C1332  H1365   1.115   .     S
C1333  H1367   1.111   .     S
C1333  H1369   1.110   .     S
C1333  H1368   1.110   .     S
C1334  C1335   1.423   .     A
C1334  C1336   1.425   .     A
C1335  C439    1.414   1_556 S
C1336  C437    1.415   1_556 S
C1337  C1338   1.418   .     A
C1338  C1339   1.403   .     A
C1338  O1388   1.384   .     S
C1339  O1381   1.384   .     S
H1355  C429    1.111   1_556 S
H1356  C429    1.109   1_556 S
H1362  C1614   1.086   .     S
O1376  Zn1399  1.935   .     S
O1376  Zn1398  1.940   .     S
O1376  Zn1397  1.949   .     S
O1376  Zn1400  1.929   .     S
O1377  Zn1398  1.918   .     S
O1378  Zn1400  1.924   .     S
O1379  Zn1399  1.921   .     S
O1380  Zn1397  1.915   .     S
O1383  C1411   1.400   .     S
O1387  Zn1397  1.927   .     S
O1390  Zn1400  1.930   .     S
O1391  Zn1398  1.932   .     S
O1392  Zn1399  1.938   .     S
O1393  Zn1400  1.937   .     S
O1394  Zn1397  1.931   .     S
O1395  Zn1398  1.932   .     S
O1396  Zn1399  1.927   .     S
C1401  C1411   1.444   .     S
C1401  O1491   1.268   .     A
C1401  O1493   1.262   .     A
C1402  O1489   1.383   .     S
C1402  C1436   1.425   .     A
C1402  C1403   1.395   .     A
C1403  H1471   1.083   .     S
C1403  C505    1.398   1_556 S
C1404  O1494   1.268   .     A
C1404  C1410   1.456   .     S
C1404  O1492   1.283   .     A
C1405  C1407   1.414   .     A
C1405  C1406   1.419   .     A
C1406  C1409   1.417   .     A
C1406  C1437   1.424   .     A
C1407  C1408   1.408   .     A
C1407  O1482   1.392   .     S
C1408  C1420   1.394   .     A
C1408  H1470   1.083   .     S
C1409  C1420   1.396   .     A
C1409  O1484   1.384   .     S
C1410  C1211   1.347   1_655 S
C1410  H1240   1.088   1_655 S
C1412  C1421   1.408   .     A
C1412  O1486   1.383   .     S
C1412  C1419   1.409   .     A
C1413  C1416   1.450   .     S
C1413  C1714   1.331   .     S
C1413  H1751   1.088   .     S
C1414  C1415   1.434   .     S
C1415  O1495   1.273   .     A
C1415  O1487   1.273   .     A
C1416  O1490   1.271   .     A
C1416  O1496   1.270   .     A
C1417  O1479   1.277   .     A
C1417  C1420   1.457   .     S
C1417  O1477   1.276   .     A
C1418  C1419   1.481   .     S
C1418  O1478   1.281   .     A
C1418  O1480   1.288   .     A
C1419  C1423   1.395   .     A
C1421  O1485   1.385   .     S
C1421  C1435   1.421   .     A
C1422  H1475   1.109   .     S
C1422  O1481   1.411   .     S
C1422  H1474   1.111   .     S
C1422  H1473   1.114   .     S
C1423  C1434   1.406   .     A
C1423  H1472   1.078   .     S
C1424  H1442   1.114   .     S
C1424  O1482   1.413   .     S
C1424  H1441   1.110   .     S
C1424  H1443   1.109   .     S
C1425  O1483   1.412   .     S
C1425  H1446   1.109   .     S
C1425  H1244   1.112   1_655 S
C1425  H1245   1.113   1_655 S
C1426  C1427   1.520   .     S
C1426  H1448   1.116   .     S
C1426  H1447   1.114   .     S
C1426  O1484   1.413   .     S
C1427  H1450   1.111   .     S
C1427  H1452   1.110   .     S
C1427  H1449   1.111   .     S
C1428  H1454   1.112   .     S
C1428  H1453   1.115   .     S
C1428  O1485   1.414   .     S
C1428  C429    1.522   1_556 S
C1429  H1457   1.111   .     S
C1429  C328    1.522   1_655 S
C1430  H1460   1.109   .     S
C1430  O1486   1.411   .     S
C1430  H1459   1.114   .     S
C1430  H1458   1.113   .     S
C1431  H1461   1.113   .     S
C1431  H1464   1.109   .     S
C1431  H1463   1.113   .     S
C1431  O1488   1.410   .     S
C1432  O1489   1.413   .     S
C1432  H1466   1.114   .     S
C1432  C1433   1.521   .     S
C1432  H1465   1.115   .     S
C1433  H1467   1.111   .     S
C1433  H1469   1.110   .     S
C1433  H1468   1.110   .     S
C1434  C1435   1.423   .     A
C1434  C1436   1.425   .     A
C1435  C539    1.414   1_556 S
C1436  C537    1.415   1_556 S
C1437  C1438   1.418   .     A
C1438  C1439   1.403   .     A
C1438  O1488   1.384   .     S
C1439  O1481   1.384   .     S
H1455  C529    1.111   1_556 S
H1456  C529    1.109   1_556 S
H1462  C1714   1.086   .     S
O1476  Zn1499  1.935   .     S
O1476  Zn1498  1.940   .     S
O1476  Zn1497  1.949   .     S
O1476  Zn1500  1.929   .     S
O1477  Zn1498  1.918   .     S
O1478  Zn1500  1.924   .     S
O1479  Zn1499  1.921   .     S
O1480  Zn1497  1.915   .     S
O1483  C1211   1.400   1_655 S
O1487  Zn1497  1.927   .     S
O1490  Zn1500  1.930   .     S
O1491  Zn1498  1.932   .     S
O1492  Zn1499  1.938   .     S
O1493  Zn1500  1.937   .     S
O1494  Zn1497  1.931   .     S
O1495  Zn1498  1.932   .     S
O1496  Zn1499  1.927   .     S
C1501  C1511   1.444   .     S
C1501  O1591   1.268   .     A
C1501  O1593   1.262   .     A
C1502  O1589   1.383   .     S
C1502  C1536   1.425   .     A
C1502  C1503   1.395   .     A
C1503  H1571   1.083   .     S
C1503  C605    1.398   1_556 S
C1504  O1594   1.268   .     A
C1504  C1510   1.456   .     S
C1504  O1592   1.283   .     A
C1505  C1507   1.414   .     A
C1505  C1506   1.419   .     A
C1506  C1509   1.417   .     A
C1506  C1537   1.424   .     A
C1507  C1508   1.408   .     A
C1507  O1582   1.392   .     S
C1508  C1520   1.394   .     A
C1508  H1570   1.083   .     S
C1509  C1520   1.396   .     A
C1509  O1584   1.384   .     S
C1510  C1611   1.347   .     S
C1510  H1640   1.088   .     S
C1511  C1710   1.347   1_455 S
C1511  O1783   1.400   1_455 S
C1512  C1521   1.408   .     A
C1512  O1586   1.383   .     S
C1512  C1519   1.409   .     A
C1513  C1516   1.450   .     S
C1513  C914    1.331   1_565 S
C1513  H951    1.088   1_565 S
C1514  C1515   1.434   .     S
C1515  O1595   1.273   .     A
C1515  O1587   1.273   .     A
C1516  O1590   1.271   .     A
C1516  O1596   1.270   .     A
C1517  O1579   1.277   .     A
C1517  C1520   1.457   .     S
C1517  O1577   1.276   .     A
C1518  C1519   1.481   .     S
C1518  O1578   1.281   .     A
C1518  O1580   1.288   .     A
C1519  C1523   1.395   .     A
C1521  O1585   1.385   .     S
C1521  C1535   1.421   .     A
C1522  H1575   1.109   .     S
C1522  O1581   1.411   .     S
C1522  H1574   1.111   .     S
C1522  H1573   1.114   .     S
C1523  C1534   1.406   .     A
C1523  H1572   1.078   .     S
C1524  H1542   1.114   .     S
C1524  O1582   1.413   .     S
C1524  H1541   1.110   .     S
C1524  H1543   1.109   .     S
C1525  O1583   1.412   .     S
C1525  H1546   1.109   .     S
C1525  H1644   1.112   .     S
C1525  H1645   1.113   .     S
C1526  C1527   1.520   .     S
C1526  H1548   1.116   .     S
C1526  H1547   1.114   .     S
C1526  O1584   1.413   .     S
C1527  H1550   1.111   .     S
C1527  H1552   1.110   .     S
C1527  H1549   1.111   .     S
C1528  H1554   1.112   .     S
C1528  H1553   1.115   .     S
C1528  O1585   1.414   .     S
C1528  C829    1.522   1_456 S
C1529  H1557   1.111   .     S
C1530  H1560   1.109   .     S
C1530  O1586   1.411   .     S
C1530  H1559   1.114   .     S
C1530  H1558   1.113   .     S
C1531  H1561   1.113   .     S
C1531  H1564   1.109   .     S
C1531  H1563   1.113   .     S
C1531  O1588   1.410   .     S
C1532  O1589   1.413   .     S
C1532  H1566   1.114   .     S
C1532  C1533   1.521   .     S
C1532  H1565   1.115   .     S
C1533  H1567   1.111   .     S
C1533  H1569   1.110   .     S
C1533  H1568   1.110   .     S
C1534  C1535   1.423   .     A
C1534  C1536   1.425   .     A
C1535  C639    1.414   1_556 S
C1536  C637    1.415   1_556 S
C1537  C1538   1.418   .     A
C1538  C1539   1.403   .     A
C1538  O1588   1.384   .     S
C1539  O1581   1.384   .     S
H1540  C1710   1.088   1_455 S
H1544  C1725   1.112   1_455 S
H1545  C1725   1.113   1_455 S
H1555  C629    1.111   1_556 S
H1556  C629    1.109   1_556 S
H1562  C914    1.086   1_565 S
O1576  Zn1599  1.935   .     S
O1576  Zn1598  1.940   .     S
O1576  Zn1597  1.949   .     S
O1576  Zn1600  1.929   .     S
O1577  Zn1598  1.918   .     S
O1578  Zn1600  1.924   .     S
O1579  Zn1599  1.921   .     S
O1580  Zn1597  1.915   .     S
O1583  C1611   1.400   .     S
O1587  Zn1597  1.927   .     S
O1590  Zn1600  1.930   .     S
O1591  Zn1598  1.932   .     S
O1592  Zn1599  1.938   .     S
O1593  Zn1600  1.937   .     S
O1594  Zn1597  1.931   .     S
O1595  Zn1598  1.932   .     S
O1596  Zn1599  1.927   .     S
C1601  C1611   1.444   .     S
C1601  O1691   1.268   .     A
C1601  O1693   1.262   .     A
C1602  O1689   1.383   .     S
C1602  C1636   1.425   .     A
C1602  C1603   1.395   .     A
C1603  H1671   1.083   .     S
C1603  C705    1.398   1_556 S
C1604  O1694   1.268   .     A
C1604  C1610   1.456   .     S
C1604  O1692   1.283   .     A
C1605  C1607   1.414   .     A
C1605  C1606   1.419   .     A
C1606  C1609   1.417   .     A
C1606  C1637   1.424   .     A
C1607  C1608   1.408   .     A
C1607  O1682   1.392   .     S
C1608  C1620   1.394   .     A
C1608  H1670   1.083   .     S
C1609  C1620   1.396   .     A
C1609  O1684   1.384   .     S
C1610  C1711   1.347   .     S
C1610  H1740   1.088   .     S
C1612  C1621   1.408   .     A
C1612  O1686   1.383   .     S
C1612  C1619   1.409   .     A
C1613  C1616   1.450   .     S
C1613  C1014   1.331   1_565 S
C1613  H1051   1.088   1_565 S
C1614  C1615   1.434   .     S
C1615  O1695   1.273   .     A
C1615  O1687   1.273   .     A
C1616  O1690   1.271   .     A
C1616  O1696   1.270   .     A
C1617  O1679   1.277   .     A
C1617  C1620   1.457   .     S
C1617  O1677   1.276   .     A
C1618  C1619   1.481   .     S
C1618  O1678   1.281   .     A
C1618  O1680   1.288   .     A
C1619  C1623   1.395   .     A
C1621  O1685   1.385   .     S
C1621  C1635   1.421   .     A
C1622  H1675   1.109   .     S
C1622  O1681   1.411   .     S
C1622  H1674   1.111   .     S
C1622  H1673   1.114   .     S
C1623  C1634   1.406   .     A
C1623  H1672   1.078   .     S
C1624  H1642   1.114   .     S
C1624  O1682   1.413   .     S
C1624  H1641   1.110   .     S
C1624  H1643   1.109   .     S
C1625  O1683   1.412   .     S
C1625  H1646   1.109   .     S
C1625  H1744   1.112   .     S
C1625  H1745   1.113   .     S
C1626  C1627   1.520   .     S
C1626  H1648   1.116   .     S
C1626  H1647   1.114   .     S
C1626  O1684   1.413   .     S
C1627  H1650   1.111   .     S
C1627  H1652   1.110   .     S
C1627  H1649   1.111   .     S
C1628  H1654   1.112   .     S
C1628  H1653   1.115   .     S
C1628  O1685   1.414   .     S
C1628  C629    1.522   1_556 S
C1629  H1657   1.111   .     S
C1630  H1660   1.109   .     S
C1630  O1686   1.411   .     S
C1630  H1659   1.114   .     S
C1630  H1658   1.113   .     S
C1631  H1661   1.113   .     S
C1631  H1664   1.109   .     S
C1631  H1663   1.113   .     S
C1631  O1688   1.410   .     S
C1632  O1689   1.413   .     S
C1632  H1666   1.114   .     S
C1632  C1633   1.521   .     S
C1632  H1665   1.115   .     S
C1633  H1667   1.111   .     S
C1633  H1669   1.110   .     S
C1633  H1668   1.110   .     S
C1634  C1635   1.423   .     A
C1634  C1636   1.425   .     A
C1635  C739    1.414   1_556 S
C1636  C737    1.415   1_556 S
C1637  C1638   1.418   .     A
C1638  C1639   1.403   .     A
C1638  O1688   1.384   .     S
C1639  O1681   1.384   .     S
H1655  C729    1.111   1_556 S
H1656  C729    1.109   1_556 S
H1662  C1014   1.086   1_565 S
O1676  Zn1699  1.935   .     S
O1676  Zn1698  1.940   .     S
O1676  Zn1697  1.949   .     S
O1676  Zn1700  1.929   .     S
O1677  Zn1698  1.918   .     S
O1678  Zn1700  1.924   .     S
O1679  Zn1699  1.921   .     S
O1680  Zn1697  1.915   .     S
O1683  C1711   1.400   .     S
O1687  Zn1697  1.927   .     S
O1690  Zn1700  1.930   .     S
O1691  Zn1698  1.932   .     S
O1692  Zn1699  1.938   .     S
O1693  Zn1700  1.937   .     S
O1694  Zn1697  1.931   .     S
O1695  Zn1698  1.932   .     S
O1696  Zn1699  1.927   .     S
C1701  C1711   1.444   .     S
C1701  O1791   1.268   .     A
C1701  O1793   1.262   .     A
C1702  O1789   1.383   .     S
C1702  C1736   1.425   .     A
C1702  C1703   1.395   .     A
C1703  H1771   1.083   .     S
C1703  C805    1.398   1_556 S
C1704  O1794   1.268   .     A
C1704  C1710   1.456   .     S
C1704  O1792   1.283   .     A
C1705  C1707   1.414   .     A
C1705  C1706   1.419   .     A
C1706  C1709   1.417   .     A
C1706  C1737   1.424   .     A
C1707  C1708   1.408   .     A
C1707  O1782   1.392   .     S
C1708  C1720   1.394   .     A
C1708  H1770   1.083   .     S
C1709  C1720   1.396   .     A
C1709  O1784   1.384   .     S
C1710  C1511   1.347   1_655 S
C1710  H1540   1.088   1_655 S
C1712  C1721   1.408   .     A
C1712  O1786   1.383   .     S
C1712  C1719   1.409   .     A
C1713  C1716   1.450   .     S
C1713  C1114   1.331   1_565 S
C1713  H1151   1.088   1_565 S
C1714  C1715   1.434   .     S
C1715  O1795   1.273   .     A
C1715  O1787   1.273   .     A
C1716  O1790   1.271   .     A
C1716  O1796   1.270   .     A
C1717  O1779   1.277   .     A
C1717  C1720   1.457   .     S
C1717  O1777   1.276   .     A
C1718  C1719   1.481   .     S
C1718  O1778   1.281   .     A
C1718  O1780   1.288   .     A
C1719  C1723   1.395   .     A
C1721  O1785   1.385   .     S
C1721  C1735   1.421   .     A
C1722  H1775   1.109   .     S
C1722  O1781   1.411   .     S
C1722  H1774   1.111   .     S
C1722  H1773   1.114   .     S
C1723  C1734   1.406   .     A
C1723  H1772   1.078   .     S
C1724  H1742   1.114   .     S
C1724  O1782   1.413   .     S
C1724  H1741   1.110   .     S
C1724  H1743   1.109   .     S
C1725  O1783   1.412   .     S
C1725  H1746   1.109   .     S
C1725  H1544   1.112   1_655 S
C1725  H1545   1.113   1_655 S
C1726  C1727   1.520   .     S
C1726  H1748   1.116   .     S
C1726  H1747   1.114   .     S
C1726  O1784   1.413   .     S
C1727  H1750   1.111   .     S
C1727  H1752   1.110   .     S
C1727  H1749   1.111   .     S
C1728  H1754   1.112   .     S
C1728  H1753   1.115   .     S
C1728  O1785   1.414   .     S
C1728  C729    1.522   1_556 S
C1729  H1757   1.111   .     S
C1729  C628    1.522   1_655 S
C1730  H1760   1.109   .     S
C1730  O1786   1.411   .     S
C1730  H1759   1.114   .     S
C1730  H1758   1.113   .     S
C1731  H1761   1.113   .     S
C1731  H1764   1.109   .     S
C1731  H1763   1.113   .     S
C1731  O1788   1.410   .     S
C1732  O1789   1.413   .     S
C1732  H1766   1.114   .     S
C1732  C1733   1.521   .     S
C1732  H1765   1.115   .     S
C1733  H1767   1.111   .     S
C1733  H1769   1.110   .     S
C1733  H1768   1.110   .     S
C1734  C1735   1.423   .     A
C1734  C1736   1.425   .     A
C1735  C839    1.414   1_556 S
C1736  C837    1.415   1_556 S
C1737  C1738   1.418   .     A
C1738  C1739   1.403   .     A
C1738  O1788   1.384   .     S
C1739  O1781   1.384   .     S
H1755  C829    1.111   1_556 S
H1756  C829    1.109   1_556 S
H1762  C1114   1.086   1_565 S
O1776  Zn1799  1.935   .     S
O1776  Zn1798  1.940   .     S
O1776  Zn1797  1.949   .     S
O1776  Zn1800  1.929   .     S
O1777  Zn1798  1.918   .     S
O1778  Zn1800  1.924   .     S
O1779  Zn1799  1.921   .     S
O1780  Zn1797  1.915   .     S
O1783  C1511   1.400   1_655 S
O1787  Zn1797  1.927   .     S
O1790  Zn1800  1.930   .     S
O1791  Zn1798  1.932   .     S
O1792  Zn1799  1.938   .     S
O1793  Zn1800  1.937   .     S
O1794  Zn1797  1.931   .     S
O1795  Zn1798  1.932   .     S
O1796  Zn1799  1.927   .     S
