data_str_m1_o10_o16_pcu_sym.124
_audit_creation_date              2020-01-03
_audit_creation_method            'Materials Studio'
_symmetry_space_group_name_H-M    'P1'
_symmetry_Int_Tables_number       1
_symmetry_cell_setting            triclinic
loop_
_symmetry_equiv_pos_as_xyz
  x,y,z
_cell_length_a                    32.7027
_cell_length_b                    32.4348
_cell_length_c                    31.0924
_cell_angle_alpha                 96.4607
_cell_angle_beta                  74.8317
_cell_angle_gamma                 98.0490
loop_
_atom_site_label
_atom_site_type_symbol
_atom_site_fract_x
_atom_site_fract_y
_atom_site_fract_z
_atom_site_U_iso_or_equiv
_atom_site_adp_type
_atom_site_occupancy
C1     C     0.05318   0.16041   0.25934   0.00000  Uiso   1.00
C2     C     0.17399   0.16587   0.05967   0.00000  Uiso   1.00
C3     C     0.20866   0.10345   0.05916   0.00000  Uiso   1.00
C4     C     0.28055   0.17357   0.24050   0.00000  Uiso   1.00
C5     C     0.14719   0.19864   0.41862   0.00000  Uiso   1.00
C6     C     0.32586   0.17428   0.23706   0.00000  Uiso   1.00
C7     C     0.00796   0.15710   0.26642   0.00000  Uiso   1.00
C8     C     0.18006   0.32243   0.23655   0.00000  Uiso   1.00
C9     C     0.15194   0.01188   0.26432   0.00000  Uiso   1.00
C10    C     0.15604   0.05596   0.26042   0.00000  Uiso   1.00
C11    C     0.17648   0.27787   0.24025   0.00000  Uiso   1.00
C12    C     0.15601   0.25539   0.47487   0.00000  Uiso   1.00
C13    C     0.18554   0.14766   0.12964   0.00000  Uiso   1.00
C14    C     0.14906   0.18542   0.37094   0.00000  Uiso   1.00
C15    C     0.20260   0.09027   0.01625   0.00000  Uiso   1.00
C16    C     0.19169   0.13998   0.08150   0.00000  Uiso   1.00
C17    C     0.14480   0.24144   0.43503   0.00000  Uiso   1.00
C18    C     0.21493   0.05026   0.49475   0.00000  Uiso   1.00
C19    C     0.14766   0.19667   0.08678   0.00000  Uiso   1.00
C20    C     0.16824   0.22832   0.49920   0.00000  Uiso   1.00
C21    C     0.16528   0.18504   0.48738   0.00000  Uiso   1.00
C22    C     0.15548   0.17016   0.44617   0.00000  Uiso   1.00
C23    C     0.17511   0.15653   0.01391   0.00000  Uiso   1.00
C24    C     0.18415   0.11602   0.49448   0.00000  Uiso   1.00
C25    C     0.17259   0.10147   0.45462   0.00000  Uiso   1.00
C26    C     0.15549   0.12716   0.43291   0.00000  Uiso   1.00
H27    H     0.20585   0.00349   0.21098   0.00000  Uiso   1.00
H28    H     0.10405   0.32386   0.45961   0.00000  Uiso   1.00
H29    H     0.12592   0.33170   0.29021   0.00000  Uiso   1.00
H30    H     0.17536   0.06963   0.44054   0.00000  Uiso   1.00
H31    H     0.18145   0.24229   0.02653   0.00000  Uiso   1.00
H32    H     0.15724   0.28810   0.48660   0.00000  Uiso   1.00
H33    H     0.14360   0.11290   0.40478   0.00000  Uiso   1.00
H34    H     0.01461   0.18904   0.20890   0.00000  Uiso   1.00
H35    H     0.27618   0.12073   0.11105   0.00000  Uiso   1.00
H36    H     0.02512   0.09960   0.32895   0.00000  Uiso   1.00
N37    N     0.22485   0.01840   0.47746   0.00000  Uiso   1.00
N38    N     0.12665   0.22099   0.10853   0.00000  Uiso   1.00
O39    O     0.16667   0.16667   0.25000   0.00000  Uiso   1.00
O40    O     0.15451   0.12637   0.15459   0.00000  Uiso   1.00
O41    O     0.12940   0.20391   0.34968   0.00000  Uiso   1.00
O42    O     0.20824   0.17759   0.14606   0.00000  Uiso   1.00
O43    O     0.17451   0.15880   0.34968   0.00000  Uiso   1.00
O44    O     0.20085   0.03803   0.10724   0.00000  Uiso   1.00
O45    O     0.26948   0.05282   0.05360   0.00000  Uiso   1.00
O46    O     0.25317   0.10050   0.12695   0.00000  Uiso   1.00
O47    O     0.28321   0.16552   0.34548   0.00000  Uiso   1.00
O48    O     0.28497   0.09537   0.30671   0.00000  Uiso   1.00
O49    O     0.01188   0.12413   0.34592   0.00000  Uiso   1.00
O50    O     0.17930   0.08019   0.28214   0.00000  Uiso   1.00
O51    O     0.16566   0.28525   0.36254   0.00000  Uiso   1.00
O52    O     0.08943   0.26743   0.39603   0.00000  Uiso   1.00
O53    O     0.13110   0.32661   0.43603   0.00000  Uiso   1.00
O54    O     0.14632   0.26085   0.27014   0.00000  Uiso   1.00
O55    O     0.07412   0.13291   0.23413   0.00000  Uiso   1.00
O56    O     0.26693   0.19272   0.21361   0.00000  Uiso   1.00
O57    O     0.07071   0.18878   0.28213   0.00000  Uiso   1.00
O58    O     0.25491   0.15226   0.27014   0.00000  Uiso   1.00
O59    O     0.13760   0.06944   0.23413   0.00000  Uiso   1.00
O60    O     0.20345   0.25620   0.21361   0.00000  Uiso   1.00
S61    S     0.23354   0.07225   0.08653   0.00000  Uiso   1.00
S62    S     0.31172   0.13505   0.31696   0.00000  Uiso   1.00
S63    S     0.13230   0.28018   0.40581   0.00000  Uiso   1.00
Zn64   Zn    0.19338   0.13994   0.28734   0.00000  Uiso   1.00
Zn65   Zn    0.13379   0.12458   0.21876   0.00000  Uiso   1.00
Zn66   Zn    0.21056   0.19775   0.20657   0.00000  Uiso   1.00
Zn67   Zn    0.12893   0.20439   0.28734   0.00000  Uiso   1.00
C68    C     0.38651   0.16041   0.25934   0.00000  Uiso   1.00
C69    C     0.50732   0.16587   0.05967   0.00000  Uiso   1.00
C70    C     0.54200   0.10345   0.05916   0.00000  Uiso   1.00
C71    C     0.61388   0.17357   0.24050   0.00000  Uiso   1.00
C72    C     0.48052   0.19864   0.41862   0.00000  Uiso   1.00
C73    C     0.65920   0.17428   0.23706   0.00000  Uiso   1.00
C74    C     0.34129   0.15710   0.26642   0.00000  Uiso   1.00
C75    C     0.51339   0.32243   0.23655   0.00000  Uiso   1.00
C76    C     0.48527   0.01188   0.26432   0.00000  Uiso   1.00
C77    C     0.48938   0.05596   0.26042   0.00000  Uiso   1.00
C78    C     0.50981   0.27787   0.24025   0.00000  Uiso   1.00
C79    C     0.48934   0.25539   0.47487   0.00000  Uiso   1.00
C80    C     0.51887   0.14766   0.12964   0.00000  Uiso   1.00
C81    C     0.48240   0.18542   0.37094   0.00000  Uiso   1.00
C82    C     0.53594   0.09027   0.01625   0.00000  Uiso   1.00
C83    C     0.52502   0.13998   0.08150   0.00000  Uiso   1.00
C84    C     0.47813   0.24144   0.43503   0.00000  Uiso   1.00
C85    C     0.54827   0.05026   0.49475   0.00000  Uiso   1.00
C86    C     0.48099   0.19667   0.08678   0.00000  Uiso   1.00
C87    C     0.50157   0.22832   0.49920   0.00000  Uiso   1.00
C88    C     0.49861   0.18504   0.48738   0.00000  Uiso   1.00
C89    C     0.48881   0.17016   0.44617   0.00000  Uiso   1.00
C90    C     0.50845   0.15653   0.01391   0.00000  Uiso   1.00
C91    C     0.51749   0.11602   0.49448   0.00000  Uiso   1.00
C92    C     0.50592   0.10147   0.45462   0.00000  Uiso   1.00
C93    C     0.48883   0.12716   0.43291   0.00000  Uiso   1.00
H94    H     0.53918   0.00349   0.21098   0.00000  Uiso   1.00
H95    H     0.43738   0.32386   0.45961   0.00000  Uiso   1.00
H96    H     0.45926   0.33170   0.29021   0.00000  Uiso   1.00
H97    H     0.50869   0.06963   0.44054   0.00000  Uiso   1.00
H98    H     0.51478   0.24229   0.02653   0.00000  Uiso   1.00
H99    H     0.49057   0.28810   0.48660   0.00000  Uiso   1.00
H100   H     0.47693   0.11290   0.40478   0.00000  Uiso   1.00
H101   H     0.34794   0.18904   0.20890   0.00000  Uiso   1.00
H102   H     0.60951   0.12073   0.11105   0.00000  Uiso   1.00
H103   H     0.35846   0.09960   0.32895   0.00000  Uiso   1.00
N104   N     0.55818   0.01840   0.47746   0.00000  Uiso   1.00
N105   N     0.45999   0.22099   0.10853   0.00000  Uiso   1.00
O106   O     0.50000   0.16667   0.25000   0.00000  Uiso   1.00
O107   O     0.48784   0.12637   0.15459   0.00000  Uiso   1.00
O108   O     0.46274   0.20391   0.34968   0.00000  Uiso   1.00
O109   O     0.54157   0.17759   0.14606   0.00000  Uiso   1.00
O110   O     0.50785   0.15880   0.34968   0.00000  Uiso   1.00
O111   O     0.53418   0.03803   0.10724   0.00000  Uiso   1.00
O112   O     0.60282   0.05282   0.05360   0.00000  Uiso   1.00
O113   O     0.58651   0.10050   0.12695   0.00000  Uiso   1.00
O114   O     0.61654   0.16552   0.34548   0.00000  Uiso   1.00
O115   O     0.61830   0.09537   0.30671   0.00000  Uiso   1.00
O116   O     0.34522   0.12413   0.34592   0.00000  Uiso   1.00
O117   O     0.51264   0.08019   0.28214   0.00000  Uiso   1.00
O118   O     0.49899   0.28525   0.36254   0.00000  Uiso   1.00
O119   O     0.42277   0.26743   0.39603   0.00000  Uiso   1.00
O120   O     0.46443   0.32661   0.43603   0.00000  Uiso   1.00
O121   O     0.47965   0.26085   0.27014   0.00000  Uiso   1.00
O122   O     0.40745   0.13291   0.23413   0.00000  Uiso   1.00
O123   O     0.60026   0.19272   0.21361   0.00000  Uiso   1.00
O124   O     0.40405   0.18878   0.28213   0.00000  Uiso   1.00
O125   O     0.58824   0.15226   0.27014   0.00000  Uiso   1.00
O126   O     0.47093   0.06944   0.23413   0.00000  Uiso   1.00
O127   O     0.53678   0.25620   0.21361   0.00000  Uiso   1.00
S128   S     0.56687   0.07225   0.08653   0.00000  Uiso   1.00
S129   S     0.64506   0.13505   0.31696   0.00000  Uiso   1.00
S130   S     0.46564   0.28018   0.40581   0.00000  Uiso   1.00
Zn131  Zn    0.52672   0.13994   0.28734   0.00000  Uiso   1.00
Zn132  Zn    0.46713   0.12458   0.21876   0.00000  Uiso   1.00
Zn133  Zn    0.54389   0.19775   0.20657   0.00000  Uiso   1.00
Zn134  Zn    0.46226   0.20439   0.28734   0.00000  Uiso   1.00
C135   C     0.71985   0.16041   0.25934   0.00000  Uiso   1.00
C136   C     0.84066   0.16587   0.05967   0.00000  Uiso   1.00
C137   C     0.87533   0.10345   0.05916   0.00000  Uiso   1.00
C138   C     0.94722   0.17357   0.24050   0.00000  Uiso   1.00
C139   C     0.81385   0.19864   0.41862   0.00000  Uiso   1.00
C140   C     0.99253   0.17428   0.23706   0.00000  Uiso   1.00
C141   C     0.67463   0.15710   0.26642   0.00000  Uiso   1.00
C142   C     0.84673   0.32243   0.23655   0.00000  Uiso   1.00
C143   C     0.81861   0.01188   0.26432   0.00000  Uiso   1.00
C144   C     0.82271   0.05596   0.26042   0.00000  Uiso   1.00
C145   C     0.84314   0.27787   0.24025   0.00000  Uiso   1.00
C146   C     0.82268   0.25539   0.47487   0.00000  Uiso   1.00
C147   C     0.85221   0.14766   0.12964   0.00000  Uiso   1.00
C148   C     0.81573   0.18542   0.37094   0.00000  Uiso   1.00
C149   C     0.86927   0.09027   0.01625   0.00000  Uiso   1.00
C150   C     0.85835   0.13998   0.08150   0.00000  Uiso   1.00
C151   C     0.81147   0.24144   0.43503   0.00000  Uiso   1.00
C152   C     0.88160   0.05026   0.49475   0.00000  Uiso   1.00
C153   C     0.81432   0.19667   0.08678   0.00000  Uiso   1.00
C154   C     0.83490   0.22832   0.49920   0.00000  Uiso   1.00
C155   C     0.83195   0.18504   0.48738   0.00000  Uiso   1.00
C156   C     0.82215   0.17016   0.44617   0.00000  Uiso   1.00
C157   C     0.84178   0.15653   0.01391   0.00000  Uiso   1.00
C158   C     0.85082   0.11602   0.49448   0.00000  Uiso   1.00
C159   C     0.83925   0.10147   0.45462   0.00000  Uiso   1.00
C160   C     0.82216   0.12716   0.43291   0.00000  Uiso   1.00
H161   H     0.87252   0.00349   0.21098   0.00000  Uiso   1.00
H162   H     0.77071   0.32386   0.45961   0.00000  Uiso   1.00
H163   H     0.79259   0.33170   0.29021   0.00000  Uiso   1.00
H164   H     0.84202   0.06963   0.44054   0.00000  Uiso   1.00
H165   H     0.84811   0.24229   0.02653   0.00000  Uiso   1.00
H166   H     0.82390   0.28810   0.48660   0.00000  Uiso   1.00
H167   H     0.81027   0.11290   0.40478   0.00000  Uiso   1.00
H168   H     0.68128   0.18904   0.20890   0.00000  Uiso   1.00
H169   H     0.94285   0.12073   0.11105   0.00000  Uiso   1.00
H170   H     0.69179   0.09960   0.32895   0.00000  Uiso   1.00
N171   N     0.89151   0.01840   0.47746   0.00000  Uiso   1.00
N172   N     0.79332   0.22099   0.10853   0.00000  Uiso   1.00
O173   O     0.83333   0.16667   0.25000   0.00000  Uiso   1.00
O174   O     0.82118   0.12637   0.15459   0.00000  Uiso   1.00
O175   O     0.79607   0.20391   0.34968   0.00000  Uiso   1.00
O176   O     0.87491   0.17759   0.14606   0.00000  Uiso   1.00
O177   O     0.84118   0.15880   0.34968   0.00000  Uiso   1.00
O178   O     0.86752   0.03803   0.10724   0.00000  Uiso   1.00
O179   O     0.93615   0.05282   0.05360   0.00000  Uiso   1.00
O180   O     0.91984   0.10050   0.12695   0.00000  Uiso   1.00
O181   O     0.94988   0.16552   0.34548   0.00000  Uiso   1.00
O182   O     0.95164   0.09537   0.30671   0.00000  Uiso   1.00
O183   O     0.67855   0.12413   0.34592   0.00000  Uiso   1.00
O184   O     0.84597   0.08019   0.28214   0.00000  Uiso   1.00
O185   O     0.83232   0.28525   0.36254   0.00000  Uiso   1.00
O186   O     0.75610   0.26743   0.39603   0.00000  Uiso   1.00
O187   O     0.79777   0.32661   0.43603   0.00000  Uiso   1.00
O188   O     0.81298   0.26085   0.27014   0.00000  Uiso   1.00
O189   O     0.74078   0.13291   0.23413   0.00000  Uiso   1.00
O190   O     0.93360   0.19272   0.21361   0.00000  Uiso   1.00
O191   O     0.73738   0.18878   0.28213   0.00000  Uiso   1.00
O192   O     0.92158   0.15226   0.27014   0.00000  Uiso   1.00
O193   O     0.80426   0.06944   0.23413   0.00000  Uiso   1.00
O194   O     0.87012   0.25620   0.21361   0.00000  Uiso   1.00
S195   S     0.90021   0.07225   0.08653   0.00000  Uiso   1.00
S196   S     0.97839   0.13505   0.31696   0.00000  Uiso   1.00
S197   S     0.79897   0.28018   0.40581   0.00000  Uiso   1.00
Zn198  Zn    0.86005   0.13994   0.28734   0.00000  Uiso   1.00
Zn199  Zn    0.80046   0.12458   0.21876   0.00000  Uiso   1.00
Zn200  Zn    0.87723   0.19775   0.20657   0.00000  Uiso   1.00
Zn201  Zn    0.79560   0.20439   0.28734   0.00000  Uiso   1.00
C202   C     0.05318   0.49374   0.25934   0.00000  Uiso   1.00
C203   C     0.17399   0.49920   0.05967   0.00000  Uiso   1.00
C204   C     0.20866   0.43678   0.05916   0.00000  Uiso   1.00
C205   C     0.28055   0.50691   0.24050   0.00000  Uiso   1.00
C206   C     0.14719   0.53197   0.41862   0.00000  Uiso   1.00
C207   C     0.32586   0.50761   0.23706   0.00000  Uiso   1.00
C208   C     0.00796   0.49044   0.26642   0.00000  Uiso   1.00
C209   C     0.18006   0.65576   0.23655   0.00000  Uiso   1.00
C210   C     0.15194   0.34521   0.26432   0.00000  Uiso   1.00
C211   C     0.15604   0.38929   0.26042   0.00000  Uiso   1.00
C212   C     0.17648   0.61120   0.24025   0.00000  Uiso   1.00
C213   C     0.15601   0.58872   0.47487   0.00000  Uiso   1.00
C214   C     0.18554   0.48100   0.12964   0.00000  Uiso   1.00
C215   C     0.14906   0.51875   0.37094   0.00000  Uiso   1.00
C216   C     0.20260   0.42360   0.01625   0.00000  Uiso   1.00
C217   C     0.19169   0.47332   0.08150   0.00000  Uiso   1.00
C218   C     0.14480   0.57477   0.43503   0.00000  Uiso   1.00
C219   C     0.21493   0.38359   0.49475   0.00000  Uiso   1.00
C220   C     0.14766   0.53000   0.08678   0.00000  Uiso   1.00
C221   C     0.16824   0.56165   0.49920   0.00000  Uiso   1.00
C222   C     0.16528   0.51837   0.48738   0.00000  Uiso   1.00
C223   C     0.15548   0.50349   0.44617   0.00000  Uiso   1.00
C224   C     0.17511   0.48987   0.01391   0.00000  Uiso   1.00
C225   C     0.18415   0.44935   0.49448   0.00000  Uiso   1.00
C226   C     0.17259   0.43480   0.45462   0.00000  Uiso   1.00
C227   C     0.15549   0.46049   0.43291   0.00000  Uiso   1.00
H228   H     0.20585   0.33683   0.21098   0.00000  Uiso   1.00
H229   H     0.10405   0.65720   0.45961   0.00000  Uiso   1.00
H230   H     0.12592   0.66503   0.29021   0.00000  Uiso   1.00
H231   H     0.17536   0.40296   0.44054   0.00000  Uiso   1.00
H232   H     0.18145   0.57562   0.02653   0.00000  Uiso   1.00
H233   H     0.15724   0.62143   0.48660   0.00000  Uiso   1.00
H234   H     0.14360   0.44624   0.40478   0.00000  Uiso   1.00
H235   H     0.01461   0.52237   0.20890   0.00000  Uiso   1.00
H236   H     0.27618   0.45407   0.11105   0.00000  Uiso   1.00
H237   H     0.02512   0.43293   0.32895   0.00000  Uiso   1.00
N238   N     0.22485   0.35173   0.47746   0.00000  Uiso   1.00
N239   N     0.12665   0.55433   0.10853   0.00000  Uiso   1.00
O240   O     0.16667   0.50000   0.25000   0.00000  Uiso   1.00
O241   O     0.15451   0.45970   0.15459   0.00000  Uiso   1.00
O242   O     0.12940   0.53724   0.34968   0.00000  Uiso   1.00
O243   O     0.20824   0.51092   0.14606   0.00000  Uiso   1.00
O244   O     0.17451   0.49213   0.34968   0.00000  Uiso   1.00
O245   O     0.20085   0.37137   0.10724   0.00000  Uiso   1.00
O246   O     0.26948   0.38615   0.05360   0.00000  Uiso   1.00
O247   O     0.25317   0.43383   0.12695   0.00000  Uiso   1.00
O248   O     0.28321   0.49885   0.34548   0.00000  Uiso   1.00
O249   O     0.28497   0.42870   0.30671   0.00000  Uiso   1.00
O250   O     0.01188   0.45747   0.34592   0.00000  Uiso   1.00
O251   O     0.17930   0.41352   0.28214   0.00000  Uiso   1.00
O252   O     0.16566   0.61858   0.36254   0.00000  Uiso   1.00
O253   O     0.08943   0.60077   0.39603   0.00000  Uiso   1.00
O254   O     0.13110   0.65994   0.43603   0.00000  Uiso   1.00
O255   O     0.14632   0.59418   0.27014   0.00000  Uiso   1.00
O256   O     0.07412   0.46625   0.23413   0.00000  Uiso   1.00
O257   O     0.26693   0.52605   0.21361   0.00000  Uiso   1.00
O258   O     0.07071   0.52211   0.28213   0.00000  Uiso   1.00
O259   O     0.25491   0.48559   0.27014   0.00000  Uiso   1.00
O260   O     0.13760   0.40277   0.23413   0.00000  Uiso   1.00
O261   O     0.20345   0.58953   0.21361   0.00000  Uiso   1.00
S262   S     0.23354   0.40558   0.08653   0.00000  Uiso   1.00
S263   S     0.31172   0.46838   0.31696   0.00000  Uiso   1.00
S264   S     0.13230   0.61352   0.40581   0.00000  Uiso   1.00
Zn265  Zn    0.19338   0.47327   0.28734   0.00000  Uiso   1.00
Zn266  Zn    0.13379   0.45791   0.21876   0.00000  Uiso   1.00
Zn267  Zn    0.21056   0.53109   0.20657   0.00000  Uiso   1.00
Zn268  Zn    0.12893   0.53773   0.28734   0.00000  Uiso   1.00
C269   C     0.38651   0.49374   0.25934   0.00000  Uiso   1.00
C270   C     0.50732   0.49920   0.05967   0.00000  Uiso   1.00
C271   C     0.54200   0.43678   0.05916   0.00000  Uiso   1.00
C272   C     0.61388   0.50691   0.24050   0.00000  Uiso   1.00
C273   C     0.48052   0.53197   0.41862   0.00000  Uiso   1.00
C274   C     0.65920   0.50761   0.23706   0.00000  Uiso   1.00
C275   C     0.34129   0.49044   0.26642   0.00000  Uiso   1.00
C276   C     0.51339   0.65576   0.23655   0.00000  Uiso   1.00
C277   C     0.48527   0.34521   0.26432   0.00000  Uiso   1.00
C278   C     0.48938   0.38929   0.26042   0.00000  Uiso   1.00
C279   C     0.50981   0.61120   0.24025   0.00000  Uiso   1.00
C280   C     0.48934   0.58872   0.47487   0.00000  Uiso   1.00
C281   C     0.51887   0.48100   0.12964   0.00000  Uiso   1.00
C282   C     0.48240   0.51875   0.37094   0.00000  Uiso   1.00
C283   C     0.53594   0.42360   0.01625   0.00000  Uiso   1.00
C284   C     0.52502   0.47332   0.08150   0.00000  Uiso   1.00
C285   C     0.47813   0.57477   0.43503   0.00000  Uiso   1.00
C286   C     0.54827   0.38359   0.49475   0.00000  Uiso   1.00
C287   C     0.48099   0.53000   0.08678   0.00000  Uiso   1.00
C288   C     0.50157   0.56165   0.49920   0.00000  Uiso   1.00
C289   C     0.49861   0.51837   0.48738   0.00000  Uiso   1.00
C290   C     0.48881   0.50349   0.44617   0.00000  Uiso   1.00
C291   C     0.50845   0.48987   0.01391   0.00000  Uiso   1.00
C292   C     0.51749   0.44935   0.49448   0.00000  Uiso   1.00
C293   C     0.50592   0.43480   0.45462   0.00000  Uiso   1.00
C294   C     0.48883   0.46049   0.43291   0.00000  Uiso   1.00
H295   H     0.53918   0.33683   0.21098   0.00000  Uiso   1.00
H296   H     0.43738   0.65720   0.45961   0.00000  Uiso   1.00
H297   H     0.45926   0.66503   0.29021   0.00000  Uiso   1.00
H298   H     0.50869   0.40296   0.44054   0.00000  Uiso   1.00
H299   H     0.51478   0.57562   0.02653   0.00000  Uiso   1.00
H300   H     0.49057   0.62143   0.48660   0.00000  Uiso   1.00
H301   H     0.47693   0.44624   0.40478   0.00000  Uiso   1.00
H302   H     0.34794   0.52237   0.20890   0.00000  Uiso   1.00
H303   H     0.60951   0.45407   0.11105   0.00000  Uiso   1.00
H304   H     0.35846   0.43293   0.32895   0.00000  Uiso   1.00
N305   N     0.55818   0.35173   0.47746   0.00000  Uiso   1.00
N306   N     0.45999   0.55433   0.10853   0.00000  Uiso   1.00
O307   O     0.50000   0.50000   0.25000   0.00000  Uiso   1.00
O308   O     0.48784   0.45970   0.15459   0.00000  Uiso   1.00
O309   O     0.46274   0.53724   0.34968   0.00000  Uiso   1.00
O310   O     0.54157   0.51092   0.14606   0.00000  Uiso   1.00
O311   O     0.50785   0.49213   0.34968   0.00000  Uiso   1.00
O312   O     0.53418   0.37137   0.10724   0.00000  Uiso   1.00
O313   O     0.60282   0.38615   0.05360   0.00000  Uiso   1.00
O314   O     0.58651   0.43383   0.12695   0.00000  Uiso   1.00
O315   O     0.61654   0.49885   0.34548   0.00000  Uiso   1.00
O316   O     0.61830   0.42870   0.30671   0.00000  Uiso   1.00
O317   O     0.34522   0.45747   0.34592   0.00000  Uiso   1.00
O318   O     0.51264   0.41352   0.28214   0.00000  Uiso   1.00
O319   O     0.49899   0.61858   0.36254   0.00000  Uiso   1.00
O320   O     0.42277   0.60077   0.39603   0.00000  Uiso   1.00
O321   O     0.46443   0.65994   0.43603   0.00000  Uiso   1.00
O322   O     0.47965   0.59418   0.27014   0.00000  Uiso   1.00
O323   O     0.40745   0.46625   0.23413   0.00000  Uiso   1.00
O324   O     0.60026   0.52605   0.21361   0.00000  Uiso   1.00
O325   O     0.40405   0.52211   0.28213   0.00000  Uiso   1.00
O326   O     0.58824   0.48559   0.27014   0.00000  Uiso   1.00
O327   O     0.47093   0.40277   0.23413   0.00000  Uiso   1.00
O328   O     0.53678   0.58953   0.21361   0.00000  Uiso   1.00
S329   S     0.56687   0.40558   0.08653   0.00000  Uiso   1.00
S330   S     0.64506   0.46838   0.31696   0.00000  Uiso   1.00
S331   S     0.46564   0.61352   0.40581   0.00000  Uiso   1.00
Zn332  Zn    0.52672   0.47327   0.28734   0.00000  Uiso   1.00
Zn333  Zn    0.46713   0.45791   0.21876   0.00000  Uiso   1.00
Zn334  Zn    0.54389   0.53109   0.20657   0.00000  Uiso   1.00
Zn335  Zn    0.46226   0.53773   0.28734   0.00000  Uiso   1.00
C336   C     0.71985   0.49374   0.25934   0.00000  Uiso   1.00
C337   C     0.84066   0.49920   0.05967   0.00000  Uiso   1.00
C338   C     0.87533   0.43678   0.05916   0.00000  Uiso   1.00
C339   C     0.94722   0.50691   0.24050   0.00000  Uiso   1.00
C340   C     0.81385   0.53197   0.41862   0.00000  Uiso   1.00
C341   C     0.99253   0.50761   0.23706   0.00000  Uiso   1.00
C342   C     0.67463   0.49044   0.26642   0.00000  Uiso   1.00
C343   C     0.84673   0.65576   0.23655   0.00000  Uiso   1.00
C344   C     0.81861   0.34521   0.26432   0.00000  Uiso   1.00
C345   C     0.82271   0.38929   0.26042   0.00000  Uiso   1.00
C346   C     0.84314   0.61120   0.24025   0.00000  Uiso   1.00
C347   C     0.82268   0.58872   0.47487   0.00000  Uiso   1.00
C348   C     0.85221   0.48100   0.12964   0.00000  Uiso   1.00
C349   C     0.81573   0.51875   0.37094   0.00000  Uiso   1.00
C350   C     0.86927   0.42360   0.01625   0.00000  Uiso   1.00
C351   C     0.85835   0.47332   0.08150   0.00000  Uiso   1.00
C352   C     0.81147   0.57477   0.43503   0.00000  Uiso   1.00
C353   C     0.88160   0.38359   0.49475   0.00000  Uiso   1.00
C354   C     0.81432   0.53000   0.08678   0.00000  Uiso   1.00
C355   C     0.83490   0.56165   0.49920   0.00000  Uiso   1.00
C356   C     0.83195   0.51837   0.48738   0.00000  Uiso   1.00
C357   C     0.82215   0.50349   0.44617   0.00000  Uiso   1.00
C358   C     0.84178   0.48987   0.01391   0.00000  Uiso   1.00
C359   C     0.85082   0.44935   0.49448   0.00000  Uiso   1.00
C360   C     0.83925   0.43480   0.45462   0.00000  Uiso   1.00
C361   C     0.82216   0.46049   0.43291   0.00000  Uiso   1.00
H362   H     0.87252   0.33683   0.21098   0.00000  Uiso   1.00
H363   H     0.77071   0.65720   0.45961   0.00000  Uiso   1.00
H364   H     0.79259   0.66503   0.29021   0.00000  Uiso   1.00
H365   H     0.84202   0.40296   0.44054   0.00000  Uiso   1.00
H366   H     0.84811   0.57562   0.02653   0.00000  Uiso   1.00
H367   H     0.82390   0.62143   0.48660   0.00000  Uiso   1.00
H368   H     0.81027   0.44624   0.40478   0.00000  Uiso   1.00
H369   H     0.68128   0.52237   0.20890   0.00000  Uiso   1.00
H370   H     0.94285   0.45407   0.11105   0.00000  Uiso   1.00
H371   H     0.69179   0.43293   0.32895   0.00000  Uiso   1.00
N372   N     0.89151   0.35173   0.47746   0.00000  Uiso   1.00
N373   N     0.79332   0.55433   0.10853   0.00000  Uiso   1.00
O374   O     0.83333   0.50000   0.25000   0.00000  Uiso   1.00
O375   O     0.82118   0.45970   0.15459   0.00000  Uiso   1.00
O376   O     0.79607   0.53724   0.34968   0.00000  Uiso   1.00
O377   O     0.87491   0.51092   0.14606   0.00000  Uiso   1.00
O378   O     0.84118   0.49213   0.34968   0.00000  Uiso   1.00
O379   O     0.86752   0.37137   0.10724   0.00000  Uiso   1.00
O380   O     0.93615   0.38615   0.05360   0.00000  Uiso   1.00
O381   O     0.91984   0.43383   0.12695   0.00000  Uiso   1.00
O382   O     0.94988   0.49885   0.34548   0.00000  Uiso   1.00
O383   O     0.95164   0.42870   0.30671   0.00000  Uiso   1.00
O384   O     0.67855   0.45747   0.34592   0.00000  Uiso   1.00
O385   O     0.84597   0.41352   0.28214   0.00000  Uiso   1.00
O386   O     0.83232   0.61858   0.36254   0.00000  Uiso   1.00
O387   O     0.75610   0.60077   0.39603   0.00000  Uiso   1.00
O388   O     0.79777   0.65994   0.43603   0.00000  Uiso   1.00
O389   O     0.81298   0.59418   0.27014   0.00000  Uiso   1.00
O390   O     0.74078   0.46625   0.23413   0.00000  Uiso   1.00
O391   O     0.93360   0.52605   0.21361   0.00000  Uiso   1.00
O392   O     0.73738   0.52211   0.28213   0.00000  Uiso   1.00
O393   O     0.92158   0.48559   0.27014   0.00000  Uiso   1.00
O394   O     0.80426   0.40277   0.23413   0.00000  Uiso   1.00
O395   O     0.87012   0.58953   0.21361   0.00000  Uiso   1.00
S396   S     0.90021   0.40558   0.08653   0.00000  Uiso   1.00
S397   S     0.97839   0.46838   0.31696   0.00000  Uiso   1.00
S398   S     0.79897   0.61352   0.40581   0.00000  Uiso   1.00
Zn399  Zn    0.86005   0.47327   0.28734   0.00000  Uiso   1.00
Zn400  Zn    0.80046   0.45791   0.21876   0.00000  Uiso   1.00
Zn401  Zn    0.87723   0.53109   0.20657   0.00000  Uiso   1.00
Zn402  Zn    0.79560   0.53773   0.28734   0.00000  Uiso   1.00
C403   C     0.05318   0.82708   0.25934   0.00000  Uiso   1.00
C404   C     0.17399   0.83253   0.05967   0.00000  Uiso   1.00
C405   C     0.20866   0.77012   0.05916   0.00000  Uiso   1.00
C406   C     0.28055   0.84024   0.24050   0.00000  Uiso   1.00
C407   C     0.14719   0.86530   0.41862   0.00000  Uiso   1.00
C408   C     0.32586   0.84094   0.23706   0.00000  Uiso   1.00
C409   C     0.00796   0.82377   0.26642   0.00000  Uiso   1.00
C410   C     0.18006   0.98909   0.23655   0.00000  Uiso   1.00
C411   C     0.15194   0.67855   0.26432   0.00000  Uiso   1.00
C412   C     0.15604   0.72262   0.26042   0.00000  Uiso   1.00
C413   C     0.17648   0.94453   0.24025   0.00000  Uiso   1.00
C414   C     0.15601   0.92206   0.47487   0.00000  Uiso   1.00
C415   C     0.18554   0.81433   0.12964   0.00000  Uiso   1.00
C416   C     0.14906   0.85208   0.37094   0.00000  Uiso   1.00
C417   C     0.20260   0.75694   0.01625   0.00000  Uiso   1.00
C418   C     0.19169   0.80665   0.08150   0.00000  Uiso   1.00
C419   C     0.14480   0.90811   0.43503   0.00000  Uiso   1.00
C420   C     0.21493   0.71692   0.49475   0.00000  Uiso   1.00
C421   C     0.14766   0.86334   0.08678   0.00000  Uiso   1.00
C422   C     0.16824   0.89499   0.49920   0.00000  Uiso   1.00
C423   C     0.16528   0.85171   0.48738   0.00000  Uiso   1.00
C424   C     0.15548   0.83683   0.44617   0.00000  Uiso   1.00
C425   C     0.17511   0.82320   0.01391   0.00000  Uiso   1.00
C426   C     0.18415   0.78269   0.49448   0.00000  Uiso   1.00
C427   C     0.17259   0.76813   0.45462   0.00000  Uiso   1.00
C428   C     0.15549   0.79383   0.43291   0.00000  Uiso   1.00
H429   H     0.20585   0.67016   0.21098   0.00000  Uiso   1.00
H430   H     0.10405   0.99053   0.45961   0.00000  Uiso   1.00
H431   H     0.12592   0.99837   0.29021   0.00000  Uiso   1.00
H432   H     0.17536   0.73629   0.44054   0.00000  Uiso   1.00
H433   H     0.18145   0.90895   0.02653   0.00000  Uiso   1.00
H434   H     0.15724   0.95476   0.48660   0.00000  Uiso   1.00
H435   H     0.14360   0.77957   0.40478   0.00000  Uiso   1.00
H436   H     0.01461   0.85571   0.20890   0.00000  Uiso   1.00
H437   H     0.27618   0.78740   0.11105   0.00000  Uiso   1.00
H438   H     0.02512   0.76626   0.32895   0.00000  Uiso   1.00
N439   N     0.22485   0.68506   0.47746   0.00000  Uiso   1.00
N440   N     0.12665   0.88766   0.10853   0.00000  Uiso   1.00
O441   O     0.16667   0.83333   0.25000   0.00000  Uiso   1.00
O442   O     0.15451   0.79304   0.15459   0.00000  Uiso   1.00
O443   O     0.12940   0.87058   0.34968   0.00000  Uiso   1.00
O444   O     0.20824   0.84425   0.14606   0.00000  Uiso   1.00
O445   O     0.17451   0.82546   0.34968   0.00000  Uiso   1.00
O446   O     0.20085   0.70470   0.10724   0.00000  Uiso   1.00
O447   O     0.26948   0.71948   0.05360   0.00000  Uiso   1.00
O448   O     0.25317   0.76717   0.12695   0.00000  Uiso   1.00
O449   O     0.28321   0.83218   0.34548   0.00000  Uiso   1.00
O450   O     0.28497   0.76203   0.30671   0.00000  Uiso   1.00
O451   O     0.01188   0.79080   0.34592   0.00000  Uiso   1.00
O452   O     0.17930   0.74686   0.28214   0.00000  Uiso   1.00
O453   O     0.16566   0.95192   0.36254   0.00000  Uiso   1.00
O454   O     0.08943   0.93410   0.39603   0.00000  Uiso   1.00
O455   O     0.13110   0.99328   0.43603   0.00000  Uiso   1.00
O456   O     0.14632   0.92751   0.27014   0.00000  Uiso   1.00
O457   O     0.07412   0.79958   0.23413   0.00000  Uiso   1.00
O458   O     0.26693   0.85939   0.21361   0.00000  Uiso   1.00
O459   O     0.07071   0.85544   0.28213   0.00000  Uiso   1.00
O460   O     0.25491   0.81892   0.27014   0.00000  Uiso   1.00
O461   O     0.13760   0.73610   0.23413   0.00000  Uiso   1.00
O462   O     0.20345   0.92286   0.21361   0.00000  Uiso   1.00
S463   S     0.23354   0.73891   0.08653   0.00000  Uiso   1.00
S464   S     0.31172   0.80172   0.31696   0.00000  Uiso   1.00
S465   S     0.13230   0.94685   0.40581   0.00000  Uiso   1.00
Zn466  Zn    0.19338   0.80661   0.28734   0.00000  Uiso   1.00
Zn467  Zn    0.13379   0.79124   0.21876   0.00000  Uiso   1.00
Zn468  Zn    0.21056   0.86442   0.20657   0.00000  Uiso   1.00
Zn469  Zn    0.12893   0.87106   0.28734   0.00000  Uiso   1.00
C470   C     0.38651   0.82708   0.25934   0.00000  Uiso   1.00
C471   C     0.50732   0.83253   0.05967   0.00000  Uiso   1.00
C472   C     0.54200   0.77012   0.05916   0.00000  Uiso   1.00
C473   C     0.61388   0.84024   0.24050   0.00000  Uiso   1.00
C474   C     0.48052   0.86530   0.41862   0.00000  Uiso   1.00
C475   C     0.65920   0.84094   0.23706   0.00000  Uiso   1.00
C476   C     0.34129   0.82377   0.26642   0.00000  Uiso   1.00
C477   C     0.51339   0.98909   0.23655   0.00000  Uiso   1.00
C478   C     0.48527   0.67855   0.26432   0.00000  Uiso   1.00
C479   C     0.48938   0.72262   0.26042   0.00000  Uiso   1.00
C480   C     0.50981   0.94453   0.24025   0.00000  Uiso   1.00
C481   C     0.48934   0.92206   0.47487   0.00000  Uiso   1.00
C482   C     0.51887   0.81433   0.12964   0.00000  Uiso   1.00
C483   C     0.48240   0.85208   0.37094   0.00000  Uiso   1.00
C484   C     0.53594   0.75694   0.01625   0.00000  Uiso   1.00
C485   C     0.52502   0.80665   0.08150   0.00000  Uiso   1.00
C486   C     0.47813   0.90811   0.43503   0.00000  Uiso   1.00
C487   C     0.54827   0.71692   0.49475   0.00000  Uiso   1.00
C488   C     0.48099   0.86334   0.08678   0.00000  Uiso   1.00
C489   C     0.50157   0.89499   0.49920   0.00000  Uiso   1.00
C490   C     0.49861   0.85171   0.48738   0.00000  Uiso   1.00
C491   C     0.48881   0.83683   0.44617   0.00000  Uiso   1.00
C492   C     0.50845   0.82320   0.01391   0.00000  Uiso   1.00
C493   C     0.51749   0.78269   0.49448   0.00000  Uiso   1.00
C494   C     0.50592   0.76813   0.45462   0.00000  Uiso   1.00
C495   C     0.48883   0.79383   0.43291   0.00000  Uiso   1.00
H496   H     0.53918   0.67016   0.21098   0.00000  Uiso   1.00
H497   H     0.43738   0.99053   0.45961   0.00000  Uiso   1.00
H498   H     0.45926   0.99837   0.29021   0.00000  Uiso   1.00
H499   H     0.50869   0.73629   0.44054   0.00000  Uiso   1.00
H500   H     0.51478   0.90895   0.02653   0.00000  Uiso   1.00
H501   H     0.49057   0.95476   0.48660   0.00000  Uiso   1.00
H502   H     0.47693   0.77957   0.40478   0.00000  Uiso   1.00
H503   H     0.34794   0.85571   0.20890   0.00000  Uiso   1.00
H504   H     0.60951   0.78740   0.11105   0.00000  Uiso   1.00
H505   H     0.35846   0.76626   0.32895   0.00000  Uiso   1.00
N506   N     0.55818   0.68506   0.47746   0.00000  Uiso   1.00
N507   N     0.45999   0.88766   0.10853   0.00000  Uiso   1.00
O508   O     0.50000   0.83333   0.25000   0.00000  Uiso   1.00
O509   O     0.48784   0.79304   0.15459   0.00000  Uiso   1.00
O510   O     0.46274   0.87058   0.34968   0.00000  Uiso   1.00
O511   O     0.54157   0.84425   0.14606   0.00000  Uiso   1.00
O512   O     0.50785   0.82546   0.34968   0.00000  Uiso   1.00
O513   O     0.53418   0.70470   0.10724   0.00000  Uiso   1.00
O514   O     0.60282   0.71948   0.05360   0.00000  Uiso   1.00
O515   O     0.58651   0.76717   0.12695   0.00000  Uiso   1.00
O516   O     0.61654   0.83218   0.34548   0.00000  Uiso   1.00
O517   O     0.61830   0.76203   0.30671   0.00000  Uiso   1.00
O518   O     0.34522   0.79080   0.34592   0.00000  Uiso   1.00
O519   O     0.51264   0.74686   0.28214   0.00000  Uiso   1.00
O520   O     0.49899   0.95192   0.36254   0.00000  Uiso   1.00
O521   O     0.42277   0.93410   0.39603   0.00000  Uiso   1.00
O522   O     0.46443   0.99328   0.43603   0.00000  Uiso   1.00
O523   O     0.47965   0.92751   0.27014   0.00000  Uiso   1.00
O524   O     0.40745   0.79958   0.23413   0.00000  Uiso   1.00
O525   O     0.60026   0.85939   0.21361   0.00000  Uiso   1.00
O526   O     0.40405   0.85544   0.28213   0.00000  Uiso   1.00
O527   O     0.58824   0.81892   0.27014   0.00000  Uiso   1.00
O528   O     0.47093   0.73610   0.23413   0.00000  Uiso   1.00
O529   O     0.53678   0.92286   0.21361   0.00000  Uiso   1.00
S530   S     0.56687   0.73891   0.08653   0.00000  Uiso   1.00
S531   S     0.64506   0.80172   0.31696   0.00000  Uiso   1.00
S532   S     0.46564   0.94685   0.40581   0.00000  Uiso   1.00
Zn533  Zn    0.52672   0.80661   0.28734   0.00000  Uiso   1.00
Zn534  Zn    0.46713   0.79124   0.21876   0.00000  Uiso   1.00
Zn535  Zn    0.54389   0.86442   0.20657   0.00000  Uiso   1.00
Zn536  Zn    0.46226   0.87106   0.28734   0.00000  Uiso   1.00
C537   C     0.71985   0.82708   0.25934   0.00000  Uiso   1.00
C538   C     0.84066   0.83253   0.05967   0.00000  Uiso   1.00
C539   C     0.87533   0.77012   0.05916   0.00000  Uiso   1.00
C540   C     0.94722   0.84024   0.24050   0.00000  Uiso   1.00
C541   C     0.81385   0.86530   0.41862   0.00000  Uiso   1.00
C542   C     0.99253   0.84094   0.23706   0.00000  Uiso   1.00
C543   C     0.67463   0.82377   0.26642   0.00000  Uiso   1.00
C544   C     0.84673   0.98909   0.23655   0.00000  Uiso   1.00
C545   C     0.81861   0.67855   0.26432   0.00000  Uiso   1.00
C546   C     0.82271   0.72262   0.26042   0.00000  Uiso   1.00
C547   C     0.84314   0.94453   0.24025   0.00000  Uiso   1.00
C548   C     0.82268   0.92206   0.47487   0.00000  Uiso   1.00
C549   C     0.85221   0.81433   0.12964   0.00000  Uiso   1.00
C550   C     0.81573   0.85208   0.37094   0.00000  Uiso   1.00
C551   C     0.86927   0.75694   0.01625   0.00000  Uiso   1.00
C552   C     0.85835   0.80665   0.08150   0.00000  Uiso   1.00
C553   C     0.81147   0.90811   0.43503   0.00000  Uiso   1.00
C554   C     0.88160   0.71692   0.49475   0.00000  Uiso   1.00
C555   C     0.81432   0.86334   0.08678   0.00000  Uiso   1.00
C556   C     0.83490   0.89499   0.49920   0.00000  Uiso   1.00
C557   C     0.83195   0.85171   0.48738   0.00000  Uiso   1.00
C558   C     0.82215   0.83683   0.44617   0.00000  Uiso   1.00
C559   C     0.84178   0.82320   0.01391   0.00000  Uiso   1.00
C560   C     0.85082   0.78269   0.49448   0.00000  Uiso   1.00
C561   C     0.83925   0.76813   0.45462   0.00000  Uiso   1.00
C562   C     0.82216   0.79383   0.43291   0.00000  Uiso   1.00
H563   H     0.87252   0.67016   0.21098   0.00000  Uiso   1.00
H564   H     0.77071   0.99053   0.45961   0.00000  Uiso   1.00
H565   H     0.79259   0.99837   0.29021   0.00000  Uiso   1.00
H566   H     0.84202   0.73629   0.44054   0.00000  Uiso   1.00
H567   H     0.84811   0.90895   0.02653   0.00000  Uiso   1.00
H568   H     0.82390   0.95476   0.48660   0.00000  Uiso   1.00
H569   H     0.81027   0.77957   0.40478   0.00000  Uiso   1.00
H570   H     0.68128   0.85571   0.20890   0.00000  Uiso   1.00
H571   H     0.94285   0.78740   0.11105   0.00000  Uiso   1.00
H572   H     0.69179   0.76626   0.32895   0.00000  Uiso   1.00
N573   N     0.89151   0.68506   0.47746   0.00000  Uiso   1.00
N574   N     0.79332   0.88766   0.10853   0.00000  Uiso   1.00
O575   O     0.83333   0.83333   0.25000   0.00000  Uiso   1.00
O576   O     0.82118   0.79304   0.15459   0.00000  Uiso   1.00
O577   O     0.79607   0.87058   0.34968   0.00000  Uiso   1.00
O578   O     0.87491   0.84425   0.14606   0.00000  Uiso   1.00
O579   O     0.84118   0.82546   0.34968   0.00000  Uiso   1.00
O580   O     0.86752   0.70470   0.10724   0.00000  Uiso   1.00
O581   O     0.93615   0.71948   0.05360   0.00000  Uiso   1.00
O582   O     0.91984   0.76717   0.12695   0.00000  Uiso   1.00
O583   O     0.94988   0.83218   0.34548   0.00000  Uiso   1.00
O584   O     0.95164   0.76203   0.30671   0.00000  Uiso   1.00
O585   O     0.67855   0.79080   0.34592   0.00000  Uiso   1.00
O586   O     0.84597   0.74686   0.28214   0.00000  Uiso   1.00
O587   O     0.83232   0.95192   0.36254   0.00000  Uiso   1.00
O588   O     0.75610   0.93410   0.39603   0.00000  Uiso   1.00
O589   O     0.79777   0.99328   0.43603   0.00000  Uiso   1.00
O590   O     0.81298   0.92751   0.27014   0.00000  Uiso   1.00
O591   O     0.74078   0.79958   0.23413   0.00000  Uiso   1.00
O592   O     0.93360   0.85939   0.21361   0.00000  Uiso   1.00
O593   O     0.73738   0.85544   0.28213   0.00000  Uiso   1.00
O594   O     0.92158   0.81892   0.27014   0.00000  Uiso   1.00
O595   O     0.80426   0.73610   0.23413   0.00000  Uiso   1.00
O596   O     0.87012   0.92286   0.21361   0.00000  Uiso   1.00
S597   S     0.90021   0.73891   0.08653   0.00000  Uiso   1.00
S598   S     0.97839   0.80172   0.31696   0.00000  Uiso   1.00
S599   S     0.79897   0.94685   0.40581   0.00000  Uiso   1.00
Zn600  Zn    0.86005   0.80661   0.28734   0.00000  Uiso   1.00
Zn601  Zn    0.80046   0.79124   0.21876   0.00000  Uiso   1.00
Zn602  Zn    0.87723   0.86442   0.20657   0.00000  Uiso   1.00
Zn603  Zn    0.79560   0.87106   0.28734   0.00000  Uiso   1.00
C604   C     0.05318   0.16041   0.75934   0.00000  Uiso   1.00
C605   C     0.17399   0.16587   0.55967   0.00000  Uiso   1.00
C606   C     0.20866   0.10345   0.55916   0.00000  Uiso   1.00
C607   C     0.28055   0.17357   0.74050   0.00000  Uiso   1.00
C608   C     0.14719   0.19864   0.91862   0.00000  Uiso   1.00
C609   C     0.32586   0.17428   0.73706   0.00000  Uiso   1.00
C610   C     0.00796   0.15710   0.76642   0.00000  Uiso   1.00
C611   C     0.18006   0.32243   0.73655   0.00000  Uiso   1.00
C612   C     0.15194   0.01188   0.76432   0.00000  Uiso   1.00
C613   C     0.15604   0.05596   0.76042   0.00000  Uiso   1.00
C614   C     0.17648   0.27787   0.74025   0.00000  Uiso   1.00
C615   C     0.15601   0.25539   0.97487   0.00000  Uiso   1.00
C616   C     0.18554   0.14766   0.62964   0.00000  Uiso   1.00
C617   C     0.14906   0.18542   0.87094   0.00000  Uiso   1.00
C618   C     0.20260   0.09027   0.51625   0.00000  Uiso   1.00
C619   C     0.19169   0.13998   0.58150   0.00000  Uiso   1.00
C620   C     0.14480   0.24144   0.93503   0.00000  Uiso   1.00
C621   C     0.21493   0.05026   0.99475   0.00000  Uiso   1.00
C622   C     0.14766   0.19667   0.58678   0.00000  Uiso   1.00
C623   C     0.16824   0.22832   0.99920   0.00000  Uiso   1.00
C624   C     0.16528   0.18504   0.98738   0.00000  Uiso   1.00
C625   C     0.15548   0.17016   0.94617   0.00000  Uiso   1.00
C626   C     0.17511   0.15653   0.51391   0.00000  Uiso   1.00
C627   C     0.18415   0.11602   0.99448   0.00000  Uiso   1.00
C628   C     0.17259   0.10147   0.95462   0.00000  Uiso   1.00
C629   C     0.15549   0.12716   0.93291   0.00000  Uiso   1.00
H630   H     0.20585   0.00349   0.71098   0.00000  Uiso   1.00
H631   H     0.10405   0.32386   0.95961   0.00000  Uiso   1.00
H632   H     0.12592   0.33170   0.79021   0.00000  Uiso   1.00
H633   H     0.17536   0.06963   0.94054   0.00000  Uiso   1.00
H634   H     0.18145   0.24229   0.52653   0.00000  Uiso   1.00
H635   H     0.15724   0.28810   0.98660   0.00000  Uiso   1.00
H636   H     0.14360   0.11290   0.90478   0.00000  Uiso   1.00
H637   H     0.01461   0.18904   0.70890   0.00000  Uiso   1.00
H638   H     0.27618   0.12073   0.61105   0.00000  Uiso   1.00
H639   H     0.02512   0.09960   0.82895   0.00000  Uiso   1.00
N640   N     0.22485   0.01840   0.97746   0.00000  Uiso   1.00
N641   N     0.12665   0.22099   0.60853   0.00000  Uiso   1.00
O642   O     0.16667   0.16667   0.75000   0.00000  Uiso   1.00
O643   O     0.15451   0.12637   0.65459   0.00000  Uiso   1.00
O644   O     0.12940   0.20391   0.84968   0.00000  Uiso   1.00
O645   O     0.20824   0.17759   0.64606   0.00000  Uiso   1.00
O646   O     0.17451   0.15880   0.84968   0.00000  Uiso   1.00
O647   O     0.20085   0.03803   0.60724   0.00000  Uiso   1.00
O648   O     0.26948   0.05282   0.55360   0.00000  Uiso   1.00
O649   O     0.25317   0.10050   0.62695   0.00000  Uiso   1.00
O650   O     0.28321   0.16552   0.84548   0.00000  Uiso   1.00
O651   O     0.28497   0.09537   0.80671   0.00000  Uiso   1.00
O652   O     0.01188   0.12413   0.84592   0.00000  Uiso   1.00
O653   O     0.17930   0.08019   0.78214   0.00000  Uiso   1.00
O654   O     0.16566   0.28525   0.86254   0.00000  Uiso   1.00
O655   O     0.08943   0.26743   0.89603   0.00000  Uiso   1.00
O656   O     0.13110   0.32661   0.93603   0.00000  Uiso   1.00
O657   O     0.14632   0.26085   0.77014   0.00000  Uiso   1.00
O658   O     0.07412   0.13291   0.73413   0.00000  Uiso   1.00
O659   O     0.26693   0.19272   0.71361   0.00000  Uiso   1.00
O660   O     0.07071   0.18878   0.78213   0.00000  Uiso   1.00
O661   O     0.25491   0.15226   0.77014   0.00000  Uiso   1.00
O662   O     0.13760   0.06944   0.73413   0.00000  Uiso   1.00
O663   O     0.20345   0.25620   0.71361   0.00000  Uiso   1.00
S664   S     0.23354   0.07225   0.58653   0.00000  Uiso   1.00
S665   S     0.31172   0.13505   0.81696   0.00000  Uiso   1.00
S666   S     0.13230   0.28018   0.90581   0.00000  Uiso   1.00
Zn667  Zn    0.19338   0.13994   0.78734   0.00000  Uiso   1.00
Zn668  Zn    0.13379   0.12458   0.71876   0.00000  Uiso   1.00
Zn669  Zn    0.21056   0.19775   0.70657   0.00000  Uiso   1.00
Zn670  Zn    0.12893   0.20439   0.78734   0.00000  Uiso   1.00
C671   C     0.38651   0.16041   0.75934   0.00000  Uiso   1.00
C672   C     0.50732   0.16587   0.55967   0.00000  Uiso   1.00
C673   C     0.54200   0.10345   0.55916   0.00000  Uiso   1.00
C674   C     0.61388   0.17357   0.74050   0.00000  Uiso   1.00
C675   C     0.48052   0.19864   0.91862   0.00000  Uiso   1.00
C676   C     0.65920   0.17428   0.73706   0.00000  Uiso   1.00
C677   C     0.34129   0.15710   0.76642   0.00000  Uiso   1.00
C678   C     0.51339   0.32243   0.73655   0.00000  Uiso   1.00
C679   C     0.48527   0.01188   0.76432   0.00000  Uiso   1.00
C680   C     0.48938   0.05596   0.76042   0.00000  Uiso   1.00
C681   C     0.50981   0.27787   0.74025   0.00000  Uiso   1.00
C682   C     0.48934   0.25539   0.97487   0.00000  Uiso   1.00
C683   C     0.51887   0.14766   0.62964   0.00000  Uiso   1.00
C684   C     0.48240   0.18542   0.87094   0.00000  Uiso   1.00
C685   C     0.53594   0.09027   0.51625   0.00000  Uiso   1.00
C686   C     0.52502   0.13998   0.58150   0.00000  Uiso   1.00
C687   C     0.47813   0.24144   0.93503   0.00000  Uiso   1.00
C688   C     0.54827   0.05026   0.99475   0.00000  Uiso   1.00
C689   C     0.48099   0.19667   0.58678   0.00000  Uiso   1.00
C690   C     0.50157   0.22832   0.99920   0.00000  Uiso   1.00
C691   C     0.49861   0.18504   0.98738   0.00000  Uiso   1.00
C692   C     0.48881   0.17016   0.94617   0.00000  Uiso   1.00
C693   C     0.50845   0.15653   0.51391   0.00000  Uiso   1.00
C694   C     0.51749   0.11602   0.99448   0.00000  Uiso   1.00
C695   C     0.50592   0.10147   0.95462   0.00000  Uiso   1.00
C696   C     0.48883   0.12716   0.93291   0.00000  Uiso   1.00
H697   H     0.53918   0.00349   0.71098   0.00000  Uiso   1.00
H698   H     0.43738   0.32386   0.95961   0.00000  Uiso   1.00
H699   H     0.45926   0.33170   0.79021   0.00000  Uiso   1.00
H700   H     0.50869   0.06963   0.94054   0.00000  Uiso   1.00
H701   H     0.51478   0.24229   0.52653   0.00000  Uiso   1.00
H702   H     0.49057   0.28810   0.98660   0.00000  Uiso   1.00
H703   H     0.47693   0.11290   0.90478   0.00000  Uiso   1.00
H704   H     0.34794   0.18904   0.70890   0.00000  Uiso   1.00
H705   H     0.60951   0.12073   0.61105   0.00000  Uiso   1.00
H706   H     0.35846   0.09960   0.82895   0.00000  Uiso   1.00
N707   N     0.55818   0.01840   0.97746   0.00000  Uiso   1.00
N708   N     0.45999   0.22099   0.60853   0.00000  Uiso   1.00
O709   O     0.50000   0.16667   0.75000   0.00000  Uiso   1.00
O710   O     0.48784   0.12637   0.65459   0.00000  Uiso   1.00
O711   O     0.46274   0.20391   0.84968   0.00000  Uiso   1.00
O712   O     0.54157   0.17759   0.64606   0.00000  Uiso   1.00
O713   O     0.50785   0.15880   0.84968   0.00000  Uiso   1.00
O714   O     0.53418   0.03803   0.60724   0.00000  Uiso   1.00
O715   O     0.60282   0.05282   0.55360   0.00000  Uiso   1.00
O716   O     0.58651   0.10050   0.62695   0.00000  Uiso   1.00
O717   O     0.61654   0.16552   0.84548   0.00000  Uiso   1.00
O718   O     0.61830   0.09537   0.80671   0.00000  Uiso   1.00
O719   O     0.34522   0.12413   0.84592   0.00000  Uiso   1.00
O720   O     0.51264   0.08019   0.78214   0.00000  Uiso   1.00
O721   O     0.49899   0.28525   0.86254   0.00000  Uiso   1.00
O722   O     0.42277   0.26743   0.89603   0.00000  Uiso   1.00
O723   O     0.46443   0.32661   0.93603   0.00000  Uiso   1.00
O724   O     0.47965   0.26085   0.77014   0.00000  Uiso   1.00
O725   O     0.40745   0.13291   0.73413   0.00000  Uiso   1.00
O726   O     0.60026   0.19272   0.71361   0.00000  Uiso   1.00
O727   O     0.40405   0.18878   0.78213   0.00000  Uiso   1.00
O728   O     0.58824   0.15226   0.77014   0.00000  Uiso   1.00
O729   O     0.47093   0.06944   0.73413   0.00000  Uiso   1.00
O730   O     0.53678   0.25620   0.71361   0.00000  Uiso   1.00
S731   S     0.56687   0.07225   0.58653   0.00000  Uiso   1.00
S732   S     0.64506   0.13505   0.81696   0.00000  Uiso   1.00
S733   S     0.46564   0.28018   0.90581   0.00000  Uiso   1.00
Zn734  Zn    0.52672   0.13994   0.78734   0.00000  Uiso   1.00
Zn735  Zn    0.46713   0.12458   0.71876   0.00000  Uiso   1.00
Zn736  Zn    0.54389   0.19775   0.70657   0.00000  Uiso   1.00
Zn737  Zn    0.46226   0.20439   0.78734   0.00000  Uiso   1.00
C738   C     0.71985   0.16041   0.75934   0.00000  Uiso   1.00
C739   C     0.84066   0.16587   0.55967   0.00000  Uiso   1.00
C740   C     0.87533   0.10345   0.55916   0.00000  Uiso   1.00
C741   C     0.94722   0.17357   0.74050   0.00000  Uiso   1.00
C742   C     0.81385   0.19864   0.91862   0.00000  Uiso   1.00
C743   C     0.99253   0.17428   0.73706   0.00000  Uiso   1.00
C744   C     0.67463   0.15710   0.76642   0.00000  Uiso   1.00
C745   C     0.84673   0.32243   0.73655   0.00000  Uiso   1.00
C746   C     0.81861   0.01188   0.76432   0.00000  Uiso   1.00
C747   C     0.82271   0.05596   0.76042   0.00000  Uiso   1.00
C748   C     0.84314   0.27787   0.74025   0.00000  Uiso   1.00
C749   C     0.82268   0.25539   0.97487   0.00000  Uiso   1.00
C750   C     0.85221   0.14766   0.62964   0.00000  Uiso   1.00
C751   C     0.81573   0.18542   0.87094   0.00000  Uiso   1.00
C752   C     0.86927   0.09027   0.51625   0.00000  Uiso   1.00
C753   C     0.85835   0.13998   0.58150   0.00000  Uiso   1.00
C754   C     0.81147   0.24144   0.93503   0.00000  Uiso   1.00
C755   C     0.88160   0.05026   0.99475   0.00000  Uiso   1.00
C756   C     0.81432   0.19667   0.58678   0.00000  Uiso   1.00
C757   C     0.83490   0.22832   0.99920   0.00000  Uiso   1.00
C758   C     0.83195   0.18504   0.98738   0.00000  Uiso   1.00
C759   C     0.82215   0.17016   0.94617   0.00000  Uiso   1.00
C760   C     0.84178   0.15653   0.51391   0.00000  Uiso   1.00
C761   C     0.85082   0.11602   0.99448   0.00000  Uiso   1.00
C762   C     0.83925   0.10147   0.95462   0.00000  Uiso   1.00
C763   C     0.82216   0.12716   0.93291   0.00000  Uiso   1.00
H764   H     0.87252   0.00349   0.71098   0.00000  Uiso   1.00
H765   H     0.77071   0.32386   0.95961   0.00000  Uiso   1.00
H766   H     0.79259   0.33170   0.79021   0.00000  Uiso   1.00
H767   H     0.84202   0.06963   0.94054   0.00000  Uiso   1.00
H768   H     0.84811   0.24229   0.52653   0.00000  Uiso   1.00
H769   H     0.82390   0.28810   0.98660   0.00000  Uiso   1.00
H770   H     0.81027   0.11290   0.90478   0.00000  Uiso   1.00
H771   H     0.68128   0.18904   0.70890   0.00000  Uiso   1.00
H772   H     0.94285   0.12073   0.61105   0.00000  Uiso   1.00
H773   H     0.69179   0.09960   0.82895   0.00000  Uiso   1.00
N774   N     0.89151   0.01840   0.97746   0.00000  Uiso   1.00
N775   N     0.79332   0.22099   0.60853   0.00000  Uiso   1.00
O776   O     0.83333   0.16667   0.75000   0.00000  Uiso   1.00
O777   O     0.82118   0.12637   0.65459   0.00000  Uiso   1.00
O778   O     0.79607   0.20391   0.84968   0.00000  Uiso   1.00
O779   O     0.87491   0.17759   0.64606   0.00000  Uiso   1.00
O780   O     0.84118   0.15880   0.84968   0.00000  Uiso   1.00
O781   O     0.86752   0.03803   0.60724   0.00000  Uiso   1.00
O782   O     0.93615   0.05282   0.55360   0.00000  Uiso   1.00
O783   O     0.91984   0.10050   0.62695   0.00000  Uiso   1.00
O784   O     0.94988   0.16552   0.84548   0.00000  Uiso   1.00
O785   O     0.95164   0.09537   0.80671   0.00000  Uiso   1.00
O786   O     0.67855   0.12413   0.84592   0.00000  Uiso   1.00
O787   O     0.84597   0.08019   0.78214   0.00000  Uiso   1.00
O788   O     0.83232   0.28525   0.86254   0.00000  Uiso   1.00
O789   O     0.75610   0.26743   0.89603   0.00000  Uiso   1.00
O790   O     0.79777   0.32661   0.93603   0.00000  Uiso   1.00
O791   O     0.81298   0.26085   0.77014   0.00000  Uiso   1.00
O792   O     0.74078   0.13291   0.73413   0.00000  Uiso   1.00
O793   O     0.93360   0.19272   0.71361   0.00000  Uiso   1.00
O794   O     0.73738   0.18878   0.78213   0.00000  Uiso   1.00
O795   O     0.92158   0.15226   0.77014   0.00000  Uiso   1.00
O796   O     0.80426   0.06944   0.73413   0.00000  Uiso   1.00
O797   O     0.87012   0.25620   0.71361   0.00000  Uiso   1.00
S798   S     0.90021   0.07225   0.58653   0.00000  Uiso   1.00
S799   S     0.97839   0.13505   0.81696   0.00000  Uiso   1.00
S800   S     0.79897   0.28018   0.90581   0.00000  Uiso   1.00
Zn801  Zn    0.86005   0.13994   0.78734   0.00000  Uiso   1.00
Zn802  Zn    0.80046   0.12458   0.71876   0.00000  Uiso   1.00
Zn803  Zn    0.87723   0.19775   0.70657   0.00000  Uiso   1.00
Zn804  Zn    0.79560   0.20439   0.78734   0.00000  Uiso   1.00
C805   C     0.05318   0.49374   0.75934   0.00000  Uiso   1.00
C806   C     0.17399   0.49920   0.55967   0.00000  Uiso   1.00
C807   C     0.20866   0.43678   0.55916   0.00000  Uiso   1.00
C808   C     0.28055   0.50691   0.74050   0.00000  Uiso   1.00
C809   C     0.14719   0.53197   0.91862   0.00000  Uiso   1.00
C810   C     0.32586   0.50761   0.73706   0.00000  Uiso   1.00
C811   C     0.00796   0.49044   0.76642   0.00000  Uiso   1.00
C812   C     0.18006   0.65576   0.73655   0.00000  Uiso   1.00
C813   C     0.15194   0.34521   0.76432   0.00000  Uiso   1.00
C814   C     0.15604   0.38929   0.76042   0.00000  Uiso   1.00
C815   C     0.17648   0.61120   0.74025   0.00000  Uiso   1.00
C816   C     0.15601   0.58872   0.97487   0.00000  Uiso   1.00
C817   C     0.18554   0.48100   0.62964   0.00000  Uiso   1.00
C818   C     0.14906   0.51875   0.87094   0.00000  Uiso   1.00
C819   C     0.20260   0.42360   0.51625   0.00000  Uiso   1.00
C820   C     0.19169   0.47332   0.58150   0.00000  Uiso   1.00
C821   C     0.14480   0.57477   0.93503   0.00000  Uiso   1.00
C822   C     0.21493   0.38359   0.99475   0.00000  Uiso   1.00
C823   C     0.14766   0.53000   0.58678   0.00000  Uiso   1.00
C824   C     0.16824   0.56165   0.99920   0.00000  Uiso   1.00
C825   C     0.16528   0.51837   0.98738   0.00000  Uiso   1.00
C826   C     0.15548   0.50349   0.94617   0.00000  Uiso   1.00
C827   C     0.17511   0.48987   0.51391   0.00000  Uiso   1.00
C828   C     0.18415   0.44935   0.99448   0.00000  Uiso   1.00
C829   C     0.17259   0.43480   0.95462   0.00000  Uiso   1.00
C830   C     0.15549   0.46049   0.93291   0.00000  Uiso   1.00
H831   H     0.20585   0.33683   0.71098   0.00000  Uiso   1.00
H832   H     0.10405   0.65720   0.95961   0.00000  Uiso   1.00
H833   H     0.12592   0.66503   0.79021   0.00000  Uiso   1.00
H834   H     0.17536   0.40296   0.94054   0.00000  Uiso   1.00
H835   H     0.18145   0.57562   0.52653   0.00000  Uiso   1.00
H836   H     0.15724   0.62143   0.98660   0.00000  Uiso   1.00
H837   H     0.14360   0.44624   0.90478   0.00000  Uiso   1.00
H838   H     0.01461   0.52237   0.70890   0.00000  Uiso   1.00
H839   H     0.27618   0.45407   0.61105   0.00000  Uiso   1.00
H840   H     0.02512   0.43293   0.82895   0.00000  Uiso   1.00
N841   N     0.22485   0.35173   0.97746   0.00000  Uiso   1.00
N842   N     0.12665   0.55433   0.60853   0.00000  Uiso   1.00
O843   O     0.16667   0.50000   0.75000   0.00000  Uiso   1.00
O844   O     0.15451   0.45970   0.65459   0.00000  Uiso   1.00
O845   O     0.12940   0.53724   0.84968   0.00000  Uiso   1.00
O846   O     0.20824   0.51092   0.64606   0.00000  Uiso   1.00
O847   O     0.17451   0.49213   0.84968   0.00000  Uiso   1.00
O848   O     0.20085   0.37137   0.60724   0.00000  Uiso   1.00
O849   O     0.26948   0.38615   0.55360   0.00000  Uiso   1.00
O850   O     0.25317   0.43383   0.62695   0.00000  Uiso   1.00
O851   O     0.28321   0.49885   0.84548   0.00000  Uiso   1.00
O852   O     0.28497   0.42870   0.80671   0.00000  Uiso   1.00
O853   O     0.01188   0.45747   0.84592   0.00000  Uiso   1.00
O854   O     0.17930   0.41352   0.78214   0.00000  Uiso   1.00
O855   O     0.16566   0.61858   0.86254   0.00000  Uiso   1.00
O856   O     0.08943   0.60077   0.89603   0.00000  Uiso   1.00
O857   O     0.13110   0.65994   0.93603   0.00000  Uiso   1.00
O858   O     0.14632   0.59418   0.77014   0.00000  Uiso   1.00
O859   O     0.07412   0.46625   0.73413   0.00000  Uiso   1.00
O860   O     0.26693   0.52605   0.71361   0.00000  Uiso   1.00
O861   O     0.07071   0.52211   0.78213   0.00000  Uiso   1.00
O862   O     0.25491   0.48559   0.77014   0.00000  Uiso   1.00
O863   O     0.13760   0.40277   0.73413   0.00000  Uiso   1.00
O864   O     0.20345   0.58953   0.71361   0.00000  Uiso   1.00
S865   S     0.23354   0.40558   0.58653   0.00000  Uiso   1.00
S866   S     0.31172   0.46838   0.81696   0.00000  Uiso   1.00
S867   S     0.13230   0.61352   0.90581   0.00000  Uiso   1.00
Zn868  Zn    0.19338   0.47327   0.78734   0.00000  Uiso   1.00
Zn869  Zn    0.13379   0.45791   0.71876   0.00000  Uiso   1.00
Zn870  Zn    0.21056   0.53109   0.70657   0.00000  Uiso   1.00
Zn871  Zn    0.12893   0.53773   0.78734   0.00000  Uiso   1.00
C872   C     0.38651   0.49374   0.75934   0.00000  Uiso   1.00
C873   C     0.50732   0.49920   0.55967   0.00000  Uiso   1.00
C874   C     0.54200   0.43678   0.55916   0.00000  Uiso   1.00
C875   C     0.61388   0.50691   0.74050   0.00000  Uiso   1.00
C876   C     0.48052   0.53197   0.91862   0.00000  Uiso   1.00
C877   C     0.65920   0.50761   0.73706   0.00000  Uiso   1.00
C878   C     0.34129   0.49044   0.76642   0.00000  Uiso   1.00
C879   C     0.51339   0.65576   0.73655   0.00000  Uiso   1.00
C880   C     0.48527   0.34521   0.76432   0.00000  Uiso   1.00
C881   C     0.48938   0.38929   0.76042   0.00000  Uiso   1.00
C882   C     0.50981   0.61120   0.74025   0.00000  Uiso   1.00
C883   C     0.48934   0.58872   0.97487   0.00000  Uiso   1.00
C884   C     0.51887   0.48100   0.62964   0.00000  Uiso   1.00
C885   C     0.48240   0.51875   0.87094   0.00000  Uiso   1.00
C886   C     0.53594   0.42360   0.51625   0.00000  Uiso   1.00
C887   C     0.52502   0.47332   0.58150   0.00000  Uiso   1.00
C888   C     0.47813   0.57477   0.93503   0.00000  Uiso   1.00
C889   C     0.54827   0.38359   0.99475   0.00000  Uiso   1.00
C890   C     0.48099   0.53000   0.58678   0.00000  Uiso   1.00
C891   C     0.50157   0.56165   0.99920   0.00000  Uiso   1.00
C892   C     0.49861   0.51837   0.98738   0.00000  Uiso   1.00
C893   C     0.48881   0.50349   0.94617   0.00000  Uiso   1.00
C894   C     0.50845   0.48987   0.51391   0.00000  Uiso   1.00
C895   C     0.51749   0.44935   0.99448   0.00000  Uiso   1.00
C896   C     0.50592   0.43480   0.95462   0.00000  Uiso   1.00
C897   C     0.48883   0.46049   0.93291   0.00000  Uiso   1.00
H898   H     0.53918   0.33683   0.71098   0.00000  Uiso   1.00
H899   H     0.43738   0.65720   0.95961   0.00000  Uiso   1.00
H900   H     0.45926   0.66503   0.79021   0.00000  Uiso   1.00
H901   H     0.50869   0.40296   0.94054   0.00000  Uiso   1.00
H902   H     0.51478   0.57562   0.52653   0.00000  Uiso   1.00
H903   H     0.49057   0.62143   0.98660   0.00000  Uiso   1.00
H904   H     0.47693   0.44624   0.90478   0.00000  Uiso   1.00
H905   H     0.34794   0.52237   0.70890   0.00000  Uiso   1.00
H906   H     0.60951   0.45407   0.61105   0.00000  Uiso   1.00
H907   H     0.35846   0.43293   0.82895   0.00000  Uiso   1.00
N908   N     0.55818   0.35173   0.97746   0.00000  Uiso   1.00
N909   N     0.45999   0.55433   0.60853   0.00000  Uiso   1.00
O910   O     0.50000   0.50000   0.75000   0.00000  Uiso   1.00
O911   O     0.48784   0.45970   0.65459   0.00000  Uiso   1.00
O912   O     0.46274   0.53724   0.84968   0.00000  Uiso   1.00
O913   O     0.54157   0.51092   0.64606   0.00000  Uiso   1.00
O914   O     0.50785   0.49213   0.84968   0.00000  Uiso   1.00
O915   O     0.53418   0.37137   0.60724   0.00000  Uiso   1.00
O916   O     0.60282   0.38615   0.55360   0.00000  Uiso   1.00
O917   O     0.58651   0.43383   0.62695   0.00000  Uiso   1.00
O918   O     0.61654   0.49885   0.84548   0.00000  Uiso   1.00
O919   O     0.61830   0.42870   0.80671   0.00000  Uiso   1.00
O920   O     0.34522   0.45747   0.84592   0.00000  Uiso   1.00
O921   O     0.51264   0.41352   0.78214   0.00000  Uiso   1.00
O922   O     0.49899   0.61858   0.86254   0.00000  Uiso   1.00
O923   O     0.42277   0.60077   0.89603   0.00000  Uiso   1.00
O924   O     0.46443   0.65994   0.93603   0.00000  Uiso   1.00
O925   O     0.47965   0.59418   0.77014   0.00000  Uiso   1.00
O926   O     0.40745   0.46625   0.73413   0.00000  Uiso   1.00
O927   O     0.60026   0.52605   0.71361   0.00000  Uiso   1.00
O928   O     0.40405   0.52211   0.78213   0.00000  Uiso   1.00
O929   O     0.58824   0.48559   0.77014   0.00000  Uiso   1.00
O930   O     0.47093   0.40277   0.73413   0.00000  Uiso   1.00
O931   O     0.53678   0.58953   0.71361   0.00000  Uiso   1.00
S932   S     0.56687   0.40558   0.58653   0.00000  Uiso   1.00
S933   S     0.64506   0.46838   0.81696   0.00000  Uiso   1.00
S934   S     0.46564   0.61352   0.90581   0.00000  Uiso   1.00
Zn935  Zn    0.52672   0.47327   0.78734   0.00000  Uiso   1.00
Zn936  Zn    0.46713   0.45791   0.71876   0.00000  Uiso   1.00
Zn937  Zn    0.54389   0.53109   0.70657   0.00000  Uiso   1.00
Zn938  Zn    0.46226   0.53773   0.78734   0.00000  Uiso   1.00
C939   C     0.71985   0.49374   0.75934   0.00000  Uiso   1.00
C940   C     0.84066   0.49920   0.55967   0.00000  Uiso   1.00
C941   C     0.87533   0.43678   0.55916   0.00000  Uiso   1.00
C942   C     0.94722   0.50691   0.74050   0.00000  Uiso   1.00
C943   C     0.81385   0.53197   0.91862   0.00000  Uiso   1.00
C944   C     0.99253   0.50761   0.73706   0.00000  Uiso   1.00
C945   C     0.67463   0.49044   0.76642   0.00000  Uiso   1.00
C946   C     0.84673   0.65576   0.73655   0.00000  Uiso   1.00
C947   C     0.81861   0.34521   0.76432   0.00000  Uiso   1.00
C948   C     0.82271   0.38929   0.76042   0.00000  Uiso   1.00
C949   C     0.84314   0.61120   0.74025   0.00000  Uiso   1.00
C950   C     0.82268   0.58872   0.97487   0.00000  Uiso   1.00
C951   C     0.85221   0.48100   0.62964   0.00000  Uiso   1.00
C952   C     0.81573   0.51875   0.87094   0.00000  Uiso   1.00
C953   C     0.86927   0.42360   0.51625   0.00000  Uiso   1.00
C954   C     0.85835   0.47332   0.58150   0.00000  Uiso   1.00
C955   C     0.81147   0.57477   0.93503   0.00000  Uiso   1.00
C956   C     0.88160   0.38359   0.99475   0.00000  Uiso   1.00
C957   C     0.81432   0.53000   0.58678   0.00000  Uiso   1.00
C958   C     0.83490   0.56165   0.99920   0.00000  Uiso   1.00
C959   C     0.83195   0.51837   0.98738   0.00000  Uiso   1.00
C960   C     0.82215   0.50349   0.94617   0.00000  Uiso   1.00
C961   C     0.84178   0.48987   0.51391   0.00000  Uiso   1.00
C962   C     0.85082   0.44935   0.99448   0.00000  Uiso   1.00
C963   C     0.83925   0.43480   0.95462   0.00000  Uiso   1.00
C964   C     0.82216   0.46049   0.93291   0.00000  Uiso   1.00
H965   H     0.87252   0.33683   0.71098   0.00000  Uiso   1.00
H966   H     0.77071   0.65720   0.95961   0.00000  Uiso   1.00
H967   H     0.79259   0.66503   0.79021   0.00000  Uiso   1.00
H968   H     0.84202   0.40296   0.94054   0.00000  Uiso   1.00
H969   H     0.84811   0.57562   0.52653   0.00000  Uiso   1.00
H970   H     0.82390   0.62143   0.98660   0.00000  Uiso   1.00
H971   H     0.81027   0.44624   0.90478   0.00000  Uiso   1.00
H972   H     0.68128   0.52237   0.70890   0.00000  Uiso   1.00
H973   H     0.94285   0.45407   0.61105   0.00000  Uiso   1.00
H974   H     0.69179   0.43293   0.82895   0.00000  Uiso   1.00
N975   N     0.89151   0.35173   0.97746   0.00000  Uiso   1.00
N976   N     0.79332   0.55433   0.60853   0.00000  Uiso   1.00
O977   O     0.83333   0.50000   0.75000   0.00000  Uiso   1.00
O978   O     0.82118   0.45970   0.65459   0.00000  Uiso   1.00
O979   O     0.79607   0.53724   0.84968   0.00000  Uiso   1.00
O980   O     0.87491   0.51092   0.64606   0.00000  Uiso   1.00
O981   O     0.84118   0.49213   0.84968   0.00000  Uiso   1.00
O982   O     0.86752   0.37137   0.60724   0.00000  Uiso   1.00
O983   O     0.93615   0.38615   0.55360   0.00000  Uiso   1.00
O984   O     0.91984   0.43383   0.62695   0.00000  Uiso   1.00
O985   O     0.94988   0.49885   0.84548   0.00000  Uiso   1.00
O986   O     0.95164   0.42870   0.80671   0.00000  Uiso   1.00
O987   O     0.67855   0.45747   0.84592   0.00000  Uiso   1.00
O988   O     0.84597   0.41352   0.78214   0.00000  Uiso   1.00
O989   O     0.83232   0.61858   0.86254   0.00000  Uiso   1.00
O990   O     0.75610   0.60077   0.89603   0.00000  Uiso   1.00
O991   O     0.79777   0.65994   0.93603   0.00000  Uiso   1.00
O992   O     0.81298   0.59418   0.77014   0.00000  Uiso   1.00
O993   O     0.74078   0.46625   0.73413   0.00000  Uiso   1.00
O994   O     0.93360   0.52605   0.71361   0.00000  Uiso   1.00
O995   O     0.73738   0.52211   0.78213   0.00000  Uiso   1.00
O996   O     0.92158   0.48559   0.77014   0.00000  Uiso   1.00
O997   O     0.80426   0.40277   0.73413   0.00000  Uiso   1.00
O998   O     0.87012   0.58953   0.71361   0.00000  Uiso   1.00
S999   S     0.90021   0.40558   0.58653   0.00000  Uiso   1.00
S1000  S     0.97839   0.46838   0.81696   0.00000  Uiso   1.00
S1001  S     0.79897   0.61352   0.90581   0.00000  Uiso   1.00
Zn1002 Zn    0.86005   0.47327   0.78734   0.00000  Uiso   1.00
Zn1003 Zn    0.80046   0.45791   0.71876   0.00000  Uiso   1.00
Zn1004 Zn    0.87723   0.53109   0.70657   0.00000  Uiso   1.00
Zn1005 Zn    0.79560   0.53773   0.78734   0.00000  Uiso   1.00
C1006  C     0.05318   0.82708   0.75934   0.00000  Uiso   1.00
C1007  C     0.17399   0.83253   0.55967   0.00000  Uiso   1.00
C1008  C     0.20866   0.77012   0.55916   0.00000  Uiso   1.00
C1009  C     0.28055   0.84024   0.74050   0.00000  Uiso   1.00
C1010  C     0.14719   0.86530   0.91862   0.00000  Uiso   1.00
C1011  C     0.32586   0.84094   0.73706   0.00000  Uiso   1.00
C1012  C     0.00796   0.82377   0.76642   0.00000  Uiso   1.00
C1013  C     0.18006   0.98909   0.73655   0.00000  Uiso   1.00
C1014  C     0.15194   0.67855   0.76432   0.00000  Uiso   1.00
C1015  C     0.15604   0.72262   0.76042   0.00000  Uiso   1.00
C1016  C     0.17648   0.94453   0.74025   0.00000  Uiso   1.00
C1017  C     0.15601   0.92206   0.97487   0.00000  Uiso   1.00
C1018  C     0.18554   0.81433   0.62964   0.00000  Uiso   1.00
C1019  C     0.14906   0.85208   0.87094   0.00000  Uiso   1.00
C1020  C     0.20260   0.75694   0.51625   0.00000  Uiso   1.00
C1021  C     0.19169   0.80665   0.58150   0.00000  Uiso   1.00
C1022  C     0.14480   0.90811   0.93503   0.00000  Uiso   1.00
C1023  C     0.21493   0.71692   0.99475   0.00000  Uiso   1.00
C1024  C     0.14766   0.86334   0.58678   0.00000  Uiso   1.00
C1025  C     0.16824   0.89499   0.99920   0.00000  Uiso   1.00
C1026  C     0.16528   0.85171   0.98738   0.00000  Uiso   1.00
C1027  C     0.15548   0.83683   0.94617   0.00000  Uiso   1.00
C1028  C     0.17511   0.82320   0.51391   0.00000  Uiso   1.00
C1029  C     0.18415   0.78269   0.99448   0.00000  Uiso   1.00
C1030  C     0.17259   0.76813   0.95462   0.00000  Uiso   1.00
C1031  C     0.15549   0.79383   0.93291   0.00000  Uiso   1.00
H1032  H     0.20585   0.67016   0.71098   0.00000  Uiso   1.00
H1033  H     0.10405   0.99053   0.95961   0.00000  Uiso   1.00
H1034  H     0.12592   0.99837   0.79021   0.00000  Uiso   1.00
H1035  H     0.17536   0.73629   0.94054   0.00000  Uiso   1.00
H1036  H     0.18145   0.90895   0.52653   0.00000  Uiso   1.00
H1037  H     0.15724   0.95476   0.98660   0.00000  Uiso   1.00
H1038  H     0.14360   0.77957   0.90478   0.00000  Uiso   1.00
H1039  H     0.01461   0.85571   0.70890   0.00000  Uiso   1.00
H1040  H     0.27618   0.78740   0.61105   0.00000  Uiso   1.00
H1041  H     0.02512   0.76626   0.82895   0.00000  Uiso   1.00
N1042  N     0.22485   0.68506   0.97746   0.00000  Uiso   1.00
N1043  N     0.12665   0.88766   0.60853   0.00000  Uiso   1.00
O1044  O     0.16667   0.83333   0.75000   0.00000  Uiso   1.00
O1045  O     0.15451   0.79304   0.65459   0.00000  Uiso   1.00
O1046  O     0.12940   0.87058   0.84968   0.00000  Uiso   1.00
O1047  O     0.20824   0.84425   0.64606   0.00000  Uiso   1.00
O1048  O     0.17451   0.82546   0.84968   0.00000  Uiso   1.00
O1049  O     0.20085   0.70470   0.60724   0.00000  Uiso   1.00
O1050  O     0.26948   0.71948   0.55360   0.00000  Uiso   1.00
O1051  O     0.25317   0.76717   0.62695   0.00000  Uiso   1.00
O1052  O     0.28321   0.83218   0.84548   0.00000  Uiso   1.00
O1053  O     0.28497   0.76203   0.80671   0.00000  Uiso   1.00
O1054  O     0.01188   0.79080   0.84592   0.00000  Uiso   1.00
O1055  O     0.17930   0.74686   0.78214   0.00000  Uiso   1.00
O1056  O     0.16566   0.95192   0.86254   0.00000  Uiso   1.00
O1057  O     0.08943   0.93410   0.89603   0.00000  Uiso   1.00
O1058  O     0.13110   0.99328   0.93603   0.00000  Uiso   1.00
O1059  O     0.14632   0.92751   0.77014   0.00000  Uiso   1.00
O1060  O     0.07412   0.79958   0.73413   0.00000  Uiso   1.00
O1061  O     0.26693   0.85939   0.71361   0.00000  Uiso   1.00
O1062  O     0.07071   0.85544   0.78213   0.00000  Uiso   1.00
O1063  O     0.25491   0.81892   0.77014   0.00000  Uiso   1.00
O1064  O     0.13760   0.73610   0.73413   0.00000  Uiso   1.00
O1065  O     0.20345   0.92286   0.71361   0.00000  Uiso   1.00
S1066  S     0.23354   0.73891   0.58653   0.00000  Uiso   1.00
S1067  S     0.31172   0.80172   0.81696   0.00000  Uiso   1.00
S1068  S     0.13230   0.94685   0.90581   0.00000  Uiso   1.00
Zn1069 Zn    0.19338   0.80661   0.78734   0.00000  Uiso   1.00
Zn1070 Zn    0.13379   0.79124   0.71876   0.00000  Uiso   1.00
Zn1071 Zn    0.21056   0.86442   0.70657   0.00000  Uiso   1.00
Zn1072 Zn    0.12893   0.87106   0.78734   0.00000  Uiso   1.00
C1073  C     0.38651   0.82708   0.75934   0.00000  Uiso   1.00
C1074  C     0.50732   0.83253   0.55967   0.00000  Uiso   1.00
C1075  C     0.54200   0.77012   0.55916   0.00000  Uiso   1.00
C1076  C     0.61388   0.84024   0.74050   0.00000  Uiso   1.00
C1077  C     0.48052   0.86530   0.91862   0.00000  Uiso   1.00
C1078  C     0.65920   0.84094   0.73706   0.00000  Uiso   1.00
C1079  C     0.34129   0.82377   0.76642   0.00000  Uiso   1.00
C1080  C     0.51339   0.98909   0.73655   0.00000  Uiso   1.00
C1081  C     0.48527   0.67855   0.76432   0.00000  Uiso   1.00
C1082  C     0.48938   0.72262   0.76042   0.00000  Uiso   1.00
C1083  C     0.50981   0.94453   0.74025   0.00000  Uiso   1.00
C1084  C     0.48934   0.92206   0.97487   0.00000  Uiso   1.00
C1085  C     0.51887   0.81433   0.62964   0.00000  Uiso   1.00
C1086  C     0.48240   0.85208   0.87094   0.00000  Uiso   1.00
C1087  C     0.53594   0.75694   0.51625   0.00000  Uiso   1.00
C1088  C     0.52502   0.80665   0.58150   0.00000  Uiso   1.00
C1089  C     0.47813   0.90811   0.93503   0.00000  Uiso   1.00
C1090  C     0.54827   0.71692   0.99475   0.00000  Uiso   1.00
C1091  C     0.48099   0.86334   0.58678   0.00000  Uiso   1.00
C1092  C     0.50157   0.89499   0.99920   0.00000  Uiso   1.00
C1093  C     0.49861   0.85171   0.98738   0.00000  Uiso   1.00
C1094  C     0.48881   0.83683   0.94617   0.00000  Uiso   1.00
C1095  C     0.50845   0.82320   0.51391   0.00000  Uiso   1.00
C1096  C     0.51749   0.78269   0.99448   0.00000  Uiso   1.00
C1097  C     0.50592   0.76813   0.95462   0.00000  Uiso   1.00
C1098  C     0.48883   0.79383   0.93291   0.00000  Uiso   1.00
H1099  H     0.53918   0.67016   0.71098   0.00000  Uiso   1.00
H1100  H     0.43738   0.99053   0.95961   0.00000  Uiso   1.00
H1101  H     0.45926   0.99837   0.79021   0.00000  Uiso   1.00
H1102  H     0.50869   0.73629   0.94054   0.00000  Uiso   1.00
H1103  H     0.51478   0.90895   0.52653   0.00000  Uiso   1.00
H1104  H     0.49057   0.95476   0.98660   0.00000  Uiso   1.00
H1105  H     0.47693   0.77957   0.90478   0.00000  Uiso   1.00
H1106  H     0.34794   0.85571   0.70890   0.00000  Uiso   1.00
H1107  H     0.60951   0.78740   0.61105   0.00000  Uiso   1.00
H1108  H     0.35846   0.76626   0.82895   0.00000  Uiso   1.00
N1109  N     0.55818   0.68506   0.97746   0.00000  Uiso   1.00
N1110  N     0.45999   0.88766   0.60853   0.00000  Uiso   1.00
O1111  O     0.50000   0.83333   0.75000   0.00000  Uiso   1.00
O1112  O     0.48784   0.79304   0.65459   0.00000  Uiso   1.00
O1113  O     0.46274   0.87058   0.84968   0.00000  Uiso   1.00
O1114  O     0.54157   0.84425   0.64606   0.00000  Uiso   1.00
O1115  O     0.50785   0.82546   0.84968   0.00000  Uiso   1.00
O1116  O     0.53418   0.70470   0.60724   0.00000  Uiso   1.00
O1117  O     0.60282   0.71948   0.55360   0.00000  Uiso   1.00
O1118  O     0.58651   0.76717   0.62695   0.00000  Uiso   1.00
O1119  O     0.61654   0.83218   0.84548   0.00000  Uiso   1.00
O1120  O     0.61830   0.76203   0.80671   0.00000  Uiso   1.00
O1121  O     0.34522   0.79080   0.84592   0.00000  Uiso   1.00
O1122  O     0.51264   0.74686   0.78214   0.00000  Uiso   1.00
O1123  O     0.49899   0.95192   0.86254   0.00000  Uiso   1.00
O1124  O     0.42277   0.93410   0.89603   0.00000  Uiso   1.00
O1125  O     0.46443   0.99328   0.93603   0.00000  Uiso   1.00
O1126  O     0.47965   0.92751   0.77014   0.00000  Uiso   1.00
O1127  O     0.40745   0.79958   0.73413   0.00000  Uiso   1.00
O1128  O     0.60026   0.85939   0.71361   0.00000  Uiso   1.00
O1129  O     0.40405   0.85544   0.78213   0.00000  Uiso   1.00
O1130  O     0.58824   0.81892   0.77014   0.00000  Uiso   1.00
O1131  O     0.47093   0.73610   0.73413   0.00000  Uiso   1.00
O1132  O     0.53678   0.92286   0.71361   0.00000  Uiso   1.00
S1133  S     0.56687   0.73891   0.58653   0.00000  Uiso   1.00
S1134  S     0.64506   0.80172   0.81696   0.00000  Uiso   1.00
S1135  S     0.46564   0.94685   0.90581   0.00000  Uiso   1.00
Zn1136 Zn    0.52672   0.80661   0.78734   0.00000  Uiso   1.00
Zn1137 Zn    0.46713   0.79124   0.71876   0.00000  Uiso   1.00
Zn1138 Zn    0.54389   0.86442   0.70657   0.00000  Uiso   1.00
Zn1139 Zn    0.46226   0.87106   0.78734   0.00000  Uiso   1.00
C1140  C     0.71985   0.82708   0.75934   0.00000  Uiso   1.00
C1141  C     0.84066   0.83253   0.55967   0.00000  Uiso   1.00
C1142  C     0.87533   0.77012   0.55916   0.00000  Uiso   1.00
C1143  C     0.94722   0.84024   0.74050   0.00000  Uiso   1.00
C1144  C     0.81385   0.86530   0.91862   0.00000  Uiso   1.00
C1145  C     0.99253   0.84094   0.73706   0.00000  Uiso   1.00
C1146  C     0.67463   0.82377   0.76642   0.00000  Uiso   1.00
C1147  C     0.84673   0.98909   0.73655   0.00000  Uiso   1.00
C1148  C     0.81861   0.67855   0.76432   0.00000  Uiso   1.00
C1149  C     0.82271   0.72262   0.76042   0.00000  Uiso   1.00
C1150  C     0.84314   0.94453   0.74025   0.00000  Uiso   1.00
C1151  C     0.82268   0.92206   0.97487   0.00000  Uiso   1.00
C1152  C     0.85221   0.81433   0.62964   0.00000  Uiso   1.00
C1153  C     0.81573   0.85208   0.87094   0.00000  Uiso   1.00
C1154  C     0.86927   0.75694   0.51625   0.00000  Uiso   1.00
C1155  C     0.85835   0.80665   0.58150   0.00000  Uiso   1.00
C1156  C     0.81147   0.90811   0.93503   0.00000  Uiso   1.00
C1157  C     0.88160   0.71692   0.99475   0.00000  Uiso   1.00
C1158  C     0.81432   0.86334   0.58678   0.00000  Uiso   1.00
C1159  C     0.83490   0.89499   0.99920   0.00000  Uiso   1.00
C1160  C     0.83195   0.85171   0.98738   0.00000  Uiso   1.00
C1161  C     0.82215   0.83683   0.94617   0.00000  Uiso   1.00
C1162  C     0.84178   0.82320   0.51391   0.00000  Uiso   1.00
C1163  C     0.85082   0.78269   0.99448   0.00000  Uiso   1.00
C1164  C     0.83925   0.76813   0.95462   0.00000  Uiso   1.00
C1165  C     0.82216   0.79383   0.93291   0.00000  Uiso   1.00
H1166  H     0.87252   0.67016   0.71098   0.00000  Uiso   1.00
H1167  H     0.77071   0.99053   0.95961   0.00000  Uiso   1.00
H1168  H     0.79259   0.99837   0.79021   0.00000  Uiso   1.00
H1169  H     0.84202   0.73629   0.94054   0.00000  Uiso   1.00
H1170  H     0.84811   0.90895   0.52653   0.00000  Uiso   1.00
H1171  H     0.82390   0.95476   0.98660   0.00000  Uiso   1.00
H1172  H     0.81027   0.77957   0.90478   0.00000  Uiso   1.00
H1173  H     0.68128   0.85571   0.70890   0.00000  Uiso   1.00
H1174  H     0.94285   0.78740   0.61105   0.00000  Uiso   1.00
H1175  H     0.69179   0.76626   0.82895   0.00000  Uiso   1.00
N1176  N     0.89151   0.68506   0.97746   0.00000  Uiso   1.00
N1177  N     0.79332   0.88766   0.60853   0.00000  Uiso   1.00
O1178  O     0.83333   0.83333   0.75000   0.00000  Uiso   1.00
O1179  O     0.82118   0.79304   0.65459   0.00000  Uiso   1.00
O1180  O     0.79607   0.87058   0.84968   0.00000  Uiso   1.00
O1181  O     0.87491   0.84425   0.64606   0.00000  Uiso   1.00
O1182  O     0.84118   0.82546   0.84968   0.00000  Uiso   1.00
O1183  O     0.86752   0.70470   0.60724   0.00000  Uiso   1.00
O1184  O     0.93615   0.71948   0.55360   0.00000  Uiso   1.00
O1185  O     0.91984   0.76717   0.62695   0.00000  Uiso   1.00
O1186  O     0.94988   0.83218   0.84548   0.00000  Uiso   1.00
O1187  O     0.95164   0.76203   0.80671   0.00000  Uiso   1.00
O1188  O     0.67855   0.79080   0.84592   0.00000  Uiso   1.00
O1189  O     0.84597   0.74686   0.78214   0.00000  Uiso   1.00
O1190  O     0.83232   0.95192   0.86254   0.00000  Uiso   1.00
O1191  O     0.75610   0.93410   0.89603   0.00000  Uiso   1.00
O1192  O     0.79777   0.99328   0.93603   0.00000  Uiso   1.00
O1193  O     0.81298   0.92751   0.77014   0.00000  Uiso   1.00
O1194  O     0.74078   0.79958   0.73413   0.00000  Uiso   1.00
O1195  O     0.93360   0.85939   0.71361   0.00000  Uiso   1.00
O1196  O     0.73738   0.85544   0.78213   0.00000  Uiso   1.00
O1197  O     0.92158   0.81892   0.77014   0.00000  Uiso   1.00
O1198  O     0.80426   0.73610   0.73413   0.00000  Uiso   1.00
O1199  O     0.87012   0.92286   0.71361   0.00000  Uiso   1.00
S1200  S     0.90021   0.73891   0.58653   0.00000  Uiso   1.00
S1201  S     0.97839   0.80172   0.81696   0.00000  Uiso   1.00
S1202  S     0.79897   0.94685   0.90581   0.00000  Uiso   1.00
Zn1203 Zn    0.86005   0.80661   0.78734   0.00000  Uiso   1.00
Zn1204 Zn    0.80046   0.79124   0.71876   0.00000  Uiso   1.00
Zn1205 Zn    0.87723   0.86442   0.70657   0.00000  Uiso   1.00
Zn1206 Zn    0.79560   0.87106   0.78734   0.00000  Uiso   1.00
loop_
_geom_bond_atom_site_label_1
_geom_bond_atom_site_label_2
_geom_bond_distance
_geom_bond_site_symmetry_2
_ccdc_geom_bond_type
C1     O57     1.263   .     A
C1     O55     1.269   .     A
C1     C7      1.427   .     S
C2     C16     1.404   .     A
C2     C23     1.413   .     A
C2     C19     1.457   .     S
C3     S61     1.788   .     S
C3     C15     1.410   .     A
C3     C16     1.411   .     A
C4     O56     1.293   .     A
C4     C6      1.455   .     S
C4     O58     1.268   .     A
C5     C14     1.484   .     S
C5     C17     1.430   .     A
C5     C22     1.425   .     A
C6     C74     1.354   .     S
C6     H101    1.088   .     S
C7     C140    1.354   1_455 S
C7     S196    1.783   1_455 S
C8     C11     1.449   .     S
C8     C210    1.330   .     S
C8     H228    1.088   .     S
C9     C10     1.433   .     S
C9     C410    1.330   1_545 S
C9     H431    1.087   1_545 S
C10    O59     1.279   .     A
C10    O50     1.278   .     A
C11    O54     1.275   .     A
C11    O60     1.272   .     A
C12    C17     1.392   .     A
C12    C20     1.382   .     A
C12    H32     1.081   .     S
C13    O42     1.280   .     A
C13    C16     1.455   .     S
C13    O40     1.273   .     A
C14    O41     1.276   .     A
C14    O43     1.288   .     A
C15    C621    1.451   1_554 S
C15    C627    1.415   1_554 S
C17    S63     1.779   .     S
C18    N37     1.157   .     T
C18    C618    1.451   .     S
C19    N38     1.158   .     T
C20    C21     1.407   .     A
C20    H634    1.079   .     S
C21    C22     1.418   .     A
C21    C626    1.426   .     S
C22    C26     1.409   .     A
C23    C624    1.426   1_554 S
C23    C627    1.420   1_554 S
C24    C25     1.402   .     A
C24    C626    1.420   .     S
C24    C618    1.415   .     S
C25    C26     1.385   .     A
C25    H30     1.082   .     S
C26    H33     1.080   .     S
H27    C410    1.088   1_545 S
H28    O53     0.991   .     S
H29    C210    1.087   .     S
H31    C623    1.079   1_554 S
H34    C140    1.088   1_455 S
H35    O46     0.991   .     S
H36    O49     0.991   .     S
O39    Zn64    1.958   .     S
O39    Zn65    1.949   .     S
O39    Zn66    1.946   .     S
O39    Zn67    1.929   .     S
O40    Zn65    1.937   .     S
O41    Zn67    1.944   .     S
O42    Zn66    1.938   .     S
O43    Zn64    1.930   .     S
O44    S61     1.502   .     D
O45    S61     1.503   .     D
O46    S61     1.682   .     S
O47    S62     1.504   .     D
O48    S62     1.504   .     D
O49    S196    1.683   1_455 S
O50    Zn64    1.927   .     S
O51    S63     1.503   .     D
O52    S63     1.504   .     D
O53    S63     1.682   .     S
O54    Zn67    1.932   .     S
O55    Zn65    1.934   .     S
O56    Zn66    1.943   .     S
O57    Zn67    1.944   .     S
O58    Zn64    1.938   .     S
O59    Zn65    1.931   .     S
O60    Zn66    1.923   .     S
S62    O116    1.683   .     S
S62    C74     1.783   .     S
C68    O124    1.263   .     A
C68    O122    1.269   .     A
C68    C74     1.427   .     S
C69    C83     1.404   .     A
C69    C90     1.413   .     A
C69    C86     1.457   .     S
C70    S128    1.788   .     S
C70    C82     1.410   .     A
C70    C83     1.411   .     A
C71    O123    1.293   .     A
C71    C73     1.455   .     S
C71    O125    1.268   .     A
C72    C81     1.484   .     S
C72    C84     1.430   .     A
C72    C89     1.425   .     A
C73    C141    1.354   .     S
C73    H168    1.088   .     S
C75    C78     1.449   .     S
C75    C277    1.330   .     S
C75    H295    1.088   .     S
C76    C77     1.433   .     S
C76    C477    1.330   1_545 S
C76    H498    1.087   1_545 S
C77    O126    1.279   .     A
C77    O117    1.278   .     A
C78    O121    1.275   .     A
C78    O127    1.272   .     A
C79    C84     1.392   .     A
C79    C87     1.382   .     A
C79    H99     1.081   .     S
C80    O109    1.280   .     A
C80    C83     1.455   .     S
C80    O107    1.273   .     A
C81    O108    1.276   .     A
C81    O110    1.288   .     A
C82    C688    1.451   1_554 S
C82    C694    1.415   1_554 S
C84    S130    1.779   .     S
C85    N104    1.157   .     T
C85    C685    1.451   .     S
C86    N105    1.158   .     T
C87    C88     1.407   .     A
C87    H701    1.079   .     S
C88    C89     1.418   .     A
C88    C693    1.426   .     S
C89    C93     1.409   .     A
C90    C691    1.426   1_554 S
C90    C694    1.420   1_554 S
C91    C92     1.402   .     A
C91    C693    1.420   .     S
C91    C685    1.415   .     S
C92    C93     1.385   .     A
C92    H97     1.082   .     S
C93    H100    1.080   .     S
H94    C477    1.088   1_545 S
H95    O120    0.991   .     S
H96    C277    1.087   .     S
H98    C690    1.079   1_554 S
H102   O113    0.991   .     S
H103   O116    0.991   .     S
O106   Zn131   1.958   .     S
O106   Zn132   1.949   .     S
O106   Zn133   1.946   .     S
O106   Zn134   1.929   .     S
O107   Zn132   1.937   .     S
O108   Zn134   1.944   .     S
O109   Zn133   1.938   .     S
O110   Zn131   1.930   .     S
O111   S128    1.502   .     D
O112   S128    1.503   .     D
O113   S128    1.682   .     S
O114   S129    1.504   .     D
O115   S129    1.504   .     D
O117   Zn131   1.927   .     S
O118   S130    1.503   .     D
O119   S130    1.504   .     D
O120   S130    1.682   .     S
O121   Zn134   1.932   .     S
O122   Zn132   1.934   .     S
O123   Zn133   1.943   .     S
O124   Zn134   1.944   .     S
O125   Zn131   1.938   .     S
O126   Zn132   1.931   .     S
O127   Zn133   1.923   .     S
S129   O183    1.683   .     S
S129   C141    1.783   .     S
C135   O191    1.263   .     A
C135   O189    1.269   .     A
C135   C141    1.427   .     S
C136   C150    1.404   .     A
C136   C157    1.413   .     A
C136   C153    1.457   .     S
C137   S195    1.788   .     S
C137   C149    1.410   .     A
C137   C150    1.411   .     A
C138   O190    1.293   .     A
C138   C140    1.455   .     S
C138   O192    1.268   .     A
C139   C148    1.484   .     S
C139   C151    1.430   .     A
C139   C156    1.425   .     A
C140   C7      1.354   1_655 S
C140   H34     1.088   1_655 S
C142   C145    1.449   .     S
C142   C344    1.330   .     S
C142   H362    1.088   .     S
C143   C144    1.433   .     S
C143   C544    1.330   1_545 S
C143   H565    1.087   1_545 S
C144   O193    1.279   .     A
C144   O184    1.278   .     A
C145   O188    1.275   .     A
C145   O194    1.272   .     A
C146   C151    1.392   .     A
C146   C154    1.382   .     A
C146   H166    1.081   .     S
C147   O176    1.280   .     A
C147   C150    1.455   .     S
C147   O174    1.273   .     A
C148   O175    1.276   .     A
C148   O177    1.288   .     A
C149   C755    1.451   1_554 S
C149   C761    1.415   1_554 S
C151   S197    1.779   .     S
C152   N171    1.157   .     T
C152   C752    1.451   .     S
C153   N172    1.158   .     T
C154   C155    1.407   .     A
C154   H768    1.079   .     S
C155   C156    1.418   .     A
C155   C760    1.426   .     S
C156   C160    1.409   .     A
C157   C758    1.426   1_554 S
C157   C761    1.420   1_554 S
C158   C159    1.402   .     A
C158   C760    1.420   .     S
C158   C752    1.415   .     S
C159   C160    1.385   .     A
C159   H164    1.082   .     S
C160   H167    1.080   .     S
H161   C544    1.088   1_545 S
H162   O187    0.991   .     S
H163   C344    1.087   .     S
H165   C757    1.079   1_554 S
H169   O180    0.991   .     S
H170   O183    0.991   .     S
O173   Zn198   1.958   .     S
O173   Zn199   1.949   .     S
O173   Zn200   1.946   .     S
O173   Zn201   1.929   .     S
O174   Zn199   1.937   .     S
O175   Zn201   1.944   .     S
O176   Zn200   1.938   .     S
O177   Zn198   1.930   .     S
O178   S195    1.502   .     D
O179   S195    1.503   .     D
O180   S195    1.682   .     S
O181   S196    1.504   .     D
O182   S196    1.504   .     D
O184   Zn198   1.927   .     S
O185   S197    1.503   .     D
O186   S197    1.504   .     D
O187   S197    1.682   .     S
O188   Zn201   1.932   .     S
O189   Zn199   1.934   .     S
O190   Zn200   1.943   .     S
O191   Zn201   1.944   .     S
O192   Zn198   1.938   .     S
O193   Zn199   1.931   .     S
O194   Zn200   1.923   .     S
S196   O49     1.683   1_655 S
S196   C7      1.783   1_655 S
C202   O258    1.263   .     A
C202   O256    1.269   .     A
C202   C208    1.427   .     S
C203   C217    1.404   .     A
C203   C224    1.413   .     A
C203   C220    1.457   .     S
C204   S262    1.788   .     S
C204   C216    1.410   .     A
C204   C217    1.411   .     A
C205   O257    1.293   .     A
C205   C207    1.455   .     S
C205   O259    1.268   .     A
C206   C215    1.484   .     S
C206   C218    1.430   .     A
C206   C223    1.425   .     A
C207   C275    1.354   .     S
C207   H302    1.088   .     S
C208   C341    1.354   1_455 S
C208   S397    1.783   1_455 S
C209   C212    1.449   .     S
C209   C411    1.330   .     S
C209   H429    1.088   .     S
C210   C211    1.433   .     S
C211   O260    1.279   .     A
C211   O251    1.278   .     A
C212   O255    1.275   .     A
C212   O261    1.272   .     A
C213   C218    1.392   .     A
C213   C221    1.382   .     A
C213   H233    1.081   .     S
C214   O243    1.280   .     A
C214   C217    1.455   .     S
C214   O241    1.273   .     A
C215   O242    1.276   .     A
C215   O244    1.288   .     A
C216   C822    1.451   1_554 S
C216   C828    1.415   1_554 S
C218   S264    1.779   .     S
C219   N238    1.157   .     T
C219   C819    1.451   .     S
C220   N239    1.158   .     T
C221   C222    1.407   .     A
C221   H835    1.079   .     S
C222   C223    1.418   .     A
C222   C827    1.426   .     S
C223   C227    1.409   .     A
C224   C825    1.426   1_554 S
C224   C828    1.420   1_554 S
C225   C226    1.402   .     A
C225   C827    1.420   .     S
C225   C819    1.415   .     S
C226   C227    1.385   .     A
C226   H231    1.082   .     S
C227   H234    1.080   .     S
H229   O254    0.991   .     S
H230   C411    1.087   .     S
H232   C824    1.079   1_554 S
H235   C341    1.088   1_455 S
H236   O247    0.991   .     S
H237   O250    0.991   .     S
O240   Zn265   1.958   .     S
O240   Zn266   1.949   .     S
O240   Zn267   1.946   .     S
O240   Zn268   1.929   .     S
O241   Zn266   1.937   .     S
O242   Zn268   1.944   .     S
O243   Zn267   1.938   .     S
O244   Zn265   1.930   .     S
O245   S262    1.502   .     D
O246   S262    1.503   .     D
O247   S262    1.682   .     S
O248   S263    1.504   .     D
O249   S263    1.504   .     D
O250   S397    1.683   1_455 S
O251   Zn265   1.927   .     S
O252   S264    1.503   .     D
O253   S264    1.504   .     D
O254   S264    1.682   .     S
O255   Zn268   1.932   .     S
O256   Zn266   1.934   .     S
O257   Zn267   1.943   .     S
O258   Zn268   1.944   .     S
O259   Zn265   1.938   .     S
O260   Zn266   1.931   .     S
O261   Zn267   1.923   .     S
S263   O317    1.683   .     S
S263   C275    1.783   .     S
C269   O325    1.263   .     A
C269   O323    1.269   .     A
C269   C275    1.427   .     S
C270   C284    1.404   .     A
C270   C291    1.413   .     A
C270   C287    1.457   .     S
C271   S329    1.788   .     S
C271   C283    1.410   .     A
C271   C284    1.411   .     A
C272   O324    1.293   .     A
C272   C274    1.455   .     S
C272   O326    1.268   .     A
C273   C282    1.484   .     S
C273   C285    1.430   .     A
C273   C290    1.425   .     A
C274   C342    1.354   .     S
C274   H369    1.088   .     S
C276   C279    1.449   .     S
C276   C478    1.330   .     S
C276   H496    1.088   .     S
C277   C278    1.433   .     S
C278   O327    1.279   .     A
C278   O318    1.278   .     A
C279   O322    1.275   .     A
C279   O328    1.272   .     A
C280   C285    1.392   .     A
C280   C288    1.382   .     A
C280   H300    1.081   .     S
C281   O310    1.280   .     A
C281   C284    1.455   .     S
C281   O308    1.273   .     A
C282   O309    1.276   .     A
C282   O311    1.288   .     A
C283   C889    1.451   1_554 S
C283   C895    1.415   1_554 S
C285   S331    1.779   .     S
C286   N305    1.157   .     T
C286   C886    1.451   .     S
C287   N306    1.158   .     T
C288   C289    1.407   .     A
C288   H902    1.079   .     S
C289   C290    1.418   .     A
C289   C894    1.426   .     S
C290   C294    1.409   .     A
C291   C892    1.426   1_554 S
C291   C895    1.420   1_554 S
C292   C293    1.402   .     A
C292   C894    1.420   .     S
C292   C886    1.415   .     S
C293   C294    1.385   .     A
C293   H298    1.082   .     S
C294   H301    1.080   .     S
H296   O321    0.991   .     S
H297   C478    1.087   .     S
H299   C891    1.079   1_554 S
H303   O314    0.991   .     S
H304   O317    0.991   .     S
O307   Zn332   1.958   .     S
O307   Zn333   1.949   .     S
O307   Zn334   1.946   .     S
O307   Zn335   1.929   .     S
O308   Zn333   1.937   .     S
O309   Zn335   1.944   .     S
O310   Zn334   1.938   .     S
O311   Zn332   1.930   .     S
O312   S329    1.502   .     D
O313   S329    1.503   .     D
O314   S329    1.682   .     S
O315   S330    1.504   .     D
O316   S330    1.504   .     D
O318   Zn332   1.927   .     S
O319   S331    1.503   .     D
O320   S331    1.504   .     D
O321   S331    1.682   .     S
O322   Zn335   1.932   .     S
O323   Zn333   1.934   .     S
O324   Zn334   1.943   .     S
O325   Zn335   1.944   .     S
O326   Zn332   1.938   .     S
O327   Zn333   1.931   .     S
O328   Zn334   1.923   .     S
S330   O384    1.683   .     S
S330   C342    1.783   .     S
C336   O392    1.263   .     A
C336   O390    1.269   .     A
C336   C342    1.427   .     S
C337   C351    1.404   .     A
C337   C358    1.413   .     A
C337   C354    1.457   .     S
C338   S396    1.788   .     S
C338   C350    1.410   .     A
C338   C351    1.411   .     A
C339   O391    1.293   .     A
C339   C341    1.455   .     S
C339   O393    1.268   .     A
C340   C349    1.484   .     S
C340   C352    1.430   .     A
C340   C357    1.425   .     A
C341   C208    1.354   1_655 S
C341   H235    1.088   1_655 S
C343   C346    1.449   .     S
C343   C545    1.330   .     S
C343   H563    1.088   .     S
C344   C345    1.433   .     S
C345   O394    1.279   .     A
C345   O385    1.278   .     A
C346   O389    1.275   .     A
C346   O395    1.272   .     A
C347   C352    1.392   .     A
C347   C355    1.382   .     A
C347   H367    1.081   .     S
C348   O377    1.280   .     A
C348   C351    1.455   .     S
C348   O375    1.273   .     A
C349   O376    1.276   .     A
C349   O378    1.288   .     A
C350   C956    1.451   1_554 S
C350   C962    1.415   1_554 S
C352   S398    1.779   .     S
C353   N372    1.157   .     T
C353   C953    1.451   .     S
C354   N373    1.158   .     T
C355   C356    1.407   .     A
C355   H969    1.079   .     S
C356   C357    1.418   .     A
C356   C961    1.426   .     S
C357   C361    1.409   .     A
C358   C959    1.426   1_554 S
C358   C962    1.420   1_554 S
C359   C360    1.402   .     A
C359   C961    1.420   .     S
C359   C953    1.415   .     S
C360   C361    1.385   .     A
C360   H365    1.082   .     S
C361   H368    1.080   .     S
H363   O388    0.991   .     S
H364   C545    1.087   .     S
H366   C958    1.079   1_554 S
H370   O381    0.991   .     S
H371   O384    0.991   .     S
O374   Zn399   1.958   .     S
O374   Zn400   1.949   .     S
O374   Zn401   1.946   .     S
O374   Zn402   1.929   .     S
O375   Zn400   1.937   .     S
O376   Zn402   1.944   .     S
O377   Zn401   1.938   .     S
O378   Zn399   1.930   .     S
O379   S396    1.502   .     D
O380   S396    1.503   .     D
O381   S396    1.682   .     S
O382   S397    1.504   .     D
O383   S397    1.504   .     D
O385   Zn399   1.927   .     S
O386   S398    1.503   .     D
O387   S398    1.504   .     D
O388   S398    1.682   .     S
O389   Zn402   1.932   .     S
O390   Zn400   1.934   .     S
O391   Zn401   1.943   .     S
O392   Zn402   1.944   .     S
O393   Zn399   1.938   .     S
O394   Zn400   1.931   .     S
O395   Zn401   1.923   .     S
S397   O250    1.683   1_655 S
S397   C208    1.783   1_655 S
C403   O459    1.263   .     A
C403   O457    1.269   .     A
C403   C409    1.427   .     S
C404   C418    1.404   .     A
C404   C425    1.413   .     A
C404   C421    1.457   .     S
C405   S463    1.788   .     S
C405   C417    1.410   .     A
C405   C418    1.411   .     A
C406   O458    1.293   .     A
C406   C408    1.455   .     S
C406   O460    1.268   .     A
C407   C416    1.484   .     S
C407   C419    1.430   .     A
C407   C424    1.425   .     A
C408   C476    1.354   .     S
C408   H503    1.088   .     S
C409   C542    1.354   1_455 S
C409   S598    1.783   1_455 S
C410   C413    1.449   .     S
C410   C9      1.330   1_565 S
C410   H27     1.088   1_565 S
C411   C412    1.433   .     S
C412   O461    1.279   .     A
C412   O452    1.278   .     A
C413   O456    1.275   .     A
C413   O462    1.272   .     A
C414   C419    1.392   .     A
C414   C422    1.382   .     A
C414   H434    1.081   .     S
C415   O444    1.280   .     A
C415   C418    1.455   .     S
C415   O442    1.273   .     A
C416   O443    1.276   .     A
C416   O445    1.288   .     A
C417   C1023   1.451   1_554 S
C417   C1029   1.415   1_554 S
C419   S465    1.779   .     S
C420   N439    1.157   .     T
C420   C1020   1.451   .     S
C421   N440    1.158   .     T
C422   C423    1.407   .     A
C422   H1036   1.079   .     S
C423   C424    1.418   .     A
C423   C1028   1.426   .     S
C424   C428    1.409   .     A
C425   C1026   1.426   1_554 S
C425   C1029   1.420   1_554 S
C426   C427    1.402   .     A
C426   C1028   1.420   .     S
C426   C1020   1.415   .     S
C427   C428    1.385   .     A
C427   H432    1.082   .     S
C428   H435    1.080   .     S
H430   O455    0.991   .     S
H431   C9      1.087   1_565 S
H433   C1025   1.079   1_554 S
H436   C542    1.088   1_455 S
H437   O448    0.991   .     S
H438   O451    0.991   .     S
O441   Zn466   1.958   .     S
O441   Zn467   1.949   .     S
O441   Zn468   1.946   .     S
O441   Zn469   1.929   .     S
O442   Zn467   1.937   .     S
O443   Zn469   1.944   .     S
O444   Zn468   1.938   .     S
O445   Zn466   1.930   .     S
O446   S463    1.502   .     D
O447   S463    1.503   .     D
O448   S463    1.682   .     S
O449   S464    1.504   .     D
O450   S464    1.504   .     D
O451   S598    1.683   1_455 S
O452   Zn466   1.927   .     S
O453   S465    1.503   .     D
O454   S465    1.504   .     D
O455   S465    1.682   .     S
O456   Zn469   1.932   .     S
O457   Zn467   1.934   .     S
O458   Zn468   1.943   .     S
O459   Zn469   1.944   .     S
O460   Zn466   1.938   .     S
O461   Zn467   1.931   .     S
O462   Zn468   1.923   .     S
S464   O518    1.683   .     S
S464   C476    1.783   .     S
C470   O526    1.263   .     A
C470   O524    1.269   .     A
C470   C476    1.427   .     S
C471   C485    1.404   .     A
C471   C492    1.413   .     A
C471   C488    1.457   .     S
C472   S530    1.788   .     S
C472   C484    1.410   .     A
C472   C485    1.411   .     A
C473   O525    1.293   .     A
C473   C475    1.455   .     S
C473   O527    1.268   .     A
C474   C483    1.484   .     S
C474   C486    1.430   .     A
C474   C491    1.425   .     A
C475   C543    1.354   .     S
C475   H570    1.088   .     S
C477   C480    1.449   .     S
C477   C76     1.330   1_565 S
C477   H94     1.088   1_565 S
C478   C479    1.433   .     S
C479   O528    1.279   .     A
C479   O519    1.278   .     A
C480   O523    1.275   .     A
C480   O529    1.272   .     A
C481   C486    1.392   .     A
C481   C489    1.382   .     A
C481   H501    1.081   .     S
C482   O511    1.280   .     A
C482   C485    1.455   .     S
C482   O509    1.273   .     A
C483   O510    1.276   .     A
C483   O512    1.288   .     A
C484   C1090   1.451   1_554 S
C484   C1096   1.415   1_554 S
C486   S532    1.779   .     S
C487   N506    1.157   .     T
C487   C1087   1.451   .     S
C488   N507    1.158   .     T
C489   C490    1.407   .     A
C489   H1103   1.079   .     S
C490   C491    1.418   .     A
C490   C1095   1.426   .     S
C491   C495    1.409   .     A
C492   C1093   1.426   1_554 S
C492   C1096   1.420   1_554 S
C493   C494    1.402   .     A
C493   C1095   1.420   .     S
C493   C1087   1.415   .     S
C494   C495    1.385   .     A
C494   H499    1.082   .     S
C495   H502    1.080   .     S
H497   O522    0.991   .     S
H498   C76     1.087   1_565 S
H500   C1092   1.079   1_554 S
H504   O515    0.991   .     S
H505   O518    0.991   .     S
O508   Zn533   1.958   .     S
O508   Zn534   1.949   .     S
O508   Zn535   1.946   .     S
O508   Zn536   1.929   .     S
O509   Zn534   1.937   .     S
O510   Zn536   1.944   .     S
O511   Zn535   1.938   .     S
O512   Zn533   1.930   .     S
O513   S530    1.502   .     D
O514   S530    1.503   .     D
O515   S530    1.682   .     S
O516   S531    1.504   .     D
O517   S531    1.504   .     D
O519   Zn533   1.927   .     S
O520   S532    1.503   .     D
O521   S532    1.504   .     D
O522   S532    1.682   .     S
O523   Zn536   1.932   .     S
O524   Zn534   1.934   .     S
O525   Zn535   1.943   .     S
O526   Zn536   1.944   .     S
O527   Zn533   1.938   .     S
O528   Zn534   1.931   .     S
O529   Zn535   1.923   .     S
S531   O585    1.683   .     S
S531   C543    1.783   .     S
C537   O593    1.263   .     A
C537   O591    1.269   .     A
C537   C543    1.427   .     S
C538   C552    1.404   .     A
C538   C559    1.413   .     A
C538   C555    1.457   .     S
C539   S597    1.788   .     S
C539   C551    1.410   .     A
C539   C552    1.411   .     A
C540   O592    1.293   .     A
C540   C542    1.455   .     S
C540   O594    1.268   .     A
C541   C550    1.484   .     S
C541   C553    1.430   .     A
C541   C558    1.425   .     A
C542   C409    1.354   1_655 S
C542   H436    1.088   1_655 S
C544   C547    1.449   .     S
C544   C143    1.330   1_565 S
C544   H161    1.088   1_565 S
C545   C546    1.433   .     S
C546   O595    1.279   .     A
C546   O586    1.278   .     A
C547   O590    1.275   .     A
C547   O596    1.272   .     A
C548   C553    1.392   .     A
C548   C556    1.382   .     A
C548   H568    1.081   .     S
C549   O578    1.280   .     A
C549   C552    1.455   .     S
C549   O576    1.273   .     A
C550   O577    1.276   .     A
C550   O579    1.288   .     A
C551   C1157   1.451   1_554 S
C551   C1163   1.415   1_554 S
C553   S599    1.779   .     S
C554   N573    1.157   .     T
C554   C1154   1.451   .     S
C555   N574    1.158   .     T
C556   C557    1.407   .     A
C556   H1170   1.079   .     S
C557   C558    1.418   .     A
C557   C1162   1.426   .     S
C558   C562    1.409   .     A
C559   C1160   1.426   1_554 S
C559   C1163   1.420   1_554 S
C560   C561    1.402   .     A
C560   C1162   1.420   .     S
C560   C1154   1.415   .     S
C561   C562    1.385   .     A
C561   H566    1.082   .     S
C562   H569    1.080   .     S
H564   O589    0.991   .     S
H565   C143    1.087   1_565 S
H567   C1159   1.079   1_554 S
H571   O582    0.991   .     S
H572   O585    0.991   .     S
O575   Zn600   1.958   .     S
O575   Zn601   1.949   .     S
O575   Zn602   1.946   .     S
O575   Zn603   1.929   .     S
O576   Zn601   1.937   .     S
O577   Zn603   1.944   .     S
O578   Zn602   1.938   .     S
O579   Zn600   1.930   .     S
O580   S597    1.502   .     D
O581   S597    1.503   .     D
O582   S597    1.682   .     S
O583   S598    1.504   .     D
O584   S598    1.504   .     D
O586   Zn600   1.927   .     S
O587   S599    1.503   .     D
O588   S599    1.504   .     D
O589   S599    1.682   .     S
O590   Zn603   1.932   .     S
O591   Zn601   1.934   .     S
O592   Zn602   1.943   .     S
O593   Zn603   1.944   .     S
O594   Zn600   1.938   .     S
O595   Zn601   1.931   .     S
O596   Zn602   1.923   .     S
S598   O451    1.683   1_655 S
S598   C409    1.783   1_655 S
C604   O660    1.263   .     A
C604   O658    1.269   .     A
C604   C610    1.427   .     S
C605   C619    1.404   .     A
C605   C626    1.413   .     A
C605   C622    1.457   .     S
C606   S664    1.788   .     S
C606   C618    1.410   .     A
C606   C619    1.411   .     A
C607   O659    1.293   .     A
C607   C609    1.455   .     S
C607   O661    1.268   .     A
C608   C617    1.484   .     S
C608   C620    1.430   .     A
C608   C625    1.425   .     A
C609   C677    1.354   .     S
C609   H704    1.088   .     S
C610   C743    1.354   1_455 S
C610   S799    1.783   1_455 S
C611   C614    1.449   .     S
C611   C813    1.330   .     S
C611   H831    1.088   .     S
C612   C613    1.433   .     S
C612   C1013   1.330   1_545 S
C612   H1034   1.087   1_545 S
C613   O662    1.279   .     A
C613   O653    1.278   .     A
C614   O657    1.275   .     A
C614   O663    1.272   .     A
C615   C620    1.392   .     A
C615   C623    1.382   .     A
C615   H635    1.081   .     S
C616   O645    1.280   .     A
C616   C619    1.455   .     S
C616   O643    1.273   .     A
C617   O644    1.276   .     A
C617   O646    1.288   .     A
C620   S666    1.779   .     S
C621   N640    1.157   .     T
C621   C15     1.451   1_556 S
C622   N641    1.158   .     T
C623   C624    1.407   .     A
C623   H31     1.079   1_556 S
C624   C625    1.418   .     A
C624   C23     1.426   1_556 S
C625   C629    1.409   .     A
C627   C628    1.402   .     A
C627   C23     1.420   1_556 S
C627   C15     1.415   1_556 S
C628   C629    1.385   .     A
C628   H633    1.082   .     S
C629   H636    1.080   .     S
H630   C1013   1.088   1_545 S
H631   O656    0.991   .     S
H632   C813    1.087   .     S
H637   C743    1.088   1_455 S
H638   O649    0.991   .     S
H639   O652    0.991   .     S
O642   Zn667   1.958   .     S
O642   Zn668   1.949   .     S
O642   Zn669   1.946   .     S
O642   Zn670   1.929   .     S
O643   Zn668   1.937   .     S
O644   Zn670   1.944   .     S
O645   Zn669   1.938   .     S
O646   Zn667   1.930   .     S
O647   S664    1.502   .     D
O648   S664    1.503   .     D
O649   S664    1.682   .     S
O650   S665    1.504   .     D
O651   S665    1.504   .     D
O652   S799    1.683   1_455 S
O653   Zn667   1.927   .     S
O654   S666    1.503   .     D
O655   S666    1.504   .     D
O656   S666    1.682   .     S
O657   Zn670   1.932   .     S
O658   Zn668   1.934   .     S
O659   Zn669   1.943   .     S
O660   Zn670   1.944   .     S
O661   Zn667   1.938   .     S
O662   Zn668   1.931   .     S
O663   Zn669   1.923   .     S
S665   O719    1.683   .     S
S665   C677    1.783   .     S
C671   O727    1.263   .     A
C671   O725    1.269   .     A
C671   C677    1.427   .     S
C672   C686    1.404   .     A
C672   C693    1.413   .     A
C672   C689    1.457   .     S
C673   S731    1.788   .     S
C673   C685    1.410   .     A
C673   C686    1.411   .     A
C674   O726    1.293   .     A
C674   C676    1.455   .     S
C674   O728    1.268   .     A
C675   C684    1.484   .     S
C675   C687    1.430   .     A
C675   C692    1.425   .     A
C676   C744    1.354   .     S
C676   H771    1.088   .     S
C678   C681    1.449   .     S
C678   C880    1.330   .     S
C678   H898    1.088   .     S
C679   C680    1.433   .     S
C679   C1080   1.330   1_545 S
C679   H1101   1.087   1_545 S
C680   O729    1.279   .     A
C680   O720    1.278   .     A
C681   O724    1.275   .     A
C681   O730    1.272   .     A
C682   C687    1.392   .     A
C682   C690    1.382   .     A
C682   H702    1.081   .     S
C683   O712    1.280   .     A
C683   C686    1.455   .     S
C683   O710    1.273   .     A
C684   O711    1.276   .     A
C684   O713    1.288   .     A
C687   S733    1.779   .     S
C688   N707    1.157   .     T
C688   C82     1.451   1_556 S
C689   N708    1.158   .     T
C690   C691    1.407   .     A
C690   H98     1.079   1_556 S
C691   C692    1.418   .     A
C691   C90     1.426   1_556 S
C692   C696    1.409   .     A
C694   C695    1.402   .     A
C694   C90     1.420   1_556 S
C694   C82     1.415   1_556 S
C695   C696    1.385   .     A
C695   H700    1.082   .     S
C696   H703    1.080   .     S
H697   C1080   1.088   1_545 S
H698   O723    0.991   .     S
H699   C880    1.087   .     S
H705   O716    0.991   .     S
H706   O719    0.991   .     S
O709   Zn734   1.958   .     S
O709   Zn735   1.949   .     S
O709   Zn736   1.946   .     S
O709   Zn737   1.929   .     S
O710   Zn735   1.937   .     S
O711   Zn737   1.944   .     S
O712   Zn736   1.938   .     S
O713   Zn734   1.930   .     S
O714   S731    1.502   .     D
O715   S731    1.503   .     D
O716   S731    1.682   .     S
O717   S732    1.504   .     D
O718   S732    1.504   .     D
O720   Zn734   1.927   .     S
O721   S733    1.503   .     D
O722   S733    1.504   .     D
O723   S733    1.682   .     S
O724   Zn737   1.932   .     S
O725   Zn735   1.934   .     S
O726   Zn736   1.943   .     S
O727   Zn737   1.944   .     S
O728   Zn734   1.938   .     S
O729   Zn735   1.931   .     S
O730   Zn736   1.923   .     S
S732   O786    1.683   .     S
S732   C744    1.783   .     S
C738   O794    1.263   .     A
C738   O792    1.269   .     A
C738   C744    1.427   .     S
C739   C753    1.404   .     A
C739   C760    1.413   .     A
C739   C756    1.457   .     S
C740   S798    1.788   .     S
C740   C752    1.410   .     A
C740   C753    1.411   .     A
C741   O793    1.293   .     A
C741   C743    1.455   .     S
C741   O795    1.268   .     A
C742   C751    1.484   .     S
C742   C754    1.430   .     A
C742   C759    1.425   .     A
C743   C610    1.354   1_655 S
C743   H637    1.088   1_655 S
C745   C748    1.449   .     S
C745   C947    1.330   .     S
C745   H965    1.088   .     S
C746   C747    1.433   .     S
C746   C1147   1.330   1_545 S
C746   H1168   1.087   1_545 S
C747   O796    1.279   .     A
C747   O787    1.278   .     A
C748   O791    1.275   .     A
C748   O797    1.272   .     A
C749   C754    1.392   .     A
C749   C757    1.382   .     A
C749   H769    1.081   .     S
C750   O779    1.280   .     A
C750   C753    1.455   .     S
C750   O777    1.273   .     A
C751   O778    1.276   .     A
C751   O780    1.288   .     A
C754   S800    1.779   .     S
C755   N774    1.157   .     T
C755   C149    1.451   1_556 S
C756   N775    1.158   .     T
C757   C758    1.407   .     A
C757   H165    1.079   1_556 S
C758   C759    1.418   .     A
C758   C157    1.426   1_556 S
C759   C763    1.409   .     A
C761   C762    1.402   .     A
C761   C157    1.420   1_556 S
C761   C149    1.415   1_556 S
C762   C763    1.385   .     A
C762   H767    1.082   .     S
C763   H770    1.080   .     S
H764   C1147   1.088   1_545 S
H765   O790    0.991   .     S
H766   C947    1.087   .     S
H772   O783    0.991   .     S
H773   O786    0.991   .     S
O776   Zn801   1.958   .     S
O776   Zn802   1.949   .     S
O776   Zn803   1.946   .     S
O776   Zn804   1.929   .     S
O777   Zn802   1.937   .     S
O778   Zn804   1.944   .     S
O779   Zn803   1.938   .     S
O780   Zn801   1.930   .     S
O781   S798    1.502   .     D
O782   S798    1.503   .     D
O783   S798    1.682   .     S
O784   S799    1.504   .     D
O785   S799    1.504   .     D
O787   Zn801   1.927   .     S
O788   S800    1.503   .     D
O789   S800    1.504   .     D
O790   S800    1.682   .     S
O791   Zn804   1.932   .     S
O792   Zn802   1.934   .     S
O793   Zn803   1.943   .     S
O794   Zn804   1.944   .     S
O795   Zn801   1.938   .     S
O796   Zn802   1.931   .     S
O797   Zn803   1.923   .     S
S799   O652    1.683   1_655 S
S799   C610    1.783   1_655 S
C805   O861    1.263   .     A
C805   O859    1.269   .     A
C805   C811    1.427   .     S
C806   C820    1.404   .     A
C806   C827    1.413   .     A
C806   C823    1.457   .     S
C807   S865    1.788   .     S
C807   C819    1.410   .     A
C807   C820    1.411   .     A
C808   O860    1.293   .     A
C808   C810    1.455   .     S
C808   O862    1.268   .     A
C809   C818    1.484   .     S
C809   C821    1.430   .     A
C809   C826    1.425   .     A
C810   C878    1.354   .     S
C810   H905    1.088   .     S
C811   C944    1.354   1_455 S
C811   S1000   1.783   1_455 S
C812   C815    1.449   .     S
C812   C1014   1.330   .     S
C812   H1032   1.088   .     S
C813   C814    1.433   .     S
C814   O863    1.279   .     A
C814   O854    1.278   .     A
C815   O858    1.275   .     A
C815   O864    1.272   .     A
C816   C821    1.392   .     A
C816   C824    1.382   .     A
C816   H836    1.081   .     S
C817   O846    1.280   .     A
C817   C820    1.455   .     S
C817   O844    1.273   .     A
C818   O845    1.276   .     A
C818   O847    1.288   .     A
C821   S867    1.779   .     S
C822   N841    1.157   .     T
C822   C216    1.451   1_556 S
C823   N842    1.158   .     T
C824   C825    1.407   .     A
C824   H232    1.079   1_556 S
C825   C826    1.418   .     A
C825   C224    1.426   1_556 S
C826   C830    1.409   .     A
C828   C829    1.402   .     A
C828   C224    1.420   1_556 S
C828   C216    1.415   1_556 S
C829   C830    1.385   .     A
C829   H834    1.082   .     S
C830   H837    1.080   .     S
H832   O857    0.991   .     S
H833   C1014   1.087   .     S
H838   C944    1.088   1_455 S
H839   O850    0.991   .     S
H840   O853    0.991   .     S
O843   Zn868   1.958   .     S
O843   Zn869   1.949   .     S
O843   Zn870   1.946   .     S
O843   Zn871   1.929   .     S
O844   Zn869   1.937   .     S
O845   Zn871   1.944   .     S
O846   Zn870   1.938   .     S
O847   Zn868   1.930   .     S
O848   S865    1.502   .     D
O849   S865    1.503   .     D
O850   S865    1.682   .     S
O851   S866    1.504   .     D
O852   S866    1.504   .     D
O853   S1000   1.683   1_455 S
O854   Zn868   1.927   .     S
O855   S867    1.503   .     D
O856   S867    1.504   .     D
O857   S867    1.682   .     S
O858   Zn871   1.932   .     S
O859   Zn869   1.934   .     S
O860   Zn870   1.943   .     S
O861   Zn871   1.944   .     S
O862   Zn868   1.938   .     S
O863   Zn869   1.931   .     S
O864   Zn870   1.923   .     S
S866   O920    1.683   .     S
S866   C878    1.783   .     S
C872   O928    1.263   .     A
C872   O926    1.269   .     A
C872   C878    1.427   .     S
C873   C887    1.404   .     A
C873   C894    1.413   .     A
C873   C890    1.457   .     S
C874   S932    1.788   .     S
C874   C886    1.410   .     A
C874   C887    1.411   .     A
C875   O927    1.293   .     A
C875   C877    1.455   .     S
C875   O929    1.268   .     A
C876   C885    1.484   .     S
C876   C888    1.430   .     A
C876   C893    1.425   .     A
C877   C945    1.354   .     S
C877   H972    1.088   .     S
C879   C882    1.449   .     S
C879   C1081   1.330   .     S
C879   H1099   1.088   .     S
C880   C881    1.433   .     S
C881   O930    1.279   .     A
C881   O921    1.278   .     A
C882   O925    1.275   .     A
C882   O931    1.272   .     A
C883   C888    1.392   .     A
C883   C891    1.382   .     A
C883   H903    1.081   .     S
C884   O913    1.280   .     A
C884   C887    1.455   .     S
C884   O911    1.273   .     A
C885   O912    1.276   .     A
C885   O914    1.288   .     A
C888   S934    1.779   .     S
C889   N908    1.157   .     T
C889   C283    1.451   1_556 S
C890   N909    1.158   .     T
C891   C892    1.407   .     A
C891   H299    1.079   1_556 S
C892   C893    1.418   .     A
C892   C291    1.426   1_556 S
C893   C897    1.409   .     A
C895   C896    1.402   .     A
C895   C291    1.420   1_556 S
C895   C283    1.415   1_556 S
C896   C897    1.385   .     A
C896   H901    1.082   .     S
C897   H904    1.080   .     S
H899   O924    0.991   .     S
H900   C1081   1.087   .     S
H906   O917    0.991   .     S
H907   O920    0.991   .     S
O910   Zn935   1.958   .     S
O910   Zn936   1.949   .     S
O910   Zn937   1.946   .     S
O910   Zn938   1.929   .     S
O911   Zn936   1.937   .     S
O912   Zn938   1.944   .     S
O913   Zn937   1.938   .     S
O914   Zn935   1.930   .     S
O915   S932    1.502   .     D
O916   S932    1.503   .     D
O917   S932    1.682   .     S
O918   S933    1.504   .     D
O919   S933    1.504   .     D
O921   Zn935   1.927   .     S
O922   S934    1.503   .     D
O923   S934    1.504   .     D
O924   S934    1.682   .     S
O925   Zn938   1.932   .     S
O926   Zn936   1.934   .     S
O927   Zn937   1.943   .     S
O928   Zn938   1.944   .     S
O929   Zn935   1.938   .     S
O930   Zn936   1.931   .     S
O931   Zn937   1.923   .     S
S933   O987    1.683   .     S
S933   C945    1.783   .     S
C939   O995    1.263   .     A
C939   O993    1.269   .     A
C939   C945    1.427   .     S
C940   C954    1.404   .     A
C940   C961    1.413   .     A
C940   C957    1.457   .     S
C941   S999    1.788   .     S
C941   C953    1.410   .     A
C941   C954    1.411   .     A
C942   O994    1.293   .     A
C942   C944    1.455   .     S
C942   O996    1.268   .     A
C943   C952    1.484   .     S
C943   C955    1.430   .     A
C943   C960    1.425   .     A
C944   C811    1.354   1_655 S
C944   H838    1.088   1_655 S
C946   C949    1.449   .     S
C946   C1148   1.330   .     S
C946   H1166   1.088   .     S
C947   C948    1.433   .     S
C948   O997    1.279   .     A
C948   O988    1.278   .     A
C949   O992    1.275   .     A
C949   O998    1.272   .     A
C950   C955    1.392   .     A
C950   C958    1.382   .     A
C950   H970    1.081   .     S
C951   O980    1.280   .     A
C951   C954    1.455   .     S
C951   O978    1.273   .     A
C952   O979    1.276   .     A
C952   O981    1.288   .     A
C955   S1001   1.779   .     S
C956   N975    1.157   .     T
C956   C350    1.451   1_556 S
C957   N976    1.158   .     T
C958   C959    1.407   .     A
C958   H366    1.079   1_556 S
C959   C960    1.418   .     A
C959   C358    1.426   1_556 S
C960   C964    1.409   .     A
C962   C963    1.402   .     A
C962   C358    1.420   1_556 S
C962   C350    1.415   1_556 S
C963   C964    1.385   .     A
C963   H968    1.082   .     S
C964   H971    1.080   .     S
H966   O991    0.991   .     S
H967   C1148   1.087   .     S
H973   O984    0.991   .     S
H974   O987    0.991   .     S
O977   Zn1002  1.958   .     S
O977   Zn1003  1.949   .     S
O977   Zn1004  1.946   .     S
O977   Zn1005  1.929   .     S
O978   Zn1003  1.937   .     S
O979   Zn1005  1.944   .     S
O980   Zn1004  1.938   .     S
O981   Zn1002  1.930   .     S
O982   S999    1.502   .     D
O983   S999    1.503   .     D
O984   S999    1.682   .     S
O985   S1000   1.504   .     D
O986   S1000   1.504   .     D
O988   Zn1002  1.927   .     S
O989   S1001   1.503   .     D
O990   S1001   1.504   .     D
O991   S1001   1.682   .     S
O992   Zn1005  1.932   .     S
O993   Zn1003  1.934   .     S
O994   Zn1004  1.943   .     S
O995   Zn1005  1.944   .     S
O996   Zn1002  1.938   .     S
O997   Zn1003  1.931   .     S
O998   Zn1004  1.923   .     S
S1000  O853    1.683   1_655 S
S1000  C811    1.783   1_655 S
C1006  O1062   1.263   .     A
C1006  O1060   1.269   .     A
C1006  C1012   1.427   .     S
C1007  C1021   1.404   .     A
C1007  C1028   1.413   .     A
C1007  C1024   1.457   .     S
C1008  S1066   1.788   .     S
C1008  C1020   1.410   .     A
C1008  C1021   1.411   .     A
C1009  O1061   1.293   .     A
C1009  C1011   1.455   .     S
C1009  O1063   1.268   .     A
C1010  C1019   1.484   .     S
C1010  C1022   1.430   .     A
C1010  C1027   1.425   .     A
C1011  C1079   1.354   .     S
C1011  H1106   1.088   .     S
C1012  C1145   1.354   1_455 S
C1012  S1201   1.783   1_455 S
C1013  C1016   1.449   .     S
C1013  C612    1.330   1_565 S
C1013  H630    1.088   1_565 S
C1014  C1015   1.433   .     S
C1015  O1064   1.279   .     A
C1015  O1055   1.278   .     A
C1016  O1059   1.275   .     A
C1016  O1065   1.272   .     A
C1017  C1022   1.392   .     A
C1017  C1025   1.382   .     A
C1017  H1037   1.081   .     S
C1018  O1047   1.280   .     A
C1018  C1021   1.455   .     S
C1018  O1045   1.273   .     A
C1019  O1046   1.276   .     A
C1019  O1048   1.288   .     A
C1022  S1068   1.779   .     S
C1023  N1042   1.157   .     T
C1023  C417    1.451   1_556 S
C1024  N1043   1.158   .     T
C1025  C1026   1.407   .     A
C1025  H433    1.079   1_556 S
C1026  C1027   1.418   .     A
C1026  C425    1.426   1_556 S
C1027  C1031   1.409   .     A
C1029  C1030   1.402   .     A
C1029  C425    1.420   1_556 S
C1029  C417    1.415   1_556 S
C1030  C1031   1.385   .     A
C1030  H1035   1.082   .     S
C1031  H1038   1.080   .     S
H1033  O1058   0.991   .     S
H1034  C612    1.087   1_565 S
H1039  C1145   1.088   1_455 S
H1040  O1051   0.991   .     S
H1041  O1054   0.991   .     S
O1044  Zn1069  1.958   .     S
O1044  Zn1070  1.949   .     S
O1044  Zn1071  1.946   .     S
O1044  Zn1072  1.929   .     S
O1045  Zn1070  1.937   .     S
O1046  Zn1072  1.944   .     S
O1047  Zn1071  1.938   .     S
O1048  Zn1069  1.930   .     S
O1049  S1066   1.502   .     D
O1050  S1066   1.503   .     D
O1051  S1066   1.682   .     S
O1052  S1067   1.504   .     D
O1053  S1067   1.504   .     D
O1054  S1201   1.683   1_455 S
O1055  Zn1069  1.927   .     S
O1056  S1068   1.503   .     D
O1057  S1068   1.504   .     D
O1058  S1068   1.682   .     S
O1059  Zn1072  1.932   .     S
O1060  Zn1070  1.934   .     S
O1061  Zn1071  1.943   .     S
O1062  Zn1072  1.944   .     S
O1063  Zn1069  1.938   .     S
O1064  Zn1070  1.931   .     S
O1065  Zn1071  1.923   .     S
S1067  O1121   1.683   .     S
S1067  C1079   1.783   .     S
C1073  O1129   1.263   .     A
C1073  O1127   1.269   .     A
C1073  C1079   1.427   .     S
C1074  C1088   1.404   .     A
C1074  C1095   1.413   .     A
C1074  C1091   1.457   .     S
C1075  S1133   1.788   .     S
C1075  C1087   1.410   .     A
C1075  C1088   1.411   .     A
C1076  O1128   1.293   .     A
C1076  C1078   1.455   .     S
C1076  O1130   1.268   .     A
C1077  C1086   1.484   .     S
C1077  C1089   1.430   .     A
C1077  C1094   1.425   .     A
C1078  C1146   1.354   .     S
C1078  H1173   1.088   .     S
C1080  C1083   1.449   .     S
C1080  C679    1.330   1_565 S
C1080  H697    1.088   1_565 S
C1081  C1082   1.433   .     S
C1082  O1131   1.279   .     A
C1082  O1122   1.278   .     A
C1083  O1126   1.275   .     A
C1083  O1132   1.272   .     A
C1084  C1089   1.392   .     A
C1084  C1092   1.382   .     A
C1084  H1104   1.081   .     S
C1085  O1114   1.280   .     A
C1085  C1088   1.455   .     S
C1085  O1112   1.273   .     A
C1086  O1113   1.276   .     A
C1086  O1115   1.288   .     A
C1089  S1135   1.779   .     S
C1090  N1109   1.157   .     T
C1090  C484    1.451   1_556 S
C1091  N1110   1.158   .     T
C1092  C1093   1.407   .     A
C1092  H500    1.079   1_556 S
C1093  C1094   1.418   .     A
C1093  C492    1.426   1_556 S
C1094  C1098   1.409   .     A
C1096  C1097   1.402   .     A
C1096  C492    1.420   1_556 S
C1096  C484    1.415   1_556 S
C1097  C1098   1.385   .     A
C1097  H1102   1.082   .     S
C1098  H1105   1.080   .     S
H1100  O1125   0.991   .     S
H1101  C679    1.087   1_565 S
H1107  O1118   0.991   .     S
H1108  O1121   0.991   .     S
O1111  Zn1136  1.958   .     S
O1111  Zn1137  1.949   .     S
O1111  Zn1138  1.946   .     S
O1111  Zn1139  1.929   .     S
O1112  Zn1137  1.937   .     S
O1113  Zn1139  1.944   .     S
O1114  Zn1138  1.938   .     S
O1115  Zn1136  1.930   .     S
O1116  S1133   1.502   .     D
O1117  S1133   1.503   .     D
O1118  S1133   1.682   .     S
O1119  S1134   1.504   .     D
O1120  S1134   1.504   .     D
O1122  Zn1136  1.927   .     S
O1123  S1135   1.503   .     D
O1124  S1135   1.504   .     D
O1125  S1135   1.682   .     S
O1126  Zn1139  1.932   .     S
O1127  Zn1137  1.934   .     S
O1128  Zn1138  1.943   .     S
O1129  Zn1139  1.944   .     S
O1130  Zn1136  1.938   .     S
O1131  Zn1137  1.931   .     S
O1132  Zn1138  1.923   .     S
S1134  O1188   1.683   .     S
S1134  C1146   1.783   .     S
C1140  O1196   1.263   .     A
C1140  O1194   1.269   .     A
C1140  C1146   1.427   .     S
C1141  C1155   1.404   .     A
C1141  C1162   1.413   .     A
C1141  C1158   1.457   .     S
C1142  S1200   1.788   .     S
C1142  C1154   1.410   .     A
C1142  C1155   1.411   .     A
C1143  O1195   1.293   .     A
C1143  C1145   1.455   .     S
C1143  O1197   1.268   .     A
C1144  C1153   1.484   .     S
C1144  C1156   1.430   .     A
C1144  C1161   1.425   .     A
C1145  C1012   1.354   1_655 S
C1145  H1039   1.088   1_655 S
C1147  C1150   1.449   .     S
C1147  C746    1.330   1_565 S
C1147  H764    1.088   1_565 S
C1148  C1149   1.433   .     S
C1149  O1198   1.279   .     A
C1149  O1189   1.278   .     A
C1150  O1193   1.275   .     A
C1150  O1199   1.272   .     A
C1151  C1156   1.392   .     A
C1151  C1159   1.382   .     A
C1151  H1171   1.081   .     S
C1152  O1181   1.280   .     A
C1152  C1155   1.455   .     S
C1152  O1179   1.273   .     A
C1153  O1180   1.276   .     A
C1153  O1182   1.288   .     A
C1156  S1202   1.779   .     S
C1157  N1176   1.157   .     T
C1157  C551    1.451   1_556 S
C1158  N1177   1.158   .     T
C1159  C1160   1.407   .     A
C1159  H567    1.079   1_556 S
C1160  C1161   1.418   .     A
C1160  C559    1.426   1_556 S
C1161  C1165   1.409   .     A
C1163  C1164   1.402   .     A
C1163  C559    1.420   1_556 S
C1163  C551    1.415   1_556 S
C1164  C1165   1.385   .     A
C1164  H1169   1.082   .     S
C1165  H1172   1.080   .     S
H1167  O1192   0.991   .     S
H1168  C746    1.087   1_565 S
H1174  O1185   0.991   .     S
H1175  O1188   0.991   .     S
O1178  Zn1203  1.958   .     S
O1178  Zn1204  1.949   .     S
O1178  Zn1205  1.946   .     S
O1178  Zn1206  1.929   .     S
O1179  Zn1204  1.937   .     S
O1180  Zn1206  1.944   .     S
O1181  Zn1205  1.938   .     S
O1182  Zn1203  1.930   .     S
O1183  S1200   1.502   .     D
O1184  S1200   1.503   .     D
O1185  S1200   1.682   .     S
O1186  S1201   1.504   .     D
O1187  S1201   1.504   .     D
O1189  Zn1203  1.927   .     S
O1190  S1202   1.503   .     D
O1191  S1202   1.504   .     D
O1192  S1202   1.682   .     S
O1193  Zn1206  1.932   .     S
O1194  Zn1204  1.934   .     S
O1195  Zn1205  1.943   .     S
O1196  Zn1206  1.944   .     S
O1197  Zn1203  1.938   .     S
O1198  Zn1204  1.931   .     S
O1199  Zn1205  1.923   .     S
S1201  O1054   1.683   1_655 S
S1201  C1012   1.783   1_655 S
