data_str_m1_o10_o16_pcu_sym.258
_audit_creation_date              2020-01-03
_audit_creation_method            'Materials Studio'
_symmetry_space_group_name_H-M    'P1'
_symmetry_Int_Tables_number       1
_symmetry_cell_setting            triclinic
loop_
_symmetry_equiv_pos_as_xyz
  x,y,z
_cell_length_a                    32.5393
_cell_length_b                    32.5021
_cell_length_c                    31.0995
_cell_angle_alpha                 96.0274
_cell_angle_beta                  74.6353
_cell_angle_gamma                 98.3978
loop_
_atom_site_label
_atom_site_type_symbol
_atom_site_fract_x
_atom_site_fract_y
_atom_site_fract_z
_atom_site_U_iso_or_equiv
_atom_site_adp_type
_atom_site_occupancy
C1     C     0.05279   0.15972   0.26002   0.00000  Uiso   1.00
C2     C     0.16540   0.15245   0.05948   0.00000  Uiso   1.00
C3     C     0.23528   0.13333   0.05693   0.00000  Uiso   1.00
C4     C     0.28083   0.17382   0.23997   0.00000  Uiso   1.00
C5     C     0.13733   0.18727   0.42016   0.00000  Uiso   1.00
C6     C     0.32673   0.17641   0.23573   0.00000  Uiso   1.00
C7     C     0.00748   0.15740   0.26409   0.00000  Uiso   1.00
C8     C     0.18053   0.32253   0.23622   0.00000  Uiso   1.00
C9     C     0.15227   0.01177   0.26402   0.00000  Uiso   1.00
C10    C     0.15632   0.05589   0.26016   0.00000  Uiso   1.00
C11    C     0.17665   0.27794   0.24010   0.00000  Uiso   1.00
C12    C     0.07806   0.18239   0.48620   0.00000  Uiso   1.00
C13    C     0.18541   0.14849   0.12942   0.00000  Uiso   1.00
C14    C     0.14908   0.18495   0.37086   0.00000  Uiso   1.00
C15    C     0.24781   0.13665   0.01106   0.00000  Uiso   1.00
C16    C     0.19451   0.14224   0.08118   0.00000  Uiso   1.00
C17    C     0.09517   0.19367   0.44264   0.00000  Uiso   1.00
C18    C     0.10249   0.16454   0.00821   0.00000  Uiso   1.00
C19    C     0.14765   0.16454   0.48916   0.00000  Uiso   1.00
C20    C     0.16475   0.17558   0.44415   0.00000  Uiso   1.00
C21    C     0.17645   0.15399   0.01268   0.00000  Uiso   1.00
C22    C     0.21948   0.14871   0.48915   0.00000  Uiso   1.00
C23    C     0.23501   0.15880   0.44496   0.00000  Uiso   1.00
C24    C     0.20883   0.17435   0.42376   0.00000  Uiso   1.00
H25    H     0.25821   0.12620   0.07392   0.00000  Uiso   1.00
H26    H     0.26837   0.15702   0.42749   0.00000  Uiso   1.00
H27    H     0.28041   0.13198   0.49311   0.00000  Uiso   1.00
H28    H     0.09307   0.11800   0.04448   0.00000  Uiso   1.00
H29    H     0.20658   0.00377   0.21057   0.00000  Uiso   1.00
H30    H     0.12598   0.33132   0.28993   0.00000  Uiso   1.00
H31    H     0.13606   0.16298   0.08016   0.00000  Uiso   1.00
H32    H     0.07394   0.20342   0.42513   0.00000  Uiso   1.00
H33    H     0.04419   0.18375   0.00142   0.00000  Uiso   1.00
H34    H     0.22393   0.18582   0.39119   0.00000  Uiso   1.00
H35    H     0.01584   0.19382   0.20941   0.00000  Uiso   1.00
H36    H     0.31903   0.14017   0.29090   0.00000  Uiso   1.00
O37    O     0.16667   0.16667   0.25000   0.00000  Uiso   1.00
O38    O     0.15451   0.12637   0.15458   0.00000  Uiso   1.00
O39    O     0.12940   0.20391   0.34968   0.00000  Uiso   1.00
O40    O     0.20824   0.17759   0.14606   0.00000  Uiso   1.00
O41    O     0.17451   0.15880   0.34968   0.00000  Uiso   1.00
O42    O     0.08008   0.14396   0.04548   0.00000  Uiso   1.00
O43    O     0.17930   0.08019   0.28214   0.00000  Uiso   1.00
O44    O     0.14632   0.26085   0.27013   0.00000  Uiso   1.00
O45    O     0.07412   0.13291   0.23413   0.00000  Uiso   1.00
O46    O     0.26693   0.19272   0.21360   0.00000  Uiso   1.00
O47    O     0.07071   0.18878   0.28213   0.00000  Uiso   1.00
O48    O     0.25491   0.15226   0.27014   0.00000  Uiso   1.00
O49    O     0.13760   0.06944   0.23413   0.00000  Uiso   1.00
O50    O     0.20345   0.25620   0.21360   0.00000  Uiso   1.00
Zn51   Zn    0.19338   0.13994   0.28734   0.00000  Uiso   1.00
Zn52   Zn    0.13379   0.12458   0.21875   0.00000  Uiso   1.00
Zn53   Zn    0.21056   0.19775   0.20657   0.00000  Uiso   1.00
Zn54   Zn    0.12893   0.20439   0.28733   0.00000  Uiso   1.00
C55    C     0.38612   0.15972   0.26002   0.00000  Uiso   1.00
C56    C     0.49873   0.15245   0.05948   0.00000  Uiso   1.00
C57    C     0.56861   0.13333   0.05693   0.00000  Uiso   1.00
C58    C     0.61417   0.17382   0.23997   0.00000  Uiso   1.00
C59    C     0.47067   0.18727   0.42016   0.00000  Uiso   1.00
C60    C     0.66007   0.17641   0.23573   0.00000  Uiso   1.00
C61    C     0.34081   0.15740   0.26409   0.00000  Uiso   1.00
C62    C     0.51386   0.32253   0.23622   0.00000  Uiso   1.00
C63    C     0.48560   0.01177   0.26402   0.00000  Uiso   1.00
C64    C     0.48966   0.05589   0.26016   0.00000  Uiso   1.00
C65    C     0.50998   0.27794   0.24010   0.00000  Uiso   1.00
C66    C     0.41139   0.18239   0.48620   0.00000  Uiso   1.00
C67    C     0.51874   0.14849   0.12942   0.00000  Uiso   1.00
C68    C     0.48242   0.18495   0.37086   0.00000  Uiso   1.00
C69    C     0.58115   0.13665   0.01106   0.00000  Uiso   1.00
C70    C     0.52785   0.14224   0.08118   0.00000  Uiso   1.00
C71    C     0.42851   0.19367   0.44264   0.00000  Uiso   1.00
C72    C     0.43583   0.16454   0.00821   0.00000  Uiso   1.00
C73    C     0.48099   0.16454   0.48916   0.00000  Uiso   1.00
C74    C     0.49809   0.17558   0.44415   0.00000  Uiso   1.00
C75    C     0.50979   0.15399   0.01268   0.00000  Uiso   1.00
C76    C     0.55282   0.14871   0.48915   0.00000  Uiso   1.00
C77    C     0.56835   0.15880   0.44496   0.00000  Uiso   1.00
C78    C     0.54217   0.17435   0.42376   0.00000  Uiso   1.00
H79    H     0.59154   0.12620   0.07392   0.00000  Uiso   1.00
H80    H     0.60171   0.15702   0.42749   0.00000  Uiso   1.00
H81    H     0.61374   0.13198   0.49311   0.00000  Uiso   1.00
H82    H     0.42640   0.11800   0.04448   0.00000  Uiso   1.00
H83    H     0.53991   0.00377   0.21057   0.00000  Uiso   1.00
H84    H     0.45931   0.33132   0.28993   0.00000  Uiso   1.00
H85    H     0.46940   0.16298   0.08016   0.00000  Uiso   1.00
H86    H     0.40727   0.20342   0.42513   0.00000  Uiso   1.00
H87    H     0.37753   0.18375   0.00142   0.00000  Uiso   1.00
H88    H     0.55726   0.18582   0.39119   0.00000  Uiso   1.00
H89    H     0.34917   0.19382   0.20941   0.00000  Uiso   1.00
H90    H     0.65236   0.14017   0.29090   0.00000  Uiso   1.00
O91    O     0.50000   0.16667   0.25000   0.00000  Uiso   1.00
O92    O     0.48784   0.12637   0.15458   0.00000  Uiso   1.00
O93    O     0.46274   0.20391   0.34968   0.00000  Uiso   1.00
O94    O     0.54157   0.17759   0.14606   0.00000  Uiso   1.00
O95    O     0.50785   0.15880   0.34968   0.00000  Uiso   1.00
O96    O     0.41341   0.14396   0.04548   0.00000  Uiso   1.00
O97    O     0.51264   0.08019   0.28214   0.00000  Uiso   1.00
O98    O     0.47965   0.26085   0.27013   0.00000  Uiso   1.00
O99    O     0.40745   0.13291   0.23413   0.00000  Uiso   1.00
O100   O     0.60026   0.19272   0.21360   0.00000  Uiso   1.00
O101   O     0.40405   0.18878   0.28213   0.00000  Uiso   1.00
O102   O     0.58824   0.15226   0.27014   0.00000  Uiso   1.00
O103   O     0.47093   0.06944   0.23413   0.00000  Uiso   1.00
O104   O     0.53678   0.25620   0.21360   0.00000  Uiso   1.00
Zn105  Zn    0.52672   0.13994   0.28734   0.00000  Uiso   1.00
Zn106  Zn    0.46713   0.12458   0.21875   0.00000  Uiso   1.00
Zn107  Zn    0.54389   0.19775   0.20657   0.00000  Uiso   1.00
Zn108  Zn    0.46226   0.20439   0.28733   0.00000  Uiso   1.00
C109   C     0.71946   0.15972   0.26002   0.00000  Uiso   1.00
C110   C     0.83206   0.15245   0.05948   0.00000  Uiso   1.00
C111   C     0.90194   0.13333   0.05693   0.00000  Uiso   1.00
C112   C     0.94750   0.17382   0.23997   0.00000  Uiso   1.00
C113   C     0.80400   0.18727   0.42016   0.00000  Uiso   1.00
C114   C     0.99340   0.17641   0.23573   0.00000  Uiso   1.00
C115   C     0.67414   0.15740   0.26409   0.00000  Uiso   1.00
C116   C     0.84719   0.32253   0.23622   0.00000  Uiso   1.00
C117   C     0.81894   0.01177   0.26402   0.00000  Uiso   1.00
C118   C     0.82299   0.05589   0.26016   0.00000  Uiso   1.00
C119   C     0.84331   0.27794   0.24010   0.00000  Uiso   1.00
C120   C     0.74472   0.18239   0.48620   0.00000  Uiso   1.00
C121   C     0.85207   0.14849   0.12942   0.00000  Uiso   1.00
C122   C     0.81575   0.18495   0.37086   0.00000  Uiso   1.00
C123   C     0.91448   0.13665   0.01106   0.00000  Uiso   1.00
C124   C     0.86118   0.14224   0.08118   0.00000  Uiso   1.00
C125   C     0.76184   0.19367   0.44264   0.00000  Uiso   1.00
C126   C     0.76916   0.16454   0.00821   0.00000  Uiso   1.00
C127   C     0.81432   0.16454   0.48916   0.00000  Uiso   1.00
C128   C     0.83142   0.17558   0.44415   0.00000  Uiso   1.00
C129   C     0.84312   0.15399   0.01268   0.00000  Uiso   1.00
C130   C     0.88615   0.14871   0.48915   0.00000  Uiso   1.00
C131   C     0.90168   0.15880   0.44496   0.00000  Uiso   1.00
C132   C     0.87550   0.17435   0.42376   0.00000  Uiso   1.00
H133   H     0.92487   0.12620   0.07392   0.00000  Uiso   1.00
H134   H     0.93504   0.15702   0.42749   0.00000  Uiso   1.00
H135   H     0.94708   0.13198   0.49311   0.00000  Uiso   1.00
H136   H     0.75973   0.11800   0.04448   0.00000  Uiso   1.00
H137   H     0.87325   0.00377   0.21057   0.00000  Uiso   1.00
H138   H     0.79265   0.33132   0.28993   0.00000  Uiso   1.00
H139   H     0.80273   0.16298   0.08016   0.00000  Uiso   1.00
H140   H     0.74061   0.20342   0.42513   0.00000  Uiso   1.00
H141   H     0.71086   0.18375   0.00142   0.00000  Uiso   1.00
H142   H     0.89060   0.18582   0.39119   0.00000  Uiso   1.00
H143   H     0.68250   0.19382   0.20941   0.00000  Uiso   1.00
H144   H     0.98569   0.14017   0.29090   0.00000  Uiso   1.00
O145   O     0.83333   0.16667   0.25000   0.00000  Uiso   1.00
O146   O     0.82118   0.12637   0.15458   0.00000  Uiso   1.00
O147   O     0.79607   0.20391   0.34968   0.00000  Uiso   1.00
O148   O     0.87491   0.17759   0.14606   0.00000  Uiso   1.00
O149   O     0.84118   0.15880   0.34968   0.00000  Uiso   1.00
O150   O     0.74675   0.14396   0.04548   0.00000  Uiso   1.00
O151   O     0.84597   0.08019   0.28214   0.00000  Uiso   1.00
O152   O     0.81298   0.26085   0.27013   0.00000  Uiso   1.00
O153   O     0.74078   0.13291   0.23413   0.00000  Uiso   1.00
O154   O     0.93360   0.19272   0.21360   0.00000  Uiso   1.00
O155   O     0.73738   0.18878   0.28213   0.00000  Uiso   1.00
O156   O     0.92158   0.15226   0.27014   0.00000  Uiso   1.00
O157   O     0.80426   0.06944   0.23413   0.00000  Uiso   1.00
O158   O     0.87012   0.25620   0.21360   0.00000  Uiso   1.00
Zn159  Zn    0.86005   0.13994   0.28734   0.00000  Uiso   1.00
Zn160  Zn    0.80046   0.12458   0.21875   0.00000  Uiso   1.00
Zn161  Zn    0.87723   0.19775   0.20657   0.00000  Uiso   1.00
Zn162  Zn    0.79560   0.20439   0.28733   0.00000  Uiso   1.00
C163   C     0.05279   0.49305   0.26002   0.00000  Uiso   1.00
C164   C     0.16540   0.48579   0.05948   0.00000  Uiso   1.00
C165   C     0.23528   0.46666   0.05693   0.00000  Uiso   1.00
C166   C     0.28083   0.50715   0.23997   0.00000  Uiso   1.00
C167   C     0.13733   0.52061   0.42016   0.00000  Uiso   1.00
C168   C     0.32673   0.50975   0.23573   0.00000  Uiso   1.00
C169   C     0.00748   0.49074   0.26409   0.00000  Uiso   1.00
C170   C     0.18053   0.65587   0.23622   0.00000  Uiso   1.00
C171   C     0.15227   0.34511   0.26402   0.00000  Uiso   1.00
C172   C     0.15632   0.38922   0.26016   0.00000  Uiso   1.00
C173   C     0.17665   0.61127   0.24010   0.00000  Uiso   1.00
C174   C     0.07806   0.51573   0.48620   0.00000  Uiso   1.00
C175   C     0.18541   0.48182   0.12942   0.00000  Uiso   1.00
C176   C     0.14908   0.51828   0.37086   0.00000  Uiso   1.00
C177   C     0.24781   0.46999   0.01106   0.00000  Uiso   1.00
C178   C     0.19451   0.47558   0.08118   0.00000  Uiso   1.00
C179   C     0.09517   0.52701   0.44264   0.00000  Uiso   1.00
C180   C     0.10249   0.49787   0.00821   0.00000  Uiso   1.00
C181   C     0.14765   0.49787   0.48916   0.00000  Uiso   1.00
C182   C     0.16475   0.50891   0.44415   0.00000  Uiso   1.00
C183   C     0.17645   0.48732   0.01268   0.00000  Uiso   1.00
C184   C     0.21948   0.48204   0.48915   0.00000  Uiso   1.00
C185   C     0.23501   0.49213   0.44496   0.00000  Uiso   1.00
C186   C     0.20883   0.50768   0.42376   0.00000  Uiso   1.00
H187   H     0.25821   0.45954   0.07392   0.00000  Uiso   1.00
H188   H     0.26837   0.49036   0.42749   0.00000  Uiso   1.00
H189   H     0.28041   0.46532   0.49311   0.00000  Uiso   1.00
H190   H     0.09307   0.45133   0.04448   0.00000  Uiso   1.00
H191   H     0.20658   0.33711   0.21057   0.00000  Uiso   1.00
H192   H     0.12598   0.66466   0.28993   0.00000  Uiso   1.00
H193   H     0.13606   0.49632   0.08016   0.00000  Uiso   1.00
H194   H     0.07394   0.53676   0.42513   0.00000  Uiso   1.00
H195   H     0.04419   0.51709   0.00142   0.00000  Uiso   1.00
H196   H     0.22393   0.51915   0.39119   0.00000  Uiso   1.00
H197   H     0.01584   0.52715   0.20941   0.00000  Uiso   1.00
H198   H     0.31903   0.47351   0.29090   0.00000  Uiso   1.00
O199   O     0.16667   0.50000   0.25000   0.00000  Uiso   1.00
O200   O     0.15451   0.45970   0.15458   0.00000  Uiso   1.00
O201   O     0.12940   0.53724   0.34968   0.00000  Uiso   1.00
O202   O     0.20824   0.51092   0.14606   0.00000  Uiso   1.00
O203   O     0.17451   0.49213   0.34968   0.00000  Uiso   1.00
O204   O     0.08008   0.47729   0.04548   0.00000  Uiso   1.00
O205   O     0.17930   0.41352   0.28214   0.00000  Uiso   1.00
O206   O     0.14632   0.59418   0.27013   0.00000  Uiso   1.00
O207   O     0.07412   0.46625   0.23413   0.00000  Uiso   1.00
O208   O     0.26693   0.52605   0.21360   0.00000  Uiso   1.00
O209   O     0.07071   0.52211   0.28213   0.00000  Uiso   1.00
O210   O     0.25491   0.48559   0.27014   0.00000  Uiso   1.00
O211   O     0.13760   0.40277   0.23413   0.00000  Uiso   1.00
O212   O     0.20345   0.58953   0.21360   0.00000  Uiso   1.00
Zn213  Zn    0.19338   0.47327   0.28734   0.00000  Uiso   1.00
Zn214  Zn    0.13379   0.45791   0.21875   0.00000  Uiso   1.00
Zn215  Zn    0.21056   0.53109   0.20657   0.00000  Uiso   1.00
Zn216  Zn    0.12893   0.53773   0.28733   0.00000  Uiso   1.00
C217   C     0.38612   0.49305   0.26002   0.00000  Uiso   1.00
C218   C     0.49873   0.48579   0.05948   0.00000  Uiso   1.00
C219   C     0.56861   0.46666   0.05693   0.00000  Uiso   1.00
C220   C     0.61417   0.50715   0.23997   0.00000  Uiso   1.00
C221   C     0.47067   0.52061   0.42016   0.00000  Uiso   1.00
C222   C     0.66007   0.50975   0.23573   0.00000  Uiso   1.00
C223   C     0.34081   0.49074   0.26409   0.00000  Uiso   1.00
C224   C     0.51386   0.65587   0.23622   0.00000  Uiso   1.00
C225   C     0.48560   0.34511   0.26402   0.00000  Uiso   1.00
C226   C     0.48966   0.38922   0.26016   0.00000  Uiso   1.00
C227   C     0.50998   0.61127   0.24010   0.00000  Uiso   1.00
C228   C     0.41139   0.51573   0.48620   0.00000  Uiso   1.00
C229   C     0.51874   0.48182   0.12942   0.00000  Uiso   1.00
C230   C     0.48242   0.51828   0.37086   0.00000  Uiso   1.00
C231   C     0.58115   0.46999   0.01106   0.00000  Uiso   1.00
C232   C     0.52785   0.47558   0.08118   0.00000  Uiso   1.00
C233   C     0.42851   0.52701   0.44264   0.00000  Uiso   1.00
C234   C     0.43583   0.49787   0.00821   0.00000  Uiso   1.00
C235   C     0.48099   0.49787   0.48916   0.00000  Uiso   1.00
C236   C     0.49809   0.50891   0.44415   0.00000  Uiso   1.00
C237   C     0.50979   0.48732   0.01268   0.00000  Uiso   1.00
C238   C     0.55282   0.48204   0.48915   0.00000  Uiso   1.00
C239   C     0.56835   0.49213   0.44496   0.00000  Uiso   1.00
C240   C     0.54217   0.50768   0.42376   0.00000  Uiso   1.00
H241   H     0.59154   0.45954   0.07392   0.00000  Uiso   1.00
H242   H     0.60171   0.49036   0.42749   0.00000  Uiso   1.00
H243   H     0.61374   0.46532   0.49311   0.00000  Uiso   1.00
H244   H     0.42640   0.45133   0.04448   0.00000  Uiso   1.00
H245   H     0.53991   0.33711   0.21057   0.00000  Uiso   1.00
H246   H     0.45931   0.66466   0.28993   0.00000  Uiso   1.00
H247   H     0.46940   0.49632   0.08016   0.00000  Uiso   1.00
H248   H     0.40727   0.53676   0.42513   0.00000  Uiso   1.00
H249   H     0.37753   0.51709   0.00142   0.00000  Uiso   1.00
H250   H     0.55726   0.51915   0.39119   0.00000  Uiso   1.00
H251   H     0.34917   0.52715   0.20941   0.00000  Uiso   1.00
H252   H     0.65236   0.47351   0.29090   0.00000  Uiso   1.00
O253   O     0.50000   0.50000   0.25000   0.00000  Uiso   1.00
O254   O     0.48784   0.45970   0.15458   0.00000  Uiso   1.00
O255   O     0.46274   0.53724   0.34968   0.00000  Uiso   1.00
O256   O     0.54157   0.51092   0.14606   0.00000  Uiso   1.00
O257   O     0.50785   0.49213   0.34968   0.00000  Uiso   1.00
O258   O     0.41341   0.47729   0.04548   0.00000  Uiso   1.00
O259   O     0.51264   0.41352   0.28214   0.00000  Uiso   1.00
O260   O     0.47965   0.59418   0.27013   0.00000  Uiso   1.00
O261   O     0.40745   0.46625   0.23413   0.00000  Uiso   1.00
O262   O     0.60026   0.52605   0.21360   0.00000  Uiso   1.00
O263   O     0.40405   0.52211   0.28213   0.00000  Uiso   1.00
O264   O     0.58824   0.48559   0.27014   0.00000  Uiso   1.00
O265   O     0.47093   0.40277   0.23413   0.00000  Uiso   1.00
O266   O     0.53678   0.58953   0.21360   0.00000  Uiso   1.00
Zn267  Zn    0.52672   0.47327   0.28734   0.00000  Uiso   1.00
Zn268  Zn    0.46713   0.45791   0.21875   0.00000  Uiso   1.00
Zn269  Zn    0.54389   0.53109   0.20657   0.00000  Uiso   1.00
Zn270  Zn    0.46226   0.53773   0.28733   0.00000  Uiso   1.00
C271   C     0.71946   0.49305   0.26002   0.00000  Uiso   1.00
C272   C     0.83206   0.48579   0.05948   0.00000  Uiso   1.00
C273   C     0.90194   0.46666   0.05693   0.00000  Uiso   1.00
C274   C     0.94750   0.50715   0.23997   0.00000  Uiso   1.00
C275   C     0.80400   0.52061   0.42016   0.00000  Uiso   1.00
C276   C     0.99340   0.50975   0.23573   0.00000  Uiso   1.00
C277   C     0.67414   0.49074   0.26409   0.00000  Uiso   1.00
C278   C     0.84719   0.65587   0.23622   0.00000  Uiso   1.00
C279   C     0.81894   0.34511   0.26402   0.00000  Uiso   1.00
C280   C     0.82299   0.38922   0.26016   0.00000  Uiso   1.00
C281   C     0.84331   0.61127   0.24010   0.00000  Uiso   1.00
C282   C     0.74472   0.51573   0.48620   0.00000  Uiso   1.00
C283   C     0.85207   0.48182   0.12942   0.00000  Uiso   1.00
C284   C     0.81575   0.51828   0.37086   0.00000  Uiso   1.00
C285   C     0.91448   0.46999   0.01106   0.00000  Uiso   1.00
C286   C     0.86118   0.47558   0.08118   0.00000  Uiso   1.00
C287   C     0.76184   0.52701   0.44264   0.00000  Uiso   1.00
C288   C     0.76916   0.49787   0.00821   0.00000  Uiso   1.00
C289   C     0.81432   0.49787   0.48916   0.00000  Uiso   1.00
C290   C     0.83142   0.50891   0.44415   0.00000  Uiso   1.00
C291   C     0.84312   0.48732   0.01268   0.00000  Uiso   1.00
C292   C     0.88615   0.48204   0.48915   0.00000  Uiso   1.00
C293   C     0.90168   0.49213   0.44496   0.00000  Uiso   1.00
C294   C     0.87550   0.50768   0.42376   0.00000  Uiso   1.00
H295   H     0.92487   0.45954   0.07392   0.00000  Uiso   1.00
H296   H     0.93504   0.49036   0.42749   0.00000  Uiso   1.00
H297   H     0.94708   0.46532   0.49311   0.00000  Uiso   1.00
H298   H     0.75973   0.45133   0.04448   0.00000  Uiso   1.00
H299   H     0.87325   0.33711   0.21057   0.00000  Uiso   1.00
H300   H     0.79265   0.66466   0.28993   0.00000  Uiso   1.00
H301   H     0.80273   0.49632   0.08016   0.00000  Uiso   1.00
H302   H     0.74061   0.53676   0.42513   0.00000  Uiso   1.00
H303   H     0.71086   0.51709   0.00142   0.00000  Uiso   1.00
H304   H     0.89060   0.51915   0.39119   0.00000  Uiso   1.00
H305   H     0.68250   0.52715   0.20941   0.00000  Uiso   1.00
H306   H     0.98569   0.47351   0.29090   0.00000  Uiso   1.00
O307   O     0.83333   0.50000   0.25000   0.00000  Uiso   1.00
O308   O     0.82118   0.45970   0.15458   0.00000  Uiso   1.00
O309   O     0.79607   0.53724   0.34968   0.00000  Uiso   1.00
O310   O     0.87491   0.51092   0.14606   0.00000  Uiso   1.00
O311   O     0.84118   0.49213   0.34968   0.00000  Uiso   1.00
O312   O     0.74675   0.47729   0.04548   0.00000  Uiso   1.00
O313   O     0.84597   0.41352   0.28214   0.00000  Uiso   1.00
O314   O     0.81298   0.59418   0.27013   0.00000  Uiso   1.00
O315   O     0.74078   0.46625   0.23413   0.00000  Uiso   1.00
O316   O     0.93360   0.52605   0.21360   0.00000  Uiso   1.00
O317   O     0.73738   0.52211   0.28213   0.00000  Uiso   1.00
O318   O     0.92158   0.48559   0.27014   0.00000  Uiso   1.00
O319   O     0.80426   0.40277   0.23413   0.00000  Uiso   1.00
O320   O     0.87012   0.58953   0.21360   0.00000  Uiso   1.00
Zn321  Zn    0.86005   0.47327   0.28734   0.00000  Uiso   1.00
Zn322  Zn    0.80046   0.45791   0.21875   0.00000  Uiso   1.00
Zn323  Zn    0.87723   0.53109   0.20657   0.00000  Uiso   1.00
Zn324  Zn    0.79560   0.53773   0.28733   0.00000  Uiso   1.00
C325   C     0.05279   0.82639   0.26002   0.00000  Uiso   1.00
C326   C     0.16540   0.81912   0.05948   0.00000  Uiso   1.00
C327   C     0.23528   0.79999   0.05693   0.00000  Uiso   1.00
C328   C     0.28083   0.84048   0.23997   0.00000  Uiso   1.00
C329   C     0.13733   0.85394   0.42016   0.00000  Uiso   1.00
C330   C     0.32673   0.84308   0.23573   0.00000  Uiso   1.00
C331   C     0.00748   0.82407   0.26409   0.00000  Uiso   1.00
C332   C     0.18053   0.98920   0.23622   0.00000  Uiso   1.00
C333   C     0.15227   0.67844   0.26402   0.00000  Uiso   1.00
C334   C     0.15632   0.72255   0.26016   0.00000  Uiso   1.00
C335   C     0.17665   0.94460   0.24010   0.00000  Uiso   1.00
C336   C     0.07806   0.84906   0.48620   0.00000  Uiso   1.00
C337   C     0.18541   0.81515   0.12942   0.00000  Uiso   1.00
C338   C     0.14908   0.85162   0.37086   0.00000  Uiso   1.00
C339   C     0.24781   0.80332   0.01106   0.00000  Uiso   1.00
C340   C     0.19451   0.80891   0.08118   0.00000  Uiso   1.00
C341   C     0.09517   0.86034   0.44264   0.00000  Uiso   1.00
C342   C     0.10249   0.83120   0.00821   0.00000  Uiso   1.00
C343   C     0.14765   0.83120   0.48916   0.00000  Uiso   1.00
C344   C     0.16475   0.84224   0.44415   0.00000  Uiso   1.00
C345   C     0.17645   0.82066   0.01268   0.00000  Uiso   1.00
C346   C     0.21948   0.81538   0.48915   0.00000  Uiso   1.00
C347   C     0.23501   0.82546   0.44496   0.00000  Uiso   1.00
C348   C     0.20883   0.84102   0.42376   0.00000  Uiso   1.00
H349   H     0.25821   0.79287   0.07392   0.00000  Uiso   1.00
H350   H     0.26837   0.82369   0.42749   0.00000  Uiso   1.00
H351   H     0.28041   0.79865   0.49311   0.00000  Uiso   1.00
H352   H     0.09307   0.78466   0.04448   0.00000  Uiso   1.00
H353   H     0.20658   0.67044   0.21057   0.00000  Uiso   1.00
H354   H     0.12598   0.99799   0.28993   0.00000  Uiso   1.00
H355   H     0.13606   0.82965   0.08016   0.00000  Uiso   1.00
H356   H     0.07394   0.87009   0.42513   0.00000  Uiso   1.00
H357   H     0.04419   0.85042   0.00142   0.00000  Uiso   1.00
H358   H     0.22393   0.85248   0.39119   0.00000  Uiso   1.00
H359   H     0.01584   0.86048   0.20941   0.00000  Uiso   1.00
H360   H     0.31903   0.80684   0.29090   0.00000  Uiso   1.00
O361   O     0.16667   0.83333   0.25000   0.00000  Uiso   1.00
O362   O     0.15451   0.79304   0.15458   0.00000  Uiso   1.00
O363   O     0.12940   0.87058   0.34968   0.00000  Uiso   1.00
O364   O     0.20824   0.84425   0.14606   0.00000  Uiso   1.00
O365   O     0.17451   0.82546   0.34968   0.00000  Uiso   1.00
O366   O     0.08008   0.81062   0.04548   0.00000  Uiso   1.00
O367   O     0.17930   0.74686   0.28214   0.00000  Uiso   1.00
O368   O     0.14632   0.92751   0.27013   0.00000  Uiso   1.00
O369   O     0.07412   0.79958   0.23413   0.00000  Uiso   1.00
O370   O     0.26693   0.85939   0.21360   0.00000  Uiso   1.00
O371   O     0.07071   0.85544   0.28213   0.00000  Uiso   1.00
O372   O     0.25491   0.81892   0.27014   0.00000  Uiso   1.00
O373   O     0.13760   0.73610   0.23413   0.00000  Uiso   1.00
O374   O     0.20345   0.92286   0.21360   0.00000  Uiso   1.00
Zn375  Zn    0.19338   0.80661   0.28734   0.00000  Uiso   1.00
Zn376  Zn    0.13379   0.79124   0.21875   0.00000  Uiso   1.00
Zn377  Zn    0.21056   0.86442   0.20657   0.00000  Uiso   1.00
Zn378  Zn    0.12893   0.87106   0.28733   0.00000  Uiso   1.00
C379   C     0.38612   0.82639   0.26002   0.00000  Uiso   1.00
C380   C     0.49873   0.81912   0.05948   0.00000  Uiso   1.00
C381   C     0.56861   0.79999   0.05693   0.00000  Uiso   1.00
C382   C     0.61417   0.84048   0.23997   0.00000  Uiso   1.00
C383   C     0.47067   0.85394   0.42016   0.00000  Uiso   1.00
C384   C     0.66007   0.84308   0.23573   0.00000  Uiso   1.00
C385   C     0.34081   0.82407   0.26409   0.00000  Uiso   1.00
C386   C     0.51386   0.98920   0.23622   0.00000  Uiso   1.00
C387   C     0.48560   0.67844   0.26402   0.00000  Uiso   1.00
C388   C     0.48966   0.72255   0.26016   0.00000  Uiso   1.00
C389   C     0.50998   0.94460   0.24010   0.00000  Uiso   1.00
C390   C     0.41139   0.84906   0.48620   0.00000  Uiso   1.00
C391   C     0.51874   0.81515   0.12942   0.00000  Uiso   1.00
C392   C     0.48242   0.85162   0.37086   0.00000  Uiso   1.00
C393   C     0.58115   0.80332   0.01106   0.00000  Uiso   1.00
C394   C     0.52785   0.80891   0.08118   0.00000  Uiso   1.00
C395   C     0.42851   0.86034   0.44264   0.00000  Uiso   1.00
C396   C     0.43583   0.83120   0.00821   0.00000  Uiso   1.00
C397   C     0.48099   0.83120   0.48916   0.00000  Uiso   1.00
C398   C     0.49809   0.84224   0.44415   0.00000  Uiso   1.00
C399   C     0.50979   0.82066   0.01268   0.00000  Uiso   1.00
C400   C     0.55282   0.81538   0.48915   0.00000  Uiso   1.00
C401   C     0.56835   0.82546   0.44496   0.00000  Uiso   1.00
C402   C     0.54217   0.84102   0.42376   0.00000  Uiso   1.00
H403   H     0.59154   0.79287   0.07392   0.00000  Uiso   1.00
H404   H     0.60171   0.82369   0.42749   0.00000  Uiso   1.00
H405   H     0.61374   0.79865   0.49311   0.00000  Uiso   1.00
H406   H     0.42640   0.78466   0.04448   0.00000  Uiso   1.00
H407   H     0.53991   0.67044   0.21057   0.00000  Uiso   1.00
H408   H     0.45931   0.99799   0.28993   0.00000  Uiso   1.00
H409   H     0.46940   0.82965   0.08016   0.00000  Uiso   1.00
H410   H     0.40727   0.87009   0.42513   0.00000  Uiso   1.00
H411   H     0.37753   0.85042   0.00142   0.00000  Uiso   1.00
H412   H     0.55726   0.85248   0.39119   0.00000  Uiso   1.00
H413   H     0.34917   0.86048   0.20941   0.00000  Uiso   1.00
H414   H     0.65236   0.80684   0.29090   0.00000  Uiso   1.00
O415   O     0.50000   0.83333   0.25000   0.00000  Uiso   1.00
O416   O     0.48784   0.79304   0.15458   0.00000  Uiso   1.00
O417   O     0.46274   0.87058   0.34968   0.00000  Uiso   1.00
O418   O     0.54157   0.84425   0.14606   0.00000  Uiso   1.00
O419   O     0.50785   0.82546   0.34968   0.00000  Uiso   1.00
O420   O     0.41341   0.81062   0.04548   0.00000  Uiso   1.00
O421   O     0.51264   0.74686   0.28214   0.00000  Uiso   1.00
O422   O     0.47965   0.92751   0.27013   0.00000  Uiso   1.00
O423   O     0.40745   0.79958   0.23413   0.00000  Uiso   1.00
O424   O     0.60026   0.85939   0.21360   0.00000  Uiso   1.00
O425   O     0.40405   0.85544   0.28213   0.00000  Uiso   1.00
O426   O     0.58824   0.81892   0.27014   0.00000  Uiso   1.00
O427   O     0.47093   0.73610   0.23413   0.00000  Uiso   1.00
O428   O     0.53678   0.92286   0.21360   0.00000  Uiso   1.00
Zn429  Zn    0.52672   0.80661   0.28734   0.00000  Uiso   1.00
Zn430  Zn    0.46713   0.79124   0.21875   0.00000  Uiso   1.00
Zn431  Zn    0.54389   0.86442   0.20657   0.00000  Uiso   1.00
Zn432  Zn    0.46226   0.87106   0.28733   0.00000  Uiso   1.00
C433   C     0.71946   0.82639   0.26002   0.00000  Uiso   1.00
C434   C     0.83206   0.81912   0.05948   0.00000  Uiso   1.00
C435   C     0.90194   0.79999   0.05693   0.00000  Uiso   1.00
C436   C     0.94750   0.84048   0.23997   0.00000  Uiso   1.00
C437   C     0.80400   0.85394   0.42016   0.00000  Uiso   1.00
C438   C     0.99340   0.84308   0.23573   0.00000  Uiso   1.00
C439   C     0.67414   0.82407   0.26409   0.00000  Uiso   1.00
C440   C     0.84719   0.98920   0.23622   0.00000  Uiso   1.00
C441   C     0.81894   0.67844   0.26402   0.00000  Uiso   1.00
C442   C     0.82299   0.72255   0.26016   0.00000  Uiso   1.00
C443   C     0.84331   0.94460   0.24010   0.00000  Uiso   1.00
C444   C     0.74472   0.84906   0.48620   0.00000  Uiso   1.00
C445   C     0.85207   0.81515   0.12942   0.00000  Uiso   1.00
C446   C     0.81575   0.85162   0.37086   0.00000  Uiso   1.00
C447   C     0.91448   0.80332   0.01106   0.00000  Uiso   1.00
C448   C     0.86118   0.80891   0.08118   0.00000  Uiso   1.00
C449   C     0.76184   0.86034   0.44264   0.00000  Uiso   1.00
C450   C     0.76916   0.83120   0.00821   0.00000  Uiso   1.00
C451   C     0.81432   0.83120   0.48916   0.00000  Uiso   1.00
C452   C     0.83142   0.84224   0.44415   0.00000  Uiso   1.00
C453   C     0.84312   0.82066   0.01268   0.00000  Uiso   1.00
C454   C     0.88615   0.81538   0.48915   0.00000  Uiso   1.00
C455   C     0.90168   0.82546   0.44496   0.00000  Uiso   1.00
C456   C     0.87550   0.84102   0.42376   0.00000  Uiso   1.00
H457   H     0.92487   0.79287   0.07392   0.00000  Uiso   1.00
H458   H     0.93504   0.82369   0.42749   0.00000  Uiso   1.00
H459   H     0.94708   0.79865   0.49311   0.00000  Uiso   1.00
H460   H     0.75973   0.78466   0.04448   0.00000  Uiso   1.00
H461   H     0.87325   0.67044   0.21057   0.00000  Uiso   1.00
H462   H     0.79265   0.99799   0.28993   0.00000  Uiso   1.00
H463   H     0.80273   0.82965   0.08016   0.00000  Uiso   1.00
H464   H     0.74061   0.87009   0.42513   0.00000  Uiso   1.00
H465   H     0.71086   0.85042   0.00142   0.00000  Uiso   1.00
H466   H     0.89060   0.85248   0.39119   0.00000  Uiso   1.00
H467   H     0.68250   0.86048   0.20941   0.00000  Uiso   1.00
H468   H     0.98569   0.80684   0.29090   0.00000  Uiso   1.00
O469   O     0.83333   0.83333   0.25000   0.00000  Uiso   1.00
O470   O     0.82118   0.79304   0.15458   0.00000  Uiso   1.00
O471   O     0.79607   0.87058   0.34968   0.00000  Uiso   1.00
O472   O     0.87491   0.84425   0.14606   0.00000  Uiso   1.00
O473   O     0.84118   0.82546   0.34968   0.00000  Uiso   1.00
O474   O     0.74675   0.81062   0.04548   0.00000  Uiso   1.00
O475   O     0.84597   0.74686   0.28214   0.00000  Uiso   1.00
O476   O     0.81298   0.92751   0.27013   0.00000  Uiso   1.00
O477   O     0.74078   0.79958   0.23413   0.00000  Uiso   1.00
O478   O     0.93360   0.85939   0.21360   0.00000  Uiso   1.00
O479   O     0.73738   0.85544   0.28213   0.00000  Uiso   1.00
O480   O     0.92158   0.81892   0.27014   0.00000  Uiso   1.00
O481   O     0.80426   0.73610   0.23413   0.00000  Uiso   1.00
O482   O     0.87012   0.92286   0.21360   0.00000  Uiso   1.00
Zn483  Zn    0.86005   0.80661   0.28734   0.00000  Uiso   1.00
Zn484  Zn    0.80046   0.79124   0.21875   0.00000  Uiso   1.00
Zn485  Zn    0.87723   0.86442   0.20657   0.00000  Uiso   1.00
Zn486  Zn    0.79560   0.87106   0.28733   0.00000  Uiso   1.00
C487   C     0.05279   0.15972   0.76002   0.00000  Uiso   1.00
C488   C     0.16540   0.15245   0.55948   0.00000  Uiso   1.00
C489   C     0.23528   0.13333   0.55693   0.00000  Uiso   1.00
C490   C     0.28083   0.17382   0.73997   0.00000  Uiso   1.00
C491   C     0.13733   0.18727   0.92016   0.00000  Uiso   1.00
C492   C     0.32673   0.17641   0.73573   0.00000  Uiso   1.00
C493   C     0.00748   0.15740   0.76409   0.00000  Uiso   1.00
C494   C     0.18053   0.32253   0.73622   0.00000  Uiso   1.00
C495   C     0.15227   0.01177   0.76402   0.00000  Uiso   1.00
C496   C     0.15632   0.05589   0.76016   0.00000  Uiso   1.00
C497   C     0.17665   0.27794   0.74010   0.00000  Uiso   1.00
C498   C     0.07806   0.18239   0.98620   0.00000  Uiso   1.00
C499   C     0.18541   0.14849   0.62942   0.00000  Uiso   1.00
C500   C     0.14908   0.18495   0.87086   0.00000  Uiso   1.00
C501   C     0.24781   0.13665   0.51106   0.00000  Uiso   1.00
C502   C     0.19451   0.14224   0.58118   0.00000  Uiso   1.00
C503   C     0.09517   0.19367   0.94264   0.00000  Uiso   1.00
C504   C     0.10249   0.16454   0.50821   0.00000  Uiso   1.00
C505   C     0.14765   0.16454   0.98916   0.00000  Uiso   1.00
C506   C     0.16475   0.17558   0.94415   0.00000  Uiso   1.00
C507   C     0.17645   0.15399   0.51268   0.00000  Uiso   1.00
C508   C     0.21948   0.14871   0.98915   0.00000  Uiso   1.00
C509   C     0.23501   0.15880   0.94496   0.00000  Uiso   1.00
C510   C     0.20883   0.17435   0.92376   0.00000  Uiso   1.00
H511   H     0.25821   0.12620   0.57392   0.00000  Uiso   1.00
H512   H     0.26837   0.15702   0.92749   0.00000  Uiso   1.00
H513   H     0.28041   0.13198   0.99311   0.00000  Uiso   1.00
H514   H     0.09307   0.11800   0.54448   0.00000  Uiso   1.00
H515   H     0.20658   0.00377   0.71057   0.00000  Uiso   1.00
H516   H     0.12598   0.33132   0.78993   0.00000  Uiso   1.00
H517   H     0.13606   0.16298   0.58016   0.00000  Uiso   1.00
H518   H     0.07394   0.20342   0.92513   0.00000  Uiso   1.00
H519   H     0.04419   0.18375   0.50142   0.00000  Uiso   1.00
H520   H     0.22393   0.18582   0.89119   0.00000  Uiso   1.00
H521   H     0.01584   0.19382   0.70941   0.00000  Uiso   1.00
H522   H     0.31903   0.14017   0.79090   0.00000  Uiso   1.00
O523   O     0.16667   0.16667   0.75000   0.00000  Uiso   1.00
O524   O     0.15451   0.12637   0.65458   0.00000  Uiso   1.00
O525   O     0.12940   0.20391   0.84968   0.00000  Uiso   1.00
O526   O     0.20824   0.17759   0.64606   0.00000  Uiso   1.00
O527   O     0.17451   0.15880   0.84968   0.00000  Uiso   1.00
O528   O     0.08008   0.14396   0.54548   0.00000  Uiso   1.00
O529   O     0.17930   0.08019   0.78214   0.00000  Uiso   1.00
O530   O     0.14632   0.26085   0.77013   0.00000  Uiso   1.00
O531   O     0.07412   0.13291   0.73413   0.00000  Uiso   1.00
O532   O     0.26693   0.19272   0.71360   0.00000  Uiso   1.00
O533   O     0.07071   0.18878   0.78213   0.00000  Uiso   1.00
O534   O     0.25491   0.15226   0.77014   0.00000  Uiso   1.00
O535   O     0.13760   0.06944   0.73413   0.00000  Uiso   1.00
O536   O     0.20345   0.25620   0.71360   0.00000  Uiso   1.00
Zn537  Zn    0.19338   0.13994   0.78734   0.00000  Uiso   1.00
Zn538  Zn    0.13379   0.12458   0.71875   0.00000  Uiso   1.00
Zn539  Zn    0.21056   0.19775   0.70657   0.00000  Uiso   1.00
Zn540  Zn    0.12893   0.20439   0.78733   0.00000  Uiso   1.00
C541   C     0.38612   0.15972   0.76002   0.00000  Uiso   1.00
C542   C     0.49873   0.15245   0.55948   0.00000  Uiso   1.00
C543   C     0.56861   0.13333   0.55693   0.00000  Uiso   1.00
C544   C     0.61417   0.17382   0.73997   0.00000  Uiso   1.00
C545   C     0.47067   0.18727   0.92016   0.00000  Uiso   1.00
C546   C     0.66007   0.17641   0.73573   0.00000  Uiso   1.00
C547   C     0.34081   0.15740   0.76409   0.00000  Uiso   1.00
C548   C     0.51386   0.32253   0.73622   0.00000  Uiso   1.00
C549   C     0.48560   0.01177   0.76402   0.00000  Uiso   1.00
C550   C     0.48966   0.05589   0.76016   0.00000  Uiso   1.00
C551   C     0.50998   0.27794   0.74010   0.00000  Uiso   1.00
C552   C     0.41139   0.18239   0.98620   0.00000  Uiso   1.00
C553   C     0.51874   0.14849   0.62942   0.00000  Uiso   1.00
C554   C     0.48242   0.18495   0.87086   0.00000  Uiso   1.00
C555   C     0.58115   0.13665   0.51106   0.00000  Uiso   1.00
C556   C     0.52785   0.14224   0.58118   0.00000  Uiso   1.00
C557   C     0.42851   0.19367   0.94264   0.00000  Uiso   1.00
C558   C     0.43583   0.16454   0.50821   0.00000  Uiso   1.00
C559   C     0.48099   0.16454   0.98916   0.00000  Uiso   1.00
C560   C     0.49809   0.17558   0.94415   0.00000  Uiso   1.00
C561   C     0.50979   0.15399   0.51268   0.00000  Uiso   1.00
C562   C     0.55282   0.14871   0.98915   0.00000  Uiso   1.00
C563   C     0.56835   0.15880   0.94496   0.00000  Uiso   1.00
C564   C     0.54217   0.17435   0.92376   0.00000  Uiso   1.00
H565   H     0.59154   0.12620   0.57392   0.00000  Uiso   1.00
H566   H     0.60171   0.15702   0.92749   0.00000  Uiso   1.00
H567   H     0.61374   0.13198   0.99311   0.00000  Uiso   1.00
H568   H     0.42640   0.11800   0.54448   0.00000  Uiso   1.00
H569   H     0.53991   0.00377   0.71057   0.00000  Uiso   1.00
H570   H     0.45931   0.33132   0.78993   0.00000  Uiso   1.00
H571   H     0.46940   0.16298   0.58016   0.00000  Uiso   1.00
H572   H     0.40727   0.20342   0.92513   0.00000  Uiso   1.00
H573   H     0.37753   0.18375   0.50142   0.00000  Uiso   1.00
H574   H     0.55726   0.18582   0.89119   0.00000  Uiso   1.00
H575   H     0.34917   0.19382   0.70941   0.00000  Uiso   1.00
H576   H     0.65236   0.14017   0.79090   0.00000  Uiso   1.00
O577   O     0.50000   0.16667   0.75000   0.00000  Uiso   1.00
O578   O     0.48784   0.12637   0.65458   0.00000  Uiso   1.00
O579   O     0.46274   0.20391   0.84968   0.00000  Uiso   1.00
O580   O     0.54157   0.17759   0.64606   0.00000  Uiso   1.00
O581   O     0.50785   0.15880   0.84968   0.00000  Uiso   1.00
O582   O     0.41341   0.14396   0.54548   0.00000  Uiso   1.00
O583   O     0.51264   0.08019   0.78214   0.00000  Uiso   1.00
O584   O     0.47965   0.26085   0.77013   0.00000  Uiso   1.00
O585   O     0.40745   0.13291   0.73413   0.00000  Uiso   1.00
O586   O     0.60026   0.19272   0.71360   0.00000  Uiso   1.00
O587   O     0.40405   0.18878   0.78213   0.00000  Uiso   1.00
O588   O     0.58824   0.15226   0.77014   0.00000  Uiso   1.00
O589   O     0.47093   0.06944   0.73413   0.00000  Uiso   1.00
O590   O     0.53678   0.25620   0.71360   0.00000  Uiso   1.00
Zn591  Zn    0.52672   0.13994   0.78734   0.00000  Uiso   1.00
Zn592  Zn    0.46713   0.12458   0.71875   0.00000  Uiso   1.00
Zn593  Zn    0.54389   0.19775   0.70657   0.00000  Uiso   1.00
Zn594  Zn    0.46226   0.20439   0.78733   0.00000  Uiso   1.00
C595   C     0.71946   0.15972   0.76002   0.00000  Uiso   1.00
C596   C     0.83206   0.15245   0.55948   0.00000  Uiso   1.00
C597   C     0.90194   0.13333   0.55693   0.00000  Uiso   1.00
C598   C     0.94750   0.17382   0.73997   0.00000  Uiso   1.00
C599   C     0.80400   0.18727   0.92016   0.00000  Uiso   1.00
C600   C     0.99340   0.17641   0.73573   0.00000  Uiso   1.00
C601   C     0.67414   0.15740   0.76409   0.00000  Uiso   1.00
C602   C     0.84719   0.32253   0.73622   0.00000  Uiso   1.00
C603   C     0.81894   0.01177   0.76402   0.00000  Uiso   1.00
C604   C     0.82299   0.05589   0.76016   0.00000  Uiso   1.00
C605   C     0.84331   0.27794   0.74010   0.00000  Uiso   1.00
C606   C     0.74472   0.18239   0.98620   0.00000  Uiso   1.00
C607   C     0.85207   0.14849   0.62942   0.00000  Uiso   1.00
C608   C     0.81575   0.18495   0.87086   0.00000  Uiso   1.00
C609   C     0.91448   0.13665   0.51106   0.00000  Uiso   1.00
C610   C     0.86118   0.14224   0.58118   0.00000  Uiso   1.00
C611   C     0.76184   0.19367   0.94264   0.00000  Uiso   1.00
C612   C     0.76916   0.16454   0.50821   0.00000  Uiso   1.00
C613   C     0.81432   0.16454   0.98916   0.00000  Uiso   1.00
C614   C     0.83142   0.17558   0.94415   0.00000  Uiso   1.00
C615   C     0.84312   0.15399   0.51268   0.00000  Uiso   1.00
C616   C     0.88615   0.14871   0.98915   0.00000  Uiso   1.00
C617   C     0.90168   0.15880   0.94496   0.00000  Uiso   1.00
C618   C     0.87550   0.17435   0.92376   0.00000  Uiso   1.00
H619   H     0.92487   0.12620   0.57392   0.00000  Uiso   1.00
H620   H     0.93504   0.15702   0.92749   0.00000  Uiso   1.00
H621   H     0.94708   0.13198   0.99311   0.00000  Uiso   1.00
H622   H     0.75973   0.11800   0.54448   0.00000  Uiso   1.00
H623   H     0.87325   0.00377   0.71057   0.00000  Uiso   1.00
H624   H     0.79265   0.33132   0.78993   0.00000  Uiso   1.00
H625   H     0.80273   0.16298   0.58016   0.00000  Uiso   1.00
H626   H     0.74061   0.20342   0.92513   0.00000  Uiso   1.00
H627   H     0.71086   0.18375   0.50142   0.00000  Uiso   1.00
H628   H     0.89060   0.18582   0.89119   0.00000  Uiso   1.00
H629   H     0.68250   0.19382   0.70941   0.00000  Uiso   1.00
H630   H     0.98569   0.14017   0.79090   0.00000  Uiso   1.00
O631   O     0.83333   0.16667   0.75000   0.00000  Uiso   1.00
O632   O     0.82118   0.12637   0.65458   0.00000  Uiso   1.00
O633   O     0.79607   0.20391   0.84968   0.00000  Uiso   1.00
O634   O     0.87491   0.17759   0.64606   0.00000  Uiso   1.00
O635   O     0.84118   0.15880   0.84968   0.00000  Uiso   1.00
O636   O     0.74675   0.14396   0.54548   0.00000  Uiso   1.00
O637   O     0.84597   0.08019   0.78214   0.00000  Uiso   1.00
O638   O     0.81298   0.26085   0.77013   0.00000  Uiso   1.00
O639   O     0.74078   0.13291   0.73413   0.00000  Uiso   1.00
O640   O     0.93360   0.19272   0.71360   0.00000  Uiso   1.00
O641   O     0.73738   0.18878   0.78213   0.00000  Uiso   1.00
O642   O     0.92158   0.15226   0.77014   0.00000  Uiso   1.00
O643   O     0.80426   0.06944   0.73413   0.00000  Uiso   1.00
O644   O     0.87012   0.25620   0.71360   0.00000  Uiso   1.00
Zn645  Zn    0.86005   0.13994   0.78734   0.00000  Uiso   1.00
Zn646  Zn    0.80046   0.12458   0.71875   0.00000  Uiso   1.00
Zn647  Zn    0.87723   0.19775   0.70657   0.00000  Uiso   1.00
Zn648  Zn    0.79560   0.20439   0.78733   0.00000  Uiso   1.00
C649   C     0.05279   0.49305   0.76002   0.00000  Uiso   1.00
C650   C     0.16540   0.48579   0.55948   0.00000  Uiso   1.00
C651   C     0.23528   0.46666   0.55693   0.00000  Uiso   1.00
C652   C     0.28083   0.50715   0.73997   0.00000  Uiso   1.00
C653   C     0.13733   0.52061   0.92016   0.00000  Uiso   1.00
C654   C     0.32673   0.50975   0.73573   0.00000  Uiso   1.00
C655   C     0.00748   0.49074   0.76409   0.00000  Uiso   1.00
C656   C     0.18053   0.65587   0.73622   0.00000  Uiso   1.00
C657   C     0.15227   0.34511   0.76402   0.00000  Uiso   1.00
C658   C     0.15632   0.38922   0.76016   0.00000  Uiso   1.00
C659   C     0.17665   0.61127   0.74010   0.00000  Uiso   1.00
C660   C     0.07806   0.51573   0.98620   0.00000  Uiso   1.00
C661   C     0.18541   0.48182   0.62942   0.00000  Uiso   1.00
C662   C     0.14908   0.51828   0.87086   0.00000  Uiso   1.00
C663   C     0.24781   0.46999   0.51106   0.00000  Uiso   1.00
C664   C     0.19451   0.47558   0.58118   0.00000  Uiso   1.00
C665   C     0.09517   0.52701   0.94264   0.00000  Uiso   1.00
C666   C     0.10249   0.49787   0.50821   0.00000  Uiso   1.00
C667   C     0.14765   0.49787   0.98916   0.00000  Uiso   1.00
C668   C     0.16475   0.50891   0.94415   0.00000  Uiso   1.00
C669   C     0.17645   0.48732   0.51268   0.00000  Uiso   1.00
C670   C     0.21948   0.48204   0.98915   0.00000  Uiso   1.00
C671   C     0.23501   0.49213   0.94496   0.00000  Uiso   1.00
C672   C     0.20883   0.50768   0.92376   0.00000  Uiso   1.00
H673   H     0.25821   0.45954   0.57392   0.00000  Uiso   1.00
H674   H     0.26837   0.49036   0.92749   0.00000  Uiso   1.00
H675   H     0.28041   0.46532   0.99311   0.00000  Uiso   1.00
H676   H     0.09307   0.45133   0.54448   0.00000  Uiso   1.00
H677   H     0.20658   0.33711   0.71057   0.00000  Uiso   1.00
H678   H     0.12598   0.66466   0.78993   0.00000  Uiso   1.00
H679   H     0.13606   0.49632   0.58016   0.00000  Uiso   1.00
H680   H     0.07394   0.53676   0.92513   0.00000  Uiso   1.00
H681   H     0.04419   0.51709   0.50142   0.00000  Uiso   1.00
H682   H     0.22393   0.51915   0.89119   0.00000  Uiso   1.00
H683   H     0.01584   0.52715   0.70941   0.00000  Uiso   1.00
H684   H     0.31903   0.47351   0.79090   0.00000  Uiso   1.00
O685   O     0.16667   0.50000   0.75000   0.00000  Uiso   1.00
O686   O     0.15451   0.45970   0.65458   0.00000  Uiso   1.00
O687   O     0.12940   0.53724   0.84968   0.00000  Uiso   1.00
O688   O     0.20824   0.51092   0.64606   0.00000  Uiso   1.00
O689   O     0.17451   0.49213   0.84968   0.00000  Uiso   1.00
O690   O     0.08008   0.47729   0.54548   0.00000  Uiso   1.00
O691   O     0.17930   0.41352   0.78214   0.00000  Uiso   1.00
O692   O     0.14632   0.59418   0.77013   0.00000  Uiso   1.00
O693   O     0.07412   0.46625   0.73413   0.00000  Uiso   1.00
O694   O     0.26693   0.52605   0.71360   0.00000  Uiso   1.00
O695   O     0.07071   0.52211   0.78213   0.00000  Uiso   1.00
O696   O     0.25491   0.48559   0.77014   0.00000  Uiso   1.00
O697   O     0.13760   0.40277   0.73413   0.00000  Uiso   1.00
O698   O     0.20345   0.58953   0.71360   0.00000  Uiso   1.00
Zn699  Zn    0.19338   0.47327   0.78734   0.00000  Uiso   1.00
Zn700  Zn    0.13379   0.45791   0.71875   0.00000  Uiso   1.00
Zn701  Zn    0.21056   0.53109   0.70657   0.00000  Uiso   1.00
Zn702  Zn    0.12893   0.53773   0.78733   0.00000  Uiso   1.00
C703   C     0.38612   0.49305   0.76002   0.00000  Uiso   1.00
C704   C     0.49873   0.48579   0.55948   0.00000  Uiso   1.00
C705   C     0.56861   0.46666   0.55693   0.00000  Uiso   1.00
C706   C     0.61417   0.50715   0.73997   0.00000  Uiso   1.00
C707   C     0.47067   0.52061   0.92016   0.00000  Uiso   1.00
C708   C     0.66007   0.50975   0.73573   0.00000  Uiso   1.00
C709   C     0.34081   0.49074   0.76409   0.00000  Uiso   1.00
C710   C     0.51386   0.65587   0.73622   0.00000  Uiso   1.00
C711   C     0.48560   0.34511   0.76402   0.00000  Uiso   1.00
C712   C     0.48966   0.38922   0.76016   0.00000  Uiso   1.00
C713   C     0.50998   0.61127   0.74010   0.00000  Uiso   1.00
C714   C     0.41139   0.51573   0.98620   0.00000  Uiso   1.00
C715   C     0.51874   0.48182   0.62942   0.00000  Uiso   1.00
C716   C     0.48242   0.51828   0.87086   0.00000  Uiso   1.00
C717   C     0.58115   0.46999   0.51106   0.00000  Uiso   1.00
C718   C     0.52785   0.47558   0.58118   0.00000  Uiso   1.00
C719   C     0.42851   0.52701   0.94264   0.00000  Uiso   1.00
C720   C     0.43583   0.49787   0.50821   0.00000  Uiso   1.00
C721   C     0.48099   0.49787   0.98916   0.00000  Uiso   1.00
C722   C     0.49809   0.50891   0.94415   0.00000  Uiso   1.00
C723   C     0.50979   0.48732   0.51268   0.00000  Uiso   1.00
C724   C     0.55282   0.48204   0.98915   0.00000  Uiso   1.00
C725   C     0.56835   0.49213   0.94496   0.00000  Uiso   1.00
C726   C     0.54217   0.50768   0.92376   0.00000  Uiso   1.00
H727   H     0.59154   0.45954   0.57392   0.00000  Uiso   1.00
H728   H     0.60171   0.49036   0.92749   0.00000  Uiso   1.00
H729   H     0.61374   0.46532   0.99311   0.00000  Uiso   1.00
H730   H     0.42640   0.45133   0.54448   0.00000  Uiso   1.00
H731   H     0.53991   0.33711   0.71057   0.00000  Uiso   1.00
H732   H     0.45931   0.66466   0.78993   0.00000  Uiso   1.00
H733   H     0.46940   0.49632   0.58016   0.00000  Uiso   1.00
H734   H     0.40727   0.53676   0.92513   0.00000  Uiso   1.00
H735   H     0.37753   0.51709   0.50142   0.00000  Uiso   1.00
H736   H     0.55726   0.51915   0.89119   0.00000  Uiso   1.00
H737   H     0.34917   0.52715   0.70941   0.00000  Uiso   1.00
H738   H     0.65236   0.47351   0.79090   0.00000  Uiso   1.00
O739   O     0.50000   0.50000   0.75000   0.00000  Uiso   1.00
O740   O     0.48784   0.45970   0.65458   0.00000  Uiso   1.00
O741   O     0.46274   0.53724   0.84968   0.00000  Uiso   1.00
O742   O     0.54157   0.51092   0.64606   0.00000  Uiso   1.00
O743   O     0.50785   0.49213   0.84968   0.00000  Uiso   1.00
O744   O     0.41341   0.47729   0.54548   0.00000  Uiso   1.00
O745   O     0.51264   0.41352   0.78214   0.00000  Uiso   1.00
O746   O     0.47965   0.59418   0.77013   0.00000  Uiso   1.00
O747   O     0.40745   0.46625   0.73413   0.00000  Uiso   1.00
O748   O     0.60026   0.52605   0.71360   0.00000  Uiso   1.00
O749   O     0.40405   0.52211   0.78213   0.00000  Uiso   1.00
O750   O     0.58824   0.48559   0.77014   0.00000  Uiso   1.00
O751   O     0.47093   0.40277   0.73413   0.00000  Uiso   1.00
O752   O     0.53678   0.58953   0.71360   0.00000  Uiso   1.00
Zn753  Zn    0.52672   0.47327   0.78734   0.00000  Uiso   1.00
Zn754  Zn    0.46713   0.45791   0.71875   0.00000  Uiso   1.00
Zn755  Zn    0.54389   0.53109   0.70657   0.00000  Uiso   1.00
Zn756  Zn    0.46226   0.53773   0.78733   0.00000  Uiso   1.00
C757   C     0.71946   0.49305   0.76002   0.00000  Uiso   1.00
C758   C     0.83206   0.48579   0.55948   0.00000  Uiso   1.00
C759   C     0.90194   0.46666   0.55693   0.00000  Uiso   1.00
C760   C     0.94750   0.50715   0.73997   0.00000  Uiso   1.00
C761   C     0.80400   0.52061   0.92016   0.00000  Uiso   1.00
C762   C     0.99340   0.50975   0.73573   0.00000  Uiso   1.00
C763   C     0.67414   0.49074   0.76409   0.00000  Uiso   1.00
C764   C     0.84719   0.65587   0.73622   0.00000  Uiso   1.00
C765   C     0.81894   0.34511   0.76402   0.00000  Uiso   1.00
C766   C     0.82299   0.38922   0.76016   0.00000  Uiso   1.00
C767   C     0.84331   0.61127   0.74010   0.00000  Uiso   1.00
C768   C     0.74472   0.51573   0.98620   0.00000  Uiso   1.00
C769   C     0.85207   0.48182   0.62942   0.00000  Uiso   1.00
C770   C     0.81575   0.51828   0.87086   0.00000  Uiso   1.00
C771   C     0.91448   0.46999   0.51106   0.00000  Uiso   1.00
C772   C     0.86118   0.47558   0.58118   0.00000  Uiso   1.00
C773   C     0.76184   0.52701   0.94264   0.00000  Uiso   1.00
C774   C     0.76916   0.49787   0.50821   0.00000  Uiso   1.00
C775   C     0.81432   0.49787   0.98916   0.00000  Uiso   1.00
C776   C     0.83142   0.50891   0.94415   0.00000  Uiso   1.00
C777   C     0.84312   0.48732   0.51268   0.00000  Uiso   1.00
C778   C     0.88615   0.48204   0.98915   0.00000  Uiso   1.00
C779   C     0.90168   0.49213   0.94496   0.00000  Uiso   1.00
C780   C     0.87550   0.50768   0.92376   0.00000  Uiso   1.00
H781   H     0.92487   0.45954   0.57392   0.00000  Uiso   1.00
H782   H     0.93504   0.49036   0.92749   0.00000  Uiso   1.00
H783   H     0.94708   0.46532   0.99311   0.00000  Uiso   1.00
H784   H     0.75973   0.45133   0.54448   0.00000  Uiso   1.00
H785   H     0.87325   0.33711   0.71057   0.00000  Uiso   1.00
H786   H     0.79265   0.66466   0.78993   0.00000  Uiso   1.00
H787   H     0.80273   0.49632   0.58016   0.00000  Uiso   1.00
H788   H     0.74061   0.53676   0.92513   0.00000  Uiso   1.00
H789   H     0.71086   0.51709   0.50142   0.00000  Uiso   1.00
H790   H     0.89060   0.51915   0.89119   0.00000  Uiso   1.00
H791   H     0.68250   0.52715   0.70941   0.00000  Uiso   1.00
H792   H     0.98569   0.47351   0.79090   0.00000  Uiso   1.00
O793   O     0.83333   0.50000   0.75000   0.00000  Uiso   1.00
O794   O     0.82118   0.45970   0.65458   0.00000  Uiso   1.00
O795   O     0.79607   0.53724   0.84968   0.00000  Uiso   1.00
O796   O     0.87491   0.51092   0.64606   0.00000  Uiso   1.00
O797   O     0.84118   0.49213   0.84968   0.00000  Uiso   1.00
O798   O     0.74675   0.47729   0.54548   0.00000  Uiso   1.00
O799   O     0.84597   0.41352   0.78214   0.00000  Uiso   1.00
O800   O     0.81298   0.59418   0.77013   0.00000  Uiso   1.00
O801   O     0.74078   0.46625   0.73413   0.00000  Uiso   1.00
O802   O     0.93360   0.52605   0.71360   0.00000  Uiso   1.00
O803   O     0.73738   0.52211   0.78213   0.00000  Uiso   1.00
O804   O     0.92158   0.48559   0.77014   0.00000  Uiso   1.00
O805   O     0.80426   0.40277   0.73413   0.00000  Uiso   1.00
O806   O     0.87012   0.58953   0.71360   0.00000  Uiso   1.00
Zn807  Zn    0.86005   0.47327   0.78734   0.00000  Uiso   1.00
Zn808  Zn    0.80046   0.45791   0.71875   0.00000  Uiso   1.00
Zn809  Zn    0.87723   0.53109   0.70657   0.00000  Uiso   1.00
Zn810  Zn    0.79560   0.53773   0.78733   0.00000  Uiso   1.00
C811   C     0.05279   0.82639   0.76002   0.00000  Uiso   1.00
C812   C     0.16540   0.81912   0.55948   0.00000  Uiso   1.00
C813   C     0.23528   0.79999   0.55693   0.00000  Uiso   1.00
C814   C     0.28083   0.84048   0.73997   0.00000  Uiso   1.00
C815   C     0.13733   0.85394   0.92016   0.00000  Uiso   1.00
C816   C     0.32673   0.84308   0.73573   0.00000  Uiso   1.00
C817   C     0.00748   0.82407   0.76409   0.00000  Uiso   1.00
C818   C     0.18053   0.98920   0.73622   0.00000  Uiso   1.00
C819   C     0.15227   0.67844   0.76402   0.00000  Uiso   1.00
C820   C     0.15632   0.72255   0.76016   0.00000  Uiso   1.00
C821   C     0.17665   0.94460   0.74010   0.00000  Uiso   1.00
C822   C     0.07806   0.84906   0.98620   0.00000  Uiso   1.00
C823   C     0.18541   0.81515   0.62942   0.00000  Uiso   1.00
C824   C     0.14908   0.85162   0.87086   0.00000  Uiso   1.00
C825   C     0.24781   0.80332   0.51106   0.00000  Uiso   1.00
C826   C     0.19451   0.80891   0.58118   0.00000  Uiso   1.00
C827   C     0.09517   0.86034   0.94264   0.00000  Uiso   1.00
C828   C     0.10249   0.83120   0.50821   0.00000  Uiso   1.00
C829   C     0.14765   0.83120   0.98916   0.00000  Uiso   1.00
C830   C     0.16475   0.84224   0.94415   0.00000  Uiso   1.00
C831   C     0.17645   0.82066   0.51268   0.00000  Uiso   1.00
C832   C     0.21948   0.81538   0.98915   0.00000  Uiso   1.00
C833   C     0.23501   0.82546   0.94496   0.00000  Uiso   1.00
C834   C     0.20883   0.84102   0.92376   0.00000  Uiso   1.00
H835   H     0.25821   0.79287   0.57392   0.00000  Uiso   1.00
H836   H     0.26837   0.82369   0.92749   0.00000  Uiso   1.00
H837   H     0.28041   0.79865   0.99311   0.00000  Uiso   1.00
H838   H     0.09307   0.78466   0.54448   0.00000  Uiso   1.00
H839   H     0.20658   0.67044   0.71057   0.00000  Uiso   1.00
H840   H     0.12598   0.99799   0.78993   0.00000  Uiso   1.00
H841   H     0.13606   0.82965   0.58016   0.00000  Uiso   1.00
H842   H     0.07394   0.87009   0.92513   0.00000  Uiso   1.00
H843   H     0.04419   0.85042   0.50142   0.00000  Uiso   1.00
H844   H     0.22393   0.85248   0.89119   0.00000  Uiso   1.00
H845   H     0.01584   0.86048   0.70941   0.00000  Uiso   1.00
H846   H     0.31903   0.80684   0.79090   0.00000  Uiso   1.00
O847   O     0.16667   0.83333   0.75000   0.00000  Uiso   1.00
O848   O     0.15451   0.79304   0.65458   0.00000  Uiso   1.00
O849   O     0.12940   0.87058   0.84968   0.00000  Uiso   1.00
O850   O     0.20824   0.84425   0.64606   0.00000  Uiso   1.00
O851   O     0.17451   0.82546   0.84968   0.00000  Uiso   1.00
O852   O     0.08008   0.81062   0.54548   0.00000  Uiso   1.00
O853   O     0.17930   0.74686   0.78214   0.00000  Uiso   1.00
O854   O     0.14632   0.92751   0.77013   0.00000  Uiso   1.00
O855   O     0.07412   0.79958   0.73413   0.00000  Uiso   1.00
O856   O     0.26693   0.85939   0.71360   0.00000  Uiso   1.00
O857   O     0.07071   0.85544   0.78213   0.00000  Uiso   1.00
O858   O     0.25491   0.81892   0.77014   0.00000  Uiso   1.00
O859   O     0.13760   0.73610   0.73413   0.00000  Uiso   1.00
O860   O     0.20345   0.92286   0.71360   0.00000  Uiso   1.00
Zn861  Zn    0.19338   0.80661   0.78734   0.00000  Uiso   1.00
Zn862  Zn    0.13379   0.79124   0.71875   0.00000  Uiso   1.00
Zn863  Zn    0.21056   0.86442   0.70657   0.00000  Uiso   1.00
Zn864  Zn    0.12893   0.87106   0.78733   0.00000  Uiso   1.00
C865   C     0.38612   0.82639   0.76002   0.00000  Uiso   1.00
C866   C     0.49873   0.81912   0.55948   0.00000  Uiso   1.00
C867   C     0.56861   0.79999   0.55693   0.00000  Uiso   1.00
C868   C     0.61417   0.84048   0.73997   0.00000  Uiso   1.00
C869   C     0.47067   0.85394   0.92016   0.00000  Uiso   1.00
C870   C     0.66007   0.84308   0.73573   0.00000  Uiso   1.00
C871   C     0.34081   0.82407   0.76409   0.00000  Uiso   1.00
C872   C     0.51386   0.98920   0.73622   0.00000  Uiso   1.00
C873   C     0.48560   0.67844   0.76402   0.00000  Uiso   1.00
C874   C     0.48966   0.72255   0.76016   0.00000  Uiso   1.00
C875   C     0.50998   0.94460   0.74010   0.00000  Uiso   1.00
C876   C     0.41139   0.84906   0.98620   0.00000  Uiso   1.00
C877   C     0.51874   0.81515   0.62942   0.00000  Uiso   1.00
C878   C     0.48242   0.85162   0.87086   0.00000  Uiso   1.00
C879   C     0.58115   0.80332   0.51106   0.00000  Uiso   1.00
C880   C     0.52785   0.80891   0.58118   0.00000  Uiso   1.00
C881   C     0.42851   0.86034   0.94264   0.00000  Uiso   1.00
C882   C     0.43583   0.83120   0.50821   0.00000  Uiso   1.00
C883   C     0.48099   0.83120   0.98916   0.00000  Uiso   1.00
C884   C     0.49809   0.84224   0.94415   0.00000  Uiso   1.00
C885   C     0.50979   0.82066   0.51268   0.00000  Uiso   1.00
C886   C     0.55282   0.81538   0.98915   0.00000  Uiso   1.00
C887   C     0.56835   0.82546   0.94496   0.00000  Uiso   1.00
C888   C     0.54217   0.84102   0.92376   0.00000  Uiso   1.00
H889   H     0.59154   0.79287   0.57392   0.00000  Uiso   1.00
H890   H     0.60171   0.82369   0.92749   0.00000  Uiso   1.00
H891   H     0.61374   0.79865   0.99311   0.00000  Uiso   1.00
H892   H     0.42640   0.78466   0.54448   0.00000  Uiso   1.00
H893   H     0.53991   0.67044   0.71057   0.00000  Uiso   1.00
H894   H     0.45931   0.99799   0.78993   0.00000  Uiso   1.00
H895   H     0.46940   0.82965   0.58016   0.00000  Uiso   1.00
H896   H     0.40727   0.87009   0.92513   0.00000  Uiso   1.00
H897   H     0.37753   0.85042   0.50142   0.00000  Uiso   1.00
H898   H     0.55726   0.85248   0.89119   0.00000  Uiso   1.00
H899   H     0.34917   0.86048   0.70941   0.00000  Uiso   1.00
H900   H     0.65236   0.80684   0.79090   0.00000  Uiso   1.00
O901   O     0.50000   0.83333   0.75000   0.00000  Uiso   1.00
O902   O     0.48784   0.79304   0.65458   0.00000  Uiso   1.00
O903   O     0.46274   0.87058   0.84968   0.00000  Uiso   1.00
O904   O     0.54157   0.84425   0.64606   0.00000  Uiso   1.00
O905   O     0.50785   0.82546   0.84968   0.00000  Uiso   1.00
O906   O     0.41341   0.81062   0.54548   0.00000  Uiso   1.00
O907   O     0.51264   0.74686   0.78214   0.00000  Uiso   1.00
O908   O     0.47965   0.92751   0.77013   0.00000  Uiso   1.00
O909   O     0.40745   0.79958   0.73413   0.00000  Uiso   1.00
O910   O     0.60026   0.85939   0.71360   0.00000  Uiso   1.00
O911   O     0.40405   0.85544   0.78213   0.00000  Uiso   1.00
O912   O     0.58824   0.81892   0.77014   0.00000  Uiso   1.00
O913   O     0.47093   0.73610   0.73413   0.00000  Uiso   1.00
O914   O     0.53678   0.92286   0.71360   0.00000  Uiso   1.00
Zn915  Zn    0.52672   0.80661   0.78734   0.00000  Uiso   1.00
Zn916  Zn    0.46713   0.79124   0.71875   0.00000  Uiso   1.00
Zn917  Zn    0.54389   0.86442   0.70657   0.00000  Uiso   1.00
Zn918  Zn    0.46226   0.87106   0.78733   0.00000  Uiso   1.00
C919   C     0.71946   0.82639   0.76002   0.00000  Uiso   1.00
C920   C     0.83206   0.81912   0.55948   0.00000  Uiso   1.00
C921   C     0.90194   0.79999   0.55693   0.00000  Uiso   1.00
C922   C     0.94750   0.84048   0.73997   0.00000  Uiso   1.00
C923   C     0.80400   0.85394   0.92016   0.00000  Uiso   1.00
C924   C     0.99340   0.84308   0.73573   0.00000  Uiso   1.00
C925   C     0.67414   0.82407   0.76409   0.00000  Uiso   1.00
C926   C     0.84719   0.98920   0.73622   0.00000  Uiso   1.00
C927   C     0.81894   0.67844   0.76402   0.00000  Uiso   1.00
C928   C     0.82299   0.72255   0.76016   0.00000  Uiso   1.00
C929   C     0.84331   0.94460   0.74010   0.00000  Uiso   1.00
C930   C     0.74472   0.84906   0.98620   0.00000  Uiso   1.00
C931   C     0.85207   0.81515   0.62942   0.00000  Uiso   1.00
C932   C     0.81575   0.85162   0.87086   0.00000  Uiso   1.00
C933   C     0.91448   0.80332   0.51106   0.00000  Uiso   1.00
C934   C     0.86118   0.80891   0.58118   0.00000  Uiso   1.00
C935   C     0.76184   0.86034   0.94264   0.00000  Uiso   1.00
C936   C     0.76916   0.83120   0.50821   0.00000  Uiso   1.00
C937   C     0.81432   0.83120   0.98916   0.00000  Uiso   1.00
C938   C     0.83142   0.84224   0.94415   0.00000  Uiso   1.00
C939   C     0.84312   0.82066   0.51268   0.00000  Uiso   1.00
C940   C     0.88615   0.81538   0.98915   0.00000  Uiso   1.00
C941   C     0.90168   0.82546   0.94496   0.00000  Uiso   1.00
C942   C     0.87550   0.84102   0.92376   0.00000  Uiso   1.00
H943   H     0.92487   0.79287   0.57392   0.00000  Uiso   1.00
H944   H     0.93504   0.82369   0.92749   0.00000  Uiso   1.00
H945   H     0.94708   0.79865   0.99311   0.00000  Uiso   1.00
H946   H     0.75973   0.78466   0.54448   0.00000  Uiso   1.00
H947   H     0.87325   0.67044   0.71057   0.00000  Uiso   1.00
H948   H     0.79265   0.99799   0.78993   0.00000  Uiso   1.00
H949   H     0.80273   0.82965   0.58016   0.00000  Uiso   1.00
H950   H     0.74061   0.87009   0.92513   0.00000  Uiso   1.00
H951   H     0.71086   0.85042   0.50142   0.00000  Uiso   1.00
H952   H     0.89060   0.85248   0.89119   0.00000  Uiso   1.00
H953   H     0.68250   0.86048   0.70941   0.00000  Uiso   1.00
H954   H     0.98569   0.80684   0.79090   0.00000  Uiso   1.00
O955   O     0.83333   0.83333   0.75000   0.00000  Uiso   1.00
O956   O     0.82118   0.79304   0.65458   0.00000  Uiso   1.00
O957   O     0.79607   0.87058   0.84968   0.00000  Uiso   1.00
O958   O     0.87491   0.84425   0.64606   0.00000  Uiso   1.00
O959   O     0.84118   0.82546   0.84968   0.00000  Uiso   1.00
O960   O     0.74675   0.81062   0.54548   0.00000  Uiso   1.00
O961   O     0.84597   0.74686   0.78214   0.00000  Uiso   1.00
O962   O     0.81298   0.92751   0.77013   0.00000  Uiso   1.00
O963   O     0.74078   0.79958   0.73413   0.00000  Uiso   1.00
O964   O     0.93360   0.85939   0.71360   0.00000  Uiso   1.00
O965   O     0.73738   0.85544   0.78213   0.00000  Uiso   1.00
O966   O     0.92158   0.81892   0.77014   0.00000  Uiso   1.00
O967   O     0.80426   0.73610   0.73413   0.00000  Uiso   1.00
O968   O     0.87012   0.92286   0.71360   0.00000  Uiso   1.00
Zn969  Zn    0.86005   0.80661   0.78734   0.00000  Uiso   1.00
Zn970  Zn    0.80046   0.79124   0.71875   0.00000  Uiso   1.00
Zn971  Zn    0.87723   0.86442   0.70657   0.00000  Uiso   1.00
Zn972  Zn    0.79560   0.87106   0.78733   0.00000  Uiso   1.00
loop_
_geom_bond_atom_site_label_1
_geom_bond_atom_site_label_2
_geom_bond_distance
_geom_bond_site_symmetry_2
_ccdc_geom_bond_type
C1     O45     1.274   .     A
C1     O47     1.273   .     A
C1     C7      1.438   .     S
C2     C16     1.393   .     A
C2     C21     1.408   .     A
C2     H31     1.080   .     S
C3     C15     1.387   .     A
C3     H25     1.084   .     S
C3     C16     1.396   .     A
C4     O46     1.280   .     A
C4     C6      1.455   .     S
C4     O48     1.276   .     A
C5     C14     1.475   .     S
C5     C17     1.400   .     A
C5     C20     1.417   .     A
C6     C61     1.335   .     S
C6     H89     1.088   .     S
C7     C114    1.335   1_455 S
C7     H144    1.086   1_455 S
C8     C11     1.451   .     S
C8     C171    1.332   .     S
C8     H191    1.088   .     S
C9     C10     1.435   .     S
C9     C332    1.332   1_545 S
C9     H354    1.086   1_545 S
C10    O43     1.279   .     A
C10    O49     1.279   .     A
C11    O44     1.271   .     A
C11    O50     1.271   .     A
C12    C17     1.387   .     A
C12    C504    1.394   .     S
C12    H519    1.083   .     S
C13    O38     1.277   .     A
C13    C16     1.449   .     S
C13    O40     1.269   .     A
C14    O41     1.281   .     A
C14    O39     1.284   .     A
C15    C508    1.401   1_554 S
C15    H513    1.084   1_554 S
C17    H32     1.083   .     S
C18    O42     1.377   .     S
C18    C498    1.394   1_554 S
C18    C505    1.431   1_554 S
C19    C20     1.425   .     A
C19    C504    1.431   .     S
C19    C507    1.429   .     S
C20    C24     1.411   .     A
C21    C505    1.429   1_554 S
C21    C508    1.423   1_554 S
C22    C23     1.389   .     A
C22    C501    1.401   .     S
C22    C507    1.423   .     S
C23    C24     1.382   .     A
C23    H26     1.084   .     S
C24    H34     1.081   .     S
H27    C501    1.084   .     S
H28    O42     0.992   .     S
H29    C332    1.088   1_545 S
H30    C171    1.086   .     S
H33    C498    1.083   1_554 S
H35    C114    1.088   1_455 S
H36    C61     1.086   .     S
O37    Zn53    1.931   .     S
O37    Zn54    1.935   .     S
O37    Zn51    1.956   .     S
O37    Zn52    1.950   .     S
O38    Zn52    1.934   .     S
O39    Zn54    1.945   .     S
O40    Zn53    1.944   .     S
O41    Zn51    1.934   .     S
O43    Zn51    1.929   .     S
O44    Zn54    1.928   .     S
O45    Zn52    1.925   .     S
O46    Zn53    1.936   .     S
O47    Zn54    1.933   .     S
O48    Zn51    1.923   .     S
O49    Zn52    1.932   .     S
O50    Zn53    1.930   .     S
C55    O99     1.274   .     A
C55    O101    1.273   .     A
C55    C61     1.438   .     S
C56    C70     1.393   .     A
C56    C75     1.408   .     A
C56    H85     1.080   .     S
C57    C69     1.387   .     A
C57    H79     1.084   .     S
C57    C70     1.396   .     A
C58    O100    1.280   .     A
C58    C60     1.455   .     S
C58    O102    1.276   .     A
C59    C68     1.475   .     S
C59    C71     1.400   .     A
C59    C74     1.417   .     A
C60    C115    1.335   .     S
C60    H143    1.088   .     S
C62    C65     1.451   .     S
C62    C225    1.332   .     S
C62    H245    1.088   .     S
C63    C64     1.435   .     S
C63    C386    1.332   1_545 S
C63    H408    1.086   1_545 S
C64    O97     1.279   .     A
C64    O103    1.279   .     A
C65    O98     1.271   .     A
C65    O104    1.271   .     A
C66    C71     1.387   .     A
C66    C558    1.394   .     S
C66    H573    1.083   .     S
C67    O92     1.277   .     A
C67    C70     1.449   .     S
C67    O94     1.269   .     A
C68    O95     1.281   .     A
C68    O93     1.284   .     A
C69    C562    1.401   1_554 S
C69    H567    1.084   1_554 S
C71    H86     1.083   .     S
C72    O96     1.377   .     S
C72    C552    1.394   1_554 S
C72    C559    1.431   1_554 S
C73    C74     1.425   .     A
C73    C558    1.431   .     S
C73    C561    1.429   .     S
C74    C78     1.411   .     A
C75    C559    1.429   1_554 S
C75    C562    1.423   1_554 S
C76    C77     1.389   .     A
C76    C555    1.401   .     S
C76    C561    1.423   .     S
C77    C78     1.382   .     A
C77    H80     1.084   .     S
C78    H88     1.081   .     S
H81    C555    1.084   .     S
H82    O96     0.992   .     S
H83    C386    1.088   1_545 S
H84    C225    1.086   .     S
H87    C552    1.083   1_554 S
H90    C115    1.086   .     S
O91    Zn107   1.931   .     S
O91    Zn108   1.935   .     S
O91    Zn105   1.956   .     S
O91    Zn106   1.950   .     S
O92    Zn106   1.934   .     S
O93    Zn108   1.945   .     S
O94    Zn107   1.944   .     S
O95    Zn105   1.934   .     S
O97    Zn105   1.929   .     S
O98    Zn108   1.928   .     S
O99    Zn106   1.925   .     S
O100   Zn107   1.936   .     S
O101   Zn108   1.933   .     S
O102   Zn105   1.923   .     S
O103   Zn106   1.932   .     S
O104   Zn107   1.930   .     S
C109   O153    1.274   .     A
C109   O155    1.273   .     A
C109   C115    1.438   .     S
C110   C124    1.393   .     A
C110   C129    1.408   .     A
C110   H139    1.080   .     S
C111   C123    1.387   .     A
C111   H133    1.084   .     S
C111   C124    1.396   .     A
C112   O154    1.280   .     A
C112   C114    1.455   .     S
C112   O156    1.276   .     A
C113   C122    1.475   .     S
C113   C125    1.400   .     A
C113   C128    1.417   .     A
C114   C7      1.335   1_655 S
C114   H35     1.088   1_655 S
C116   C119    1.451   .     S
C116   C279    1.332   .     S
C116   H299    1.088   .     S
C117   C118    1.435   .     S
C117   C440    1.332   1_545 S
C117   H462    1.086   1_545 S
C118   O151    1.279   .     A
C118   O157    1.279   .     A
C119   O152    1.271   .     A
C119   O158    1.271   .     A
C120   C125    1.387   .     A
C120   C612    1.394   .     S
C120   H627    1.083   .     S
C121   O146    1.277   .     A
C121   C124    1.449   .     S
C121   O148    1.269   .     A
C122   O149    1.281   .     A
C122   O147    1.284   .     A
C123   C616    1.401   1_554 S
C123   H621    1.084   1_554 S
C125   H140    1.083   .     S
C126   O150    1.377   .     S
C126   C606    1.394   1_554 S
C126   C613    1.431   1_554 S
C127   C128    1.425   .     A
C127   C612    1.431   .     S
C127   C615    1.429   .     S
C128   C132    1.411   .     A
C129   C613    1.429   1_554 S
C129   C616    1.423   1_554 S
C130   C131    1.389   .     A
C130   C609    1.401   .     S
C130   C615    1.423   .     S
C131   C132    1.382   .     A
C131   H134    1.084   .     S
C132   H142    1.081   .     S
H135   C609    1.084   .     S
H136   O150    0.992   .     S
H137   C440    1.088   1_545 S
H138   C279    1.086   .     S
H141   C606    1.083   1_554 S
H144   C7      1.086   1_655 S
O145   Zn161   1.931   .     S
O145   Zn162   1.935   .     S
O145   Zn159   1.956   .     S
O145   Zn160   1.950   .     S
O146   Zn160   1.934   .     S
O147   Zn162   1.945   .     S
O148   Zn161   1.944   .     S
O149   Zn159   1.934   .     S
O151   Zn159   1.929   .     S
O152   Zn162   1.928   .     S
O153   Zn160   1.925   .     S
O154   Zn161   1.936   .     S
O155   Zn162   1.933   .     S
O156   Zn159   1.923   .     S
O157   Zn160   1.932   .     S
O158   Zn161   1.930   .     S
C163   O207    1.274   .     A
C163   O209    1.273   .     A
C163   C169    1.438   .     S
C164   C178    1.393   .     A
C164   C183    1.408   .     A
C164   H193    1.080   .     S
C165   C177    1.387   .     A
C165   H187    1.084   .     S
C165   C178    1.396   .     A
C166   O208    1.280   .     A
C166   C168    1.455   .     S
C166   O210    1.276   .     A
C167   C176    1.475   .     S
C167   C179    1.400   .     A
C167   C182    1.417   .     A
C168   C223    1.335   .     S
C168   H251    1.088   .     S
C169   C276    1.335   1_455 S
C169   H306    1.086   1_455 S
C170   C173    1.451   .     S
C170   C333    1.332   .     S
C170   H353    1.088   .     S
C171   C172    1.435   .     S
C172   O205    1.279   .     A
C172   O211    1.279   .     A
C173   O206    1.271   .     A
C173   O212    1.271   .     A
C174   C179    1.387   .     A
C174   C666    1.394   .     S
C174   H681    1.083   .     S
C175   O200    1.277   .     A
C175   C178    1.449   .     S
C175   O202    1.269   .     A
C176   O203    1.281   .     A
C176   O201    1.284   .     A
C177   C670    1.401   1_554 S
C177   H675    1.084   1_554 S
C179   H194    1.083   .     S
C180   O204    1.377   .     S
C180   C660    1.394   1_554 S
C180   C667    1.431   1_554 S
C181   C182    1.425   .     A
C181   C666    1.431   .     S
C181   C669    1.429   .     S
C182   C186    1.411   .     A
C183   C667    1.429   1_554 S
C183   C670    1.423   1_554 S
C184   C185    1.389   .     A
C184   C663    1.401   .     S
C184   C669    1.423   .     S
C185   C186    1.382   .     A
C185   H188    1.084   .     S
C186   H196    1.081   .     S
H189   C663    1.084   .     S
H190   O204    0.992   .     S
H192   C333    1.086   .     S
H195   C660    1.083   1_554 S
H197   C276    1.088   1_455 S
H198   C223    1.086   .     S
O199   Zn215   1.931   .     S
O199   Zn216   1.935   .     S
O199   Zn213   1.956   .     S
O199   Zn214   1.950   .     S
O200   Zn214   1.934   .     S
O201   Zn216   1.945   .     S
O202   Zn215   1.944   .     S
O203   Zn213   1.934   .     S
O205   Zn213   1.929   .     S
O206   Zn216   1.928   .     S
O207   Zn214   1.925   .     S
O208   Zn215   1.936   .     S
O209   Zn216   1.933   .     S
O210   Zn213   1.923   .     S
O211   Zn214   1.932   .     S
O212   Zn215   1.930   .     S
C217   O261    1.274   .     A
C217   O263    1.273   .     A
C217   C223    1.438   .     S
C218   C232    1.393   .     A
C218   C237    1.408   .     A
C218   H247    1.080   .     S
C219   C231    1.387   .     A
C219   H241    1.084   .     S
C219   C232    1.396   .     A
C220   O262    1.280   .     A
C220   C222    1.455   .     S
C220   O264    1.276   .     A
C221   C230    1.475   .     S
C221   C233    1.400   .     A
C221   C236    1.417   .     A
C222   C277    1.335   .     S
C222   H305    1.088   .     S
C224   C227    1.451   .     S
C224   C387    1.332   .     S
C224   H407    1.088   .     S
C225   C226    1.435   .     S
C226   O259    1.279   .     A
C226   O265    1.279   .     A
C227   O260    1.271   .     A
C227   O266    1.271   .     A
C228   C233    1.387   .     A
C228   C720    1.394   .     S
C228   H735    1.083   .     S
C229   O254    1.277   .     A
C229   C232    1.449   .     S
C229   O256    1.269   .     A
C230   O257    1.281   .     A
C230   O255    1.284   .     A
C231   C724    1.401   1_554 S
C231   H729    1.084   1_554 S
C233   H248    1.083   .     S
C234   O258    1.377   .     S
C234   C714    1.394   1_554 S
C234   C721    1.431   1_554 S
C235   C236    1.425   .     A
C235   C720    1.431   .     S
C235   C723    1.429   .     S
C236   C240    1.411   .     A
C237   C721    1.429   1_554 S
C237   C724    1.423   1_554 S
C238   C239    1.389   .     A
C238   C717    1.401   .     S
C238   C723    1.423   .     S
C239   C240    1.382   .     A
C239   H242    1.084   .     S
C240   H250    1.081   .     S
H243   C717    1.084   .     S
H244   O258    0.992   .     S
H246   C387    1.086   .     S
H249   C714    1.083   1_554 S
H252   C277    1.086   .     S
O253   Zn269   1.931   .     S
O253   Zn270   1.935   .     S
O253   Zn267   1.956   .     S
O253   Zn268   1.950   .     S
O254   Zn268   1.934   .     S
O255   Zn270   1.945   .     S
O256   Zn269   1.944   .     S
O257   Zn267   1.934   .     S
O259   Zn267   1.929   .     S
O260   Zn270   1.928   .     S
O261   Zn268   1.925   .     S
O262   Zn269   1.936   .     S
O263   Zn270   1.933   .     S
O264   Zn267   1.923   .     S
O265   Zn268   1.932   .     S
O266   Zn269   1.930   .     S
C271   O315    1.274   .     A
C271   O317    1.273   .     A
C271   C277    1.438   .     S
C272   C286    1.393   .     A
C272   C291    1.408   .     A
C272   H301    1.080   .     S
C273   C285    1.387   .     A
C273   H295    1.084   .     S
C273   C286    1.396   .     A
C274   O316    1.280   .     A
C274   C276    1.455   .     S
C274   O318    1.276   .     A
C275   C284    1.475   .     S
C275   C287    1.400   .     A
C275   C290    1.417   .     A
C276   C169    1.335   1_655 S
C276   H197    1.088   1_655 S
C278   C281    1.451   .     S
C278   C441    1.332   .     S
C278   H461    1.088   .     S
C279   C280    1.435   .     S
C280   O313    1.279   .     A
C280   O319    1.279   .     A
C281   O314    1.271   .     A
C281   O320    1.271   .     A
C282   C287    1.387   .     A
C282   C774    1.394   .     S
C282   H789    1.083   .     S
C283   O308    1.277   .     A
C283   C286    1.449   .     S
C283   O310    1.269   .     A
C284   O311    1.281   .     A
C284   O309    1.284   .     A
C285   C778    1.401   1_554 S
C285   H783    1.084   1_554 S
C287   H302    1.083   .     S
C288   O312    1.377   .     S
C288   C768    1.394   1_554 S
C288   C775    1.431   1_554 S
C289   C290    1.425   .     A
C289   C774    1.431   .     S
C289   C777    1.429   .     S
C290   C294    1.411   .     A
C291   C775    1.429   1_554 S
C291   C778    1.423   1_554 S
C292   C293    1.389   .     A
C292   C771    1.401   .     S
C292   C777    1.423   .     S
C293   C294    1.382   .     A
C293   H296    1.084   .     S
C294   H304    1.081   .     S
H297   C771    1.084   .     S
H298   O312    0.992   .     S
H300   C441    1.086   .     S
H303   C768    1.083   1_554 S
H306   C169    1.086   1_655 S
O307   Zn323   1.931   .     S
O307   Zn324   1.935   .     S
O307   Zn321   1.956   .     S
O307   Zn322   1.950   .     S
O308   Zn322   1.934   .     S
O309   Zn324   1.945   .     S
O310   Zn323   1.944   .     S
O311   Zn321   1.934   .     S
O313   Zn321   1.929   .     S
O314   Zn324   1.928   .     S
O315   Zn322   1.925   .     S
O316   Zn323   1.936   .     S
O317   Zn324   1.933   .     S
O318   Zn321   1.923   .     S
O319   Zn322   1.932   .     S
O320   Zn323   1.930   .     S
C325   O369    1.274   .     A
C325   O371    1.273   .     A
C325   C331    1.438   .     S
C326   C340    1.393   .     A
C326   C345    1.408   .     A
C326   H355    1.080   .     S
C327   C339    1.387   .     A
C327   H349    1.084   .     S
C327   C340    1.396   .     A
C328   O370    1.280   .     A
C328   C330    1.455   .     S
C328   O372    1.276   .     A
C329   C338    1.475   .     S
C329   C341    1.400   .     A
C329   C344    1.417   .     A
C330   C385    1.335   .     S
C330   H413    1.088   .     S
C331   C438    1.335   1_455 S
C331   H468    1.086   1_455 S
C332   C335    1.451   .     S
C332   C9      1.332   1_565 S
C332   H29     1.088   1_565 S
C333   C334    1.435   .     S
C334   O367    1.279   .     A
C334   O373    1.279   .     A
C335   O368    1.271   .     A
C335   O374    1.271   .     A
C336   C341    1.387   .     A
C336   C828    1.394   .     S
C336   H843    1.083   .     S
C337   O362    1.277   .     A
C337   C340    1.449   .     S
C337   O364    1.269   .     A
C338   O365    1.281   .     A
C338   O363    1.284   .     A
C339   C832    1.401   1_554 S
C339   H837    1.084   1_554 S
C341   H356    1.083   .     S
C342   O366    1.377   .     S
C342   C822    1.394   1_554 S
C342   C829    1.431   1_554 S
C343   C344    1.425   .     A
C343   C828    1.431   .     S
C343   C831    1.429   .     S
C344   C348    1.411   .     A
C345   C829    1.429   1_554 S
C345   C832    1.423   1_554 S
C346   C347    1.389   .     A
C346   C825    1.401   .     S
C346   C831    1.423   .     S
C347   C348    1.382   .     A
C347   H350    1.084   .     S
C348   H358    1.081   .     S
H351   C825    1.084   .     S
H352   O366    0.992   .     S
H354   C9      1.086   1_565 S
H357   C822    1.083   1_554 S
H359   C438    1.088   1_455 S
H360   C385    1.086   .     S
O361   Zn377   1.931   .     S
O361   Zn378   1.935   .     S
O361   Zn375   1.956   .     S
O361   Zn376   1.950   .     S
O362   Zn376   1.934   .     S
O363   Zn378   1.945   .     S
O364   Zn377   1.944   .     S
O365   Zn375   1.934   .     S
O367   Zn375   1.929   .     S
O368   Zn378   1.928   .     S
O369   Zn376   1.925   .     S
O370   Zn377   1.936   .     S
O371   Zn378   1.933   .     S
O372   Zn375   1.923   .     S
O373   Zn376   1.932   .     S
O374   Zn377   1.930   .     S
C379   O423    1.274   .     A
C379   O425    1.273   .     A
C379   C385    1.438   .     S
C380   C394    1.393   .     A
C380   C399    1.408   .     A
C380   H409    1.080   .     S
C381   C393    1.387   .     A
C381   H403    1.084   .     S
C381   C394    1.396   .     A
C382   O424    1.280   .     A
C382   C384    1.455   .     S
C382   O426    1.276   .     A
C383   C392    1.475   .     S
C383   C395    1.400   .     A
C383   C398    1.417   .     A
C384   C439    1.335   .     S
C384   H467    1.088   .     S
C386   C389    1.451   .     S
C386   C63     1.332   1_565 S
C386   H83     1.088   1_565 S
C387   C388    1.435   .     S
C388   O421    1.279   .     A
C388   O427    1.279   .     A
C389   O422    1.271   .     A
C389   O428    1.271   .     A
C390   C395    1.387   .     A
C390   C882    1.394   .     S
C390   H897    1.083   .     S
C391   O416    1.277   .     A
C391   C394    1.449   .     S
C391   O418    1.269   .     A
C392   O419    1.281   .     A
C392   O417    1.284   .     A
C393   C886    1.401   1_554 S
C393   H891    1.084   1_554 S
C395   H410    1.083   .     S
C396   O420    1.377   .     S
C396   C876    1.394   1_554 S
C396   C883    1.431   1_554 S
C397   C398    1.425   .     A
C397   C882    1.431   .     S
C397   C885    1.429   .     S
C398   C402    1.411   .     A
C399   C883    1.429   1_554 S
C399   C886    1.423   1_554 S
C400   C401    1.389   .     A
C400   C879    1.401   .     S
C400   C885    1.423   .     S
C401   C402    1.382   .     A
C401   H404    1.084   .     S
C402   H412    1.081   .     S
H405   C879    1.084   .     S
H406   O420    0.992   .     S
H408   C63     1.086   1_565 S
H411   C876    1.083   1_554 S
H414   C439    1.086   .     S
O415   Zn431   1.931   .     S
O415   Zn432   1.935   .     S
O415   Zn429   1.956   .     S
O415   Zn430   1.950   .     S
O416   Zn430   1.934   .     S
O417   Zn432   1.945   .     S
O418   Zn431   1.944   .     S
O419   Zn429   1.934   .     S
O421   Zn429   1.929   .     S
O422   Zn432   1.928   .     S
O423   Zn430   1.925   .     S
O424   Zn431   1.936   .     S
O425   Zn432   1.933   .     S
O426   Zn429   1.923   .     S
O427   Zn430   1.932   .     S
O428   Zn431   1.930   .     S
C433   O477    1.274   .     A
C433   O479    1.273   .     A
C433   C439    1.438   .     S
C434   C448    1.393   .     A
C434   C453    1.408   .     A
C434   H463    1.080   .     S
C435   C447    1.387   .     A
C435   H457    1.084   .     S
C435   C448    1.396   .     A
C436   O478    1.280   .     A
C436   C438    1.455   .     S
C436   O480    1.276   .     A
C437   C446    1.475   .     S
C437   C449    1.400   .     A
C437   C452    1.417   .     A
C438   C331    1.335   1_655 S
C438   H359    1.088   1_655 S
C440   C443    1.451   .     S
C440   C117    1.332   1_565 S
C440   H137    1.088   1_565 S
C441   C442    1.435   .     S
C442   O475    1.279   .     A
C442   O481    1.279   .     A
C443   O476    1.271   .     A
C443   O482    1.271   .     A
C444   C449    1.387   .     A
C444   C936    1.394   .     S
C444   H951    1.083   .     S
C445   O470    1.277   .     A
C445   C448    1.449   .     S
C445   O472    1.269   .     A
C446   O473    1.281   .     A
C446   O471    1.284   .     A
C447   C940    1.401   1_554 S
C447   H945    1.084   1_554 S
C449   H464    1.083   .     S
C450   O474    1.377   .     S
C450   C930    1.394   1_554 S
C450   C937    1.431   1_554 S
C451   C452    1.425   .     A
C451   C936    1.431   .     S
C451   C939    1.429   .     S
C452   C456    1.411   .     A
C453   C937    1.429   1_554 S
C453   C940    1.423   1_554 S
C454   C455    1.389   .     A
C454   C933    1.401   .     S
C454   C939    1.423   .     S
C455   C456    1.382   .     A
C455   H458    1.084   .     S
C456   H466    1.081   .     S
H459   C933    1.084   .     S
H460   O474    0.992   .     S
H462   C117    1.086   1_565 S
H465   C930    1.083   1_554 S
H468   C331    1.086   1_655 S
O469   Zn485   1.931   .     S
O469   Zn486   1.935   .     S
O469   Zn483   1.956   .     S
O469   Zn484   1.950   .     S
O470   Zn484   1.934   .     S
O471   Zn486   1.945   .     S
O472   Zn485   1.944   .     S
O473   Zn483   1.934   .     S
O475   Zn483   1.929   .     S
O476   Zn486   1.928   .     S
O477   Zn484   1.925   .     S
O478   Zn485   1.936   .     S
O479   Zn486   1.933   .     S
O480   Zn483   1.923   .     S
O481   Zn484   1.932   .     S
O482   Zn485   1.930   .     S
C487   O531    1.274   .     A
C487   O533    1.273   .     A
C487   C493    1.438   .     S
C488   C502    1.393   .     A
C488   C507    1.408   .     A
C488   H517    1.080   .     S
C489   C501    1.387   .     A
C489   H511    1.084   .     S
C489   C502    1.396   .     A
C490   O532    1.280   .     A
C490   C492    1.455   .     S
C490   O534    1.276   .     A
C491   C500    1.475   .     S
C491   C503    1.400   .     A
C491   C506    1.417   .     A
C492   C547    1.335   .     S
C492   H575    1.088   .     S
C493   C600    1.335   1_455 S
C493   H630    1.086   1_455 S
C494   C497    1.451   .     S
C494   C657    1.332   .     S
C494   H677    1.088   .     S
C495   C496    1.435   .     S
C495   C818    1.332   1_545 S
C495   H840    1.086   1_545 S
C496   O529    1.279   .     A
C496   O535    1.279   .     A
C497   O530    1.271   .     A
C497   O536    1.271   .     A
C498   C503    1.387   .     A
C498   C18     1.394   1_556 S
C498   H33     1.083   1_556 S
C499   O524    1.277   .     A
C499   C502    1.449   .     S
C499   O526    1.269   .     A
C500   O527    1.281   .     A
C500   O525    1.284   .     A
C503   H518    1.083   .     S
C504   O528    1.377   .     S
C505   C506    1.425   .     A
C505   C18     1.431   1_556 S
C505   C21     1.429   1_556 S
C506   C510    1.411   .     A
C508   C509    1.389   .     A
C508   C15     1.401   1_556 S
C508   C21     1.423   1_556 S
C509   C510    1.382   .     A
C509   H512    1.084   .     S
C510   H520    1.081   .     S
H513   C15     1.084   1_556 S
H514   O528    0.992   .     S
H515   C818    1.088   1_545 S
H516   C657    1.086   .     S
H521   C600    1.088   1_455 S
H522   C547    1.086   .     S
O523   Zn539   1.931   .     S
O523   Zn540   1.935   .     S
O523   Zn537   1.956   .     S
O523   Zn538   1.950   .     S
O524   Zn538   1.934   .     S
O525   Zn540   1.945   .     S
O526   Zn539   1.944   .     S
O527   Zn537   1.934   .     S
O529   Zn537   1.929   .     S
O530   Zn540   1.928   .     S
O531   Zn538   1.925   .     S
O532   Zn539   1.936   .     S
O533   Zn540   1.933   .     S
O534   Zn537   1.923   .     S
O535   Zn538   1.932   .     S
O536   Zn539   1.930   .     S
C541   O585    1.274   .     A
C541   O587    1.273   .     A
C541   C547    1.438   .     S
C542   C556    1.393   .     A
C542   C561    1.408   .     A
C542   H571    1.080   .     S
C543   C555    1.387   .     A
C543   H565    1.084   .     S
C543   C556    1.396   .     A
C544   O586    1.280   .     A
C544   C546    1.455   .     S
C544   O588    1.276   .     A
C545   C554    1.475   .     S
C545   C557    1.400   .     A
C545   C560    1.417   .     A
C546   C601    1.335   .     S
C546   H629    1.088   .     S
C548   C551    1.451   .     S
C548   C711    1.332   .     S
C548   H731    1.088   .     S
C549   C550    1.435   .     S
C549   C872    1.332   1_545 S
C549   H894    1.086   1_545 S
C550   O583    1.279   .     A
C550   O589    1.279   .     A
C551   O584    1.271   .     A
C551   O590    1.271   .     A
C552   C557    1.387   .     A
C552   C72     1.394   1_556 S
C552   H87     1.083   1_556 S
C553   O578    1.277   .     A
C553   C556    1.449   .     S
C553   O580    1.269   .     A
C554   O581    1.281   .     A
C554   O579    1.284   .     A
C557   H572    1.083   .     S
C558   O582    1.377   .     S
C559   C560    1.425   .     A
C559   C72     1.431   1_556 S
C559   C75     1.429   1_556 S
C560   C564    1.411   .     A
C562   C563    1.389   .     A
C562   C69     1.401   1_556 S
C562   C75     1.423   1_556 S
C563   C564    1.382   .     A
C563   H566    1.084   .     S
C564   H574    1.081   .     S
H567   C69     1.084   1_556 S
H568   O582    0.992   .     S
H569   C872    1.088   1_545 S
H570   C711    1.086   .     S
H576   C601    1.086   .     S
O577   Zn593   1.931   .     S
O577   Zn594   1.935   .     S
O577   Zn591   1.956   .     S
O577   Zn592   1.950   .     S
O578   Zn592   1.934   .     S
O579   Zn594   1.945   .     S
O580   Zn593   1.944   .     S
O581   Zn591   1.934   .     S
O583   Zn591   1.929   .     S
O584   Zn594   1.928   .     S
O585   Zn592   1.925   .     S
O586   Zn593   1.936   .     S
O587   Zn594   1.933   .     S
O588   Zn591   1.923   .     S
O589   Zn592   1.932   .     S
O590   Zn593   1.930   .     S
C595   O639    1.274   .     A
C595   O641    1.273   .     A
C595   C601    1.438   .     S
C596   C610    1.393   .     A
C596   C615    1.408   .     A
C596   H625    1.080   .     S
C597   C609    1.387   .     A
C597   H619    1.084   .     S
C597   C610    1.396   .     A
C598   O640    1.280   .     A
C598   C600    1.455   .     S
C598   O642    1.276   .     A
C599   C608    1.475   .     S
C599   C611    1.400   .     A
C599   C614    1.417   .     A
C600   C493    1.335   1_655 S
C600   H521    1.088   1_655 S
C602   C605    1.451   .     S
C602   C765    1.332   .     S
C602   H785    1.088   .     S
C603   C604    1.435   .     S
C603   C926    1.332   1_545 S
C603   H948    1.086   1_545 S
C604   O637    1.279   .     A
C604   O643    1.279   .     A
C605   O638    1.271   .     A
C605   O644    1.271   .     A
C606   C611    1.387   .     A
C606   C126    1.394   1_556 S
C606   H141    1.083   1_556 S
C607   O632    1.277   .     A
C607   C610    1.449   .     S
C607   O634    1.269   .     A
C608   O635    1.281   .     A
C608   O633    1.284   .     A
C611   H626    1.083   .     S
C612   O636    1.377   .     S
C613   C614    1.425   .     A
C613   C126    1.431   1_556 S
C613   C129    1.429   1_556 S
C614   C618    1.411   .     A
C616   C617    1.389   .     A
C616   C123    1.401   1_556 S
C616   C129    1.423   1_556 S
C617   C618    1.382   .     A
C617   H620    1.084   .     S
C618   H628    1.081   .     S
H621   C123    1.084   1_556 S
H622   O636    0.992   .     S
H623   C926    1.088   1_545 S
H624   C765    1.086   .     S
H630   C493    1.086   1_655 S
O631   Zn647   1.931   .     S
O631   Zn648   1.935   .     S
O631   Zn645   1.956   .     S
O631   Zn646   1.950   .     S
O632   Zn646   1.934   .     S
O633   Zn648   1.945   .     S
O634   Zn647   1.944   .     S
O635   Zn645   1.934   .     S
O637   Zn645   1.929   .     S
O638   Zn648   1.928   .     S
O639   Zn646   1.925   .     S
O640   Zn647   1.936   .     S
O641   Zn648   1.933   .     S
O642   Zn645   1.923   .     S
O643   Zn646   1.932   .     S
O644   Zn647   1.930   .     S
C649   O693    1.274   .     A
C649   O695    1.273   .     A
C649   C655    1.438   .     S
C650   C664    1.393   .     A
C650   C669    1.408   .     A
C650   H679    1.080   .     S
C651   C663    1.387   .     A
C651   H673    1.084   .     S
C651   C664    1.396   .     A
C652   O694    1.280   .     A
C652   C654    1.455   .     S
C652   O696    1.276   .     A
C653   C662    1.475   .     S
C653   C665    1.400   .     A
C653   C668    1.417   .     A
C654   C709    1.335   .     S
C654   H737    1.088   .     S
C655   C762    1.335   1_455 S
C655   H792    1.086   1_455 S
C656   C659    1.451   .     S
C656   C819    1.332   .     S
C656   H839    1.088   .     S
C657   C658    1.435   .     S
C658   O691    1.279   .     A
C658   O697    1.279   .     A
C659   O692    1.271   .     A
C659   O698    1.271   .     A
C660   C665    1.387   .     A
C660   C180    1.394   1_556 S
C660   H195    1.083   1_556 S
C661   O686    1.277   .     A
C661   C664    1.449   .     S
C661   O688    1.269   .     A
C662   O689    1.281   .     A
C662   O687    1.284   .     A
C665   H680    1.083   .     S
C666   O690    1.377   .     S
C667   C668    1.425   .     A
C667   C180    1.431   1_556 S
C667   C183    1.429   1_556 S
C668   C672    1.411   .     A
C670   C671    1.389   .     A
C670   C177    1.401   1_556 S
C670   C183    1.423   1_556 S
C671   C672    1.382   .     A
C671   H674    1.084   .     S
C672   H682    1.081   .     S
H675   C177    1.084   1_556 S
H676   O690    0.992   .     S
H678   C819    1.086   .     S
H683   C762    1.088   1_455 S
H684   C709    1.086   .     S
O685   Zn701   1.931   .     S
O685   Zn702   1.935   .     S
O685   Zn699   1.956   .     S
O685   Zn700   1.950   .     S
O686   Zn700   1.934   .     S
O687   Zn702   1.945   .     S
O688   Zn701   1.944   .     S
O689   Zn699   1.934   .     S
O691   Zn699   1.929   .     S
O692   Zn702   1.928   .     S
O693   Zn700   1.925   .     S
O694   Zn701   1.936   .     S
O695   Zn702   1.933   .     S
O696   Zn699   1.923   .     S
O697   Zn700   1.932   .     S
O698   Zn701   1.930   .     S
C703   O747    1.274   .     A
C703   O749    1.273   .     A
C703   C709    1.438   .     S
C704   C718    1.393   .     A
C704   C723    1.408   .     A
C704   H733    1.080   .     S
C705   C717    1.387   .     A
C705   H727    1.084   .     S
C705   C718    1.396   .     A
C706   O748    1.280   .     A
C706   C708    1.455   .     S
C706   O750    1.276   .     A
C707   C716    1.475   .     S
C707   C719    1.400   .     A
C707   C722    1.417   .     A
C708   C763    1.335   .     S
C708   H791    1.088   .     S
C710   C713    1.451   .     S
C710   C873    1.332   .     S
C710   H893    1.088   .     S
C711   C712    1.435   .     S
C712   O745    1.279   .     A
C712   O751    1.279   .     A
C713   O746    1.271   .     A
C713   O752    1.271   .     A
C714   C719    1.387   .     A
C714   C234    1.394   1_556 S
C714   H249    1.083   1_556 S
C715   O740    1.277   .     A
C715   C718    1.449   .     S
C715   O742    1.269   .     A
C716   O743    1.281   .     A
C716   O741    1.284   .     A
C719   H734    1.083   .     S
C720   O744    1.377   .     S
C721   C722    1.425   .     A
C721   C234    1.431   1_556 S
C721   C237    1.429   1_556 S
C722   C726    1.411   .     A
C724   C725    1.389   .     A
C724   C231    1.401   1_556 S
C724   C237    1.423   1_556 S
C725   C726    1.382   .     A
C725   H728    1.084   .     S
C726   H736    1.081   .     S
H729   C231    1.084   1_556 S
H730   O744    0.992   .     S
H732   C873    1.086   .     S
H738   C763    1.086   .     S
O739   Zn755   1.931   .     S
O739   Zn756   1.935   .     S
O739   Zn753   1.956   .     S
O739   Zn754   1.950   .     S
O740   Zn754   1.934   .     S
O741   Zn756   1.945   .     S
O742   Zn755   1.944   .     S
O743   Zn753   1.934   .     S
O745   Zn753   1.929   .     S
O746   Zn756   1.928   .     S
O747   Zn754   1.925   .     S
O748   Zn755   1.936   .     S
O749   Zn756   1.933   .     S
O750   Zn753   1.923   .     S
O751   Zn754   1.932   .     S
O752   Zn755   1.930   .     S
C757   O801    1.274   .     A
C757   O803    1.273   .     A
C757   C763    1.438   .     S
C758   C772    1.393   .     A
C758   C777    1.408   .     A
C758   H787    1.080   .     S
C759   C771    1.387   .     A
C759   H781    1.084   .     S
C759   C772    1.396   .     A
C760   O802    1.280   .     A
C760   C762    1.455   .     S
C760   O804    1.276   .     A
C761   C770    1.475   .     S
C761   C773    1.400   .     A
C761   C776    1.417   .     A
C762   C655    1.335   1_655 S
C762   H683    1.088   1_655 S
C764   C767    1.451   .     S
C764   C927    1.332   .     S
C764   H947    1.088   .     S
C765   C766    1.435   .     S
C766   O799    1.279   .     A
C766   O805    1.279   .     A
C767   O800    1.271   .     A
C767   O806    1.271   .     A
C768   C773    1.387   .     A
C768   C288    1.394   1_556 S
C768   H303    1.083   1_556 S
C769   O794    1.277   .     A
C769   C772    1.449   .     S
C769   O796    1.269   .     A
C770   O797    1.281   .     A
C770   O795    1.284   .     A
C773   H788    1.083   .     S
C774   O798    1.377   .     S
C775   C776    1.425   .     A
C775   C288    1.431   1_556 S
C775   C291    1.429   1_556 S
C776   C780    1.411   .     A
C778   C779    1.389   .     A
C778   C285    1.401   1_556 S
C778   C291    1.423   1_556 S
C779   C780    1.382   .     A
C779   H782    1.084   .     S
C780   H790    1.081   .     S
H783   C285    1.084   1_556 S
H784   O798    0.992   .     S
H786   C927    1.086   .     S
H792   C655    1.086   1_655 S
O793   Zn809   1.931   .     S
O793   Zn810   1.935   .     S
O793   Zn807   1.956   .     S
O793   Zn808   1.950   .     S
O794   Zn808   1.934   .     S
O795   Zn810   1.945   .     S
O796   Zn809   1.944   .     S
O797   Zn807   1.934   .     S
O799   Zn807   1.929   .     S
O800   Zn810   1.928   .     S
O801   Zn808   1.925   .     S
O802   Zn809   1.936   .     S
O803   Zn810   1.933   .     S
O804   Zn807   1.923   .     S
O805   Zn808   1.932   .     S
O806   Zn809   1.930   .     S
C811   O855    1.274   .     A
C811   O857    1.273   .     A
C811   C817    1.438   .     S
C812   C826    1.393   .     A
C812   C831    1.408   .     A
C812   H841    1.080   .     S
C813   C825    1.387   .     A
C813   H835    1.084   .     S
C813   C826    1.396   .     A
C814   O856    1.280   .     A
C814   C816    1.455   .     S
C814   O858    1.276   .     A
C815   C824    1.475   .     S
C815   C827    1.400   .     A
C815   C830    1.417   .     A
C816   C871    1.335   .     S
C816   H899    1.088   .     S
C817   C924    1.335   1_455 S
C817   H954    1.086   1_455 S
C818   C821    1.451   .     S
C818   C495    1.332   1_565 S
C818   H515    1.088   1_565 S
C819   C820    1.435   .     S
C820   O853    1.279   .     A
C820   O859    1.279   .     A
C821   O854    1.271   .     A
C821   O860    1.271   .     A
C822   C827    1.387   .     A
C822   C342    1.394   1_556 S
C822   H357    1.083   1_556 S
C823   O848    1.277   .     A
C823   C826    1.449   .     S
C823   O850    1.269   .     A
C824   O851    1.281   .     A
C824   O849    1.284   .     A
C827   H842    1.083   .     S
C828   O852    1.377   .     S
C829   C830    1.425   .     A
C829   C342    1.431   1_556 S
C829   C345    1.429   1_556 S
C830   C834    1.411   .     A
C832   C833    1.389   .     A
C832   C339    1.401   1_556 S
C832   C345    1.423   1_556 S
C833   C834    1.382   .     A
C833   H836    1.084   .     S
C834   H844    1.081   .     S
H837   C339    1.084   1_556 S
H838   O852    0.992   .     S
H840   C495    1.086   1_565 S
H845   C924    1.088   1_455 S
H846   C871    1.086   .     S
O847   Zn863   1.931   .     S
O847   Zn864   1.935   .     S
O847   Zn861   1.956   .     S
O847   Zn862   1.950   .     S
O848   Zn862   1.934   .     S
O849   Zn864   1.945   .     S
O850   Zn863   1.944   .     S
O851   Zn861   1.934   .     S
O853   Zn861   1.929   .     S
O854   Zn864   1.928   .     S
O855   Zn862   1.925   .     S
O856   Zn863   1.936   .     S
O857   Zn864   1.933   .     S
O858   Zn861   1.923   .     S
O859   Zn862   1.932   .     S
O860   Zn863   1.930   .     S
C865   O909    1.274   .     A
C865   O911    1.273   .     A
C865   C871    1.438   .     S
C866   C880    1.393   .     A
C866   C885    1.408   .     A
C866   H895    1.080   .     S
C867   C879    1.387   .     A
C867   H889    1.084   .     S
C867   C880    1.396   .     A
C868   O910    1.280   .     A
C868   C870    1.455   .     S
C868   O912    1.276   .     A
C869   C878    1.475   .     S
C869   C881    1.400   .     A
C869   C884    1.417   .     A
C870   C925    1.335   .     S
C870   H953    1.088   .     S
C872   C875    1.451   .     S
C872   C549    1.332   1_565 S
C872   H569    1.088   1_565 S
C873   C874    1.435   .     S
C874   O907    1.279   .     A
C874   O913    1.279   .     A
C875   O908    1.271   .     A
C875   O914    1.271   .     A
C876   C881    1.387   .     A
C876   C396    1.394   1_556 S
C876   H411    1.083   1_556 S
C877   O902    1.277   .     A
C877   C880    1.449   .     S
C877   O904    1.269   .     A
C878   O905    1.281   .     A
C878   O903    1.284   .     A
C881   H896    1.083   .     S
C882   O906    1.377   .     S
C883   C884    1.425   .     A
C883   C396    1.431   1_556 S
C883   C399    1.429   1_556 S
C884   C888    1.411   .     A
C886   C887    1.389   .     A
C886   C393    1.401   1_556 S
C886   C399    1.423   1_556 S
C887   C888    1.382   .     A
C887   H890    1.084   .     S
C888   H898    1.081   .     S
H891   C393    1.084   1_556 S
H892   O906    0.992   .     S
H894   C549    1.086   1_565 S
H900   C925    1.086   .     S
O901   Zn917   1.931   .     S
O901   Zn918   1.935   .     S
O901   Zn915   1.956   .     S
O901   Zn916   1.950   .     S
O902   Zn916   1.934   .     S
O903   Zn918   1.945   .     S
O904   Zn917   1.944   .     S
O905   Zn915   1.934   .     S
O907   Zn915   1.929   .     S
O908   Zn918   1.928   .     S
O909   Zn916   1.925   .     S
O910   Zn917   1.936   .     S
O911   Zn918   1.933   .     S
O912   Zn915   1.923   .     S
O913   Zn916   1.932   .     S
O914   Zn917   1.930   .     S
C919   O963    1.274   .     A
C919   O965    1.273   .     A
C919   C925    1.438   .     S
C920   C934    1.393   .     A
C920   C939    1.408   .     A
C920   H949    1.080   .     S
C921   C933    1.387   .     A
C921   H943    1.084   .     S
C921   C934    1.396   .     A
C922   O964    1.280   .     A
C922   C924    1.455   .     S
C922   O966    1.276   .     A
C923   C932    1.475   .     S
C923   C935    1.400   .     A
C923   C938    1.417   .     A
C924   C817    1.335   1_655 S
C924   H845    1.088   1_655 S
C926   C929    1.451   .     S
C926   C603    1.332   1_565 S
C926   H623    1.088   1_565 S
C927   C928    1.435   .     S
C928   O961    1.279   .     A
C928   O967    1.279   .     A
C929   O962    1.271   .     A
C929   O968    1.271   .     A
C930   C935    1.387   .     A
C930   C450    1.394   1_556 S
C930   H465    1.083   1_556 S
C931   O956    1.277   .     A
C931   C934    1.449   .     S
C931   O958    1.269   .     A
C932   O959    1.281   .     A
C932   O957    1.284   .     A
C935   H950    1.083   .     S
C936   O960    1.377   .     S
C937   C938    1.425   .     A
C937   C450    1.431   1_556 S
C937   C453    1.429   1_556 S
C938   C942    1.411   .     A
C940   C941    1.389   .     A
C940   C447    1.401   1_556 S
C940   C453    1.423   1_556 S
C941   C942    1.382   .     A
C941   H944    1.084   .     S
C942   H952    1.081   .     S
H945   C447    1.084   1_556 S
H946   O960    0.992   .     S
H948   C603    1.086   1_565 S
H954   C817    1.086   1_655 S
O955   Zn971   1.931   .     S
O955   Zn972   1.935   .     S
O955   Zn969   1.956   .     S
O955   Zn970   1.950   .     S
O956   Zn970   1.934   .     S
O957   Zn972   1.945   .     S
O958   Zn971   1.944   .     S
O959   Zn969   1.934   .     S
O961   Zn969   1.929   .     S
O962   Zn972   1.928   .     S
O963   Zn970   1.925   .     S
O964   Zn971   1.936   .     S
O965   Zn972   1.933   .     S
O966   Zn969   1.923   .     S
O967   Zn970   1.932   .     S
O968   Zn971   1.930   .     S
