data_str_m1_o10_o16_pcu_sym.101
_audit_creation_date              2020-01-03
_audit_creation_method            'Materials Studio'
_symmetry_space_group_name_H-M    'P1'
_symmetry_Int_Tables_number       1
_symmetry_cell_setting            triclinic
loop_
_symmetry_equiv_pos_as_xyz
  x,y,z
_cell_length_a                    32.7000
_cell_length_b                    32.6855
_cell_length_c                    30.9959
_cell_angle_alpha                 97.0562
_cell_angle_beta                  74.5988
_cell_angle_gamma                 98.5028
loop_
_atom_site_label
_atom_site_type_symbol
_atom_site_fract_x
_atom_site_fract_y
_atom_site_fract_z
_atom_site_U_iso_or_equiv
_atom_site_adp_type
_atom_site_occupancy
C1     C     0.05302   0.15986   0.25979   0.00000  Uiso   1.00
C2     C     0.17077   0.16462   0.06039   0.00000  Uiso   1.00
C3     C     0.20841   0.10492   0.05776   0.00000  Uiso   1.00
C4     C     0.28067   0.17372   0.24012   0.00000  Uiso   1.00
C5     C     0.14364   0.19641   0.41973   0.00000  Uiso   1.00
C6     C     0.32643   0.17596   0.23627   0.00000  Uiso   1.00
C7     C     0.00787   0.15709   0.26459   0.00000  Uiso   1.00
C8     C     0.17951   0.32229   0.23665   0.00000  Uiso   1.00
C9     C     0.15112   0.01243   0.26448   0.00000  Uiso   1.00
C10    C     0.15604   0.05617   0.26021   0.00000  Uiso   1.00
C11    C     0.17633   0.27786   0.24027   0.00000  Uiso   1.00
C12    C     0.14975   0.25263   0.47802   0.00000  Uiso   1.00
C13    C     0.18546   0.14764   0.12943   0.00000  Uiso   1.00
C14    C     0.14855   0.18510   0.37101   0.00000  Uiso   1.00
C15    C     0.20342   0.09229   0.01446   0.00000  Uiso   1.00
C16    C     0.19056   0.14032   0.08115   0.00000  Uiso   1.00
C17    C     0.14005   0.23850   0.43707   0.00000  Uiso   1.00
C18    C     0.16277   0.22579   0.00150   0.00000  Uiso   1.00
C19    C     0.16072   0.18291   0.48863   0.00000  Uiso   1.00
C20    C     0.15071   0.16771   0.44731   0.00000  Uiso   1.00
C21    C     0.17179   0.15528   0.01432   0.00000  Uiso   1.00
C22    C     0.18321   0.11608   0.49338   0.00000  Uiso   1.00
C23    C     0.17130   0.10043   0.45350   0.00000  Uiso   1.00
C24    C     0.14989   0.12448   0.43433   0.00000  Uiso   1.00
Cl25   Cl    0.22206   0.01107   0.19434   0.00000  Uiso   1.00
Cl26   Cl    0.18004   0.04979   0.42853   0.00000  Uiso   1.00
Cl27   Cl    0.13543   0.19864   0.09562   0.00000  Uiso   1.00
Cl28   Cl    0.12782   0.27570   0.40684   0.00000  Uiso   1.00
Cl29   Cl    0.14887   0.30493   0.49989   0.00000  Uiso   1.00
Cl30   Cl    0.11671   0.09829   0.40008   0.00000  Uiso   1.00
Cl31   Cl    0.02861   0.20406   0.19316   0.00000  Uiso   1.00
H32    H     0.21434   0.06326   0.49815   0.00000  Uiso   1.00
H33    H     0.17588   0.23940   0.02922   0.00000  Uiso   1.00
H34    H     0.20416   0.06370   0.10260   0.00000  Uiso   1.00
H35    H     0.24417   0.05799   0.05631   0.00000  Uiso   1.00
H36    H     0.31978   0.14830   0.33071   0.00000  Uiso   1.00
H37    H     0.32150   0.10421   0.29587   0.00000  Uiso   1.00
H38    H     0.11936   0.01105   0.32998   0.00000  Uiso   1.00
H39    H     0.08781   0.00261   0.29379   0.00000  Uiso   1.00
N40    N     0.22839   0.08011   0.07957   0.00000  Uiso   1.00
N41    N     0.31357   0.13456   0.30045   0.00000  Uiso   1.00
N42    N     0.11621   0.32908   0.29916   0.00000  Uiso   1.00
O43    O     0.16667   0.16667   0.25000   0.00000  Uiso   1.00
O44    O     0.15451   0.12637   0.15458   0.00000  Uiso   1.00
O45    O     0.12940   0.20391   0.34968   0.00000  Uiso   1.00
O46    O     0.20824   0.17759   0.14606   0.00000  Uiso   1.00
O47    O     0.17451   0.15880   0.34968   0.00000  Uiso   1.00
O48    O     0.17930   0.08019   0.28213   0.00000  Uiso   1.00
O49    O     0.14632   0.26085   0.27013   0.00000  Uiso   1.00
O50    O     0.07412   0.13291   0.23413   0.00000  Uiso   1.00
O51    O     0.26693   0.19272   0.21360   0.00000  Uiso   1.00
O52    O     0.07071   0.18878   0.28213   0.00000  Uiso   1.00
O53    O     0.25491   0.15226   0.27013   0.00000  Uiso   1.00
O54    O     0.13760   0.06944   0.23413   0.00000  Uiso   1.00
O55    O     0.20345   0.25620   0.21360   0.00000  Uiso   1.00
Zn56   Zn    0.19338   0.13994   0.28734   0.00000  Uiso   1.00
Zn57   Zn    0.13379   0.12458   0.21875   0.00000  Uiso   1.00
Zn58   Zn    0.21056   0.19775   0.20657   0.00000  Uiso   1.00
Zn59   Zn    0.12893   0.20439   0.28733   0.00000  Uiso   1.00
C60    C     0.38635   0.15986   0.25979   0.00000  Uiso   1.00
C61    C     0.50411   0.16462   0.06039   0.00000  Uiso   1.00
C62    C     0.54175   0.10492   0.05776   0.00000  Uiso   1.00
C63    C     0.61400   0.17372   0.24012   0.00000  Uiso   1.00
C64    C     0.47697   0.19641   0.41973   0.00000  Uiso   1.00
C65    C     0.65977   0.17596   0.23627   0.00000  Uiso   1.00
C66    C     0.34120   0.15709   0.26459   0.00000  Uiso   1.00
C67    C     0.51284   0.32229   0.23665   0.00000  Uiso   1.00
C68    C     0.48446   0.01243   0.26448   0.00000  Uiso   1.00
C69    C     0.48937   0.05617   0.26021   0.00000  Uiso   1.00
C70    C     0.50966   0.27786   0.24027   0.00000  Uiso   1.00
C71    C     0.48308   0.25263   0.47802   0.00000  Uiso   1.00
C72    C     0.51879   0.14764   0.12943   0.00000  Uiso   1.00
C73    C     0.48188   0.18510   0.37101   0.00000  Uiso   1.00
C74    C     0.53675   0.09229   0.01446   0.00000  Uiso   1.00
C75    C     0.52389   0.14032   0.08115   0.00000  Uiso   1.00
C76    C     0.47339   0.23850   0.43707   0.00000  Uiso   1.00
C77    C     0.49610   0.22579   0.00150   0.00000  Uiso   1.00
C78    C     0.49406   0.18291   0.48863   0.00000  Uiso   1.00
C79    C     0.48404   0.16771   0.44731   0.00000  Uiso   1.00
C80    C     0.50513   0.15528   0.01432   0.00000  Uiso   1.00
C81    C     0.51654   0.11608   0.49338   0.00000  Uiso   1.00
C82    C     0.50463   0.10043   0.45350   0.00000  Uiso   1.00
C83    C     0.48322   0.12448   0.43433   0.00000  Uiso   1.00
Cl84   Cl    0.55539   0.01107   0.19434   0.00000  Uiso   1.00
Cl85   Cl    0.51337   0.04979   0.42853   0.00000  Uiso   1.00
Cl86   Cl    0.46877   0.19864   0.09562   0.00000  Uiso   1.00
Cl87   Cl    0.46115   0.27570   0.40684   0.00000  Uiso   1.00
Cl88   Cl    0.48221   0.30493   0.49989   0.00000  Uiso   1.00
Cl89   Cl    0.45004   0.09829   0.40008   0.00000  Uiso   1.00
Cl90   Cl    0.36194   0.20406   0.19316   0.00000  Uiso   1.00
H91    H     0.54767   0.06326   0.49815   0.00000  Uiso   1.00
H92    H     0.50922   0.23940   0.02922   0.00000  Uiso   1.00
H93    H     0.53750   0.06370   0.10260   0.00000  Uiso   1.00
H94    H     0.57750   0.05799   0.05631   0.00000  Uiso   1.00
H95    H     0.65311   0.14830   0.33071   0.00000  Uiso   1.00
H96    H     0.65483   0.10421   0.29587   0.00000  Uiso   1.00
H97    H     0.45270   0.01105   0.32998   0.00000  Uiso   1.00
H98    H     0.42114   0.00261   0.29379   0.00000  Uiso   1.00
N99    N     0.56173   0.08011   0.07957   0.00000  Uiso   1.00
N100   N     0.64690   0.13456   0.30045   0.00000  Uiso   1.00
N101   N     0.44954   0.32908   0.29916   0.00000  Uiso   1.00
O102   O     0.50000   0.16667   0.25000   0.00000  Uiso   1.00
O103   O     0.48784   0.12637   0.15458   0.00000  Uiso   1.00
O104   O     0.46274   0.20391   0.34968   0.00000  Uiso   1.00
O105   O     0.54157   0.17759   0.14606   0.00000  Uiso   1.00
O106   O     0.50785   0.15880   0.34968   0.00000  Uiso   1.00
O107   O     0.51264   0.08019   0.28213   0.00000  Uiso   1.00
O108   O     0.47965   0.26085   0.27013   0.00000  Uiso   1.00
O109   O     0.40745   0.13291   0.23413   0.00000  Uiso   1.00
O110   O     0.60026   0.19272   0.21360   0.00000  Uiso   1.00
O111   O     0.40405   0.18878   0.28213   0.00000  Uiso   1.00
O112   O     0.58824   0.15226   0.27013   0.00000  Uiso   1.00
O113   O     0.47093   0.06944   0.23413   0.00000  Uiso   1.00
O114   O     0.53678   0.25620   0.21360   0.00000  Uiso   1.00
Zn115  Zn    0.52672   0.13994   0.28734   0.00000  Uiso   1.00
Zn116  Zn    0.46713   0.12458   0.21875   0.00000  Uiso   1.00
Zn117  Zn    0.54389   0.19775   0.20657   0.00000  Uiso   1.00
Zn118  Zn    0.46226   0.20439   0.28733   0.00000  Uiso   1.00
C119   C     0.71969   0.15986   0.25979   0.00000  Uiso   1.00
C120   C     0.83744   0.16462   0.06039   0.00000  Uiso   1.00
C121   C     0.87508   0.10492   0.05776   0.00000  Uiso   1.00
C122   C     0.94733   0.17372   0.24012   0.00000  Uiso   1.00
C123   C     0.81031   0.19641   0.41973   0.00000  Uiso   1.00
C124   C     0.99310   0.17596   0.23627   0.00000  Uiso   1.00
C125   C     0.67454   0.15709   0.26459   0.00000  Uiso   1.00
C126   C     0.84618   0.32229   0.23665   0.00000  Uiso   1.00
C127   C     0.81779   0.01243   0.26448   0.00000  Uiso   1.00
C128   C     0.82271   0.05617   0.26021   0.00000  Uiso   1.00
C129   C     0.84299   0.27786   0.24027   0.00000  Uiso   1.00
C130   C     0.81642   0.25263   0.47802   0.00000  Uiso   1.00
C131   C     0.85212   0.14764   0.12943   0.00000  Uiso   1.00
C132   C     0.81521   0.18510   0.37101   0.00000  Uiso   1.00
C133   C     0.87009   0.09229   0.01446   0.00000  Uiso   1.00
C134   C     0.85723   0.14032   0.08115   0.00000  Uiso   1.00
C135   C     0.80672   0.23850   0.43707   0.00000  Uiso   1.00
C136   C     0.82944   0.22579   0.00150   0.00000  Uiso   1.00
C137   C     0.82739   0.18291   0.48863   0.00000  Uiso   1.00
C138   C     0.81738   0.16771   0.44731   0.00000  Uiso   1.00
C139   C     0.83846   0.15528   0.01432   0.00000  Uiso   1.00
C140   C     0.84987   0.11608   0.49338   0.00000  Uiso   1.00
C141   C     0.83796   0.10043   0.45350   0.00000  Uiso   1.00
C142   C     0.81655   0.12448   0.43433   0.00000  Uiso   1.00
Cl143  Cl    0.88873   0.01107   0.19434   0.00000  Uiso   1.00
Cl144  Cl    0.84671   0.04979   0.42853   0.00000  Uiso   1.00
Cl145  Cl    0.80210   0.19864   0.09562   0.00000  Uiso   1.00
Cl146  Cl    0.79448   0.27570   0.40684   0.00000  Uiso   1.00
Cl147  Cl    0.81554   0.30493   0.49989   0.00000  Uiso   1.00
Cl148  Cl    0.78337   0.09829   0.40008   0.00000  Uiso   1.00
Cl149  Cl    0.69527   0.20406   0.19316   0.00000  Uiso   1.00
H150   H     0.88101   0.06326   0.49815   0.00000  Uiso   1.00
H151   H     0.84255   0.23940   0.02922   0.00000  Uiso   1.00
H152   H     0.87083   0.06370   0.10260   0.00000  Uiso   1.00
H153   H     0.91084   0.05799   0.05631   0.00000  Uiso   1.00
H154   H     0.98644   0.14830   0.33071   0.00000  Uiso   1.00
H155   H     0.98816   0.10421   0.29587   0.00000  Uiso   1.00
H156   H     0.78603   0.01105   0.32998   0.00000  Uiso   1.00
H157   H     0.75448   0.00261   0.29379   0.00000  Uiso   1.00
N158   N     0.89506   0.08011   0.07957   0.00000  Uiso   1.00
N159   N     0.98023   0.13456   0.30045   0.00000  Uiso   1.00
N160   N     0.78287   0.32908   0.29916   0.00000  Uiso   1.00
O161   O     0.83333   0.16667   0.25000   0.00000  Uiso   1.00
O162   O     0.82118   0.12637   0.15458   0.00000  Uiso   1.00
O163   O     0.79607   0.20391   0.34968   0.00000  Uiso   1.00
O164   O     0.87491   0.17759   0.14606   0.00000  Uiso   1.00
O165   O     0.84118   0.15880   0.34968   0.00000  Uiso   1.00
O166   O     0.84597   0.08019   0.28213   0.00000  Uiso   1.00
O167   O     0.81298   0.26085   0.27013   0.00000  Uiso   1.00
O168   O     0.74078   0.13291   0.23413   0.00000  Uiso   1.00
O169   O     0.93360   0.19272   0.21360   0.00000  Uiso   1.00
O170   O     0.73738   0.18878   0.28213   0.00000  Uiso   1.00
O171   O     0.92158   0.15226   0.27013   0.00000  Uiso   1.00
O172   O     0.80426   0.06944   0.23413   0.00000  Uiso   1.00
O173   O     0.87012   0.25620   0.21360   0.00000  Uiso   1.00
Zn174  Zn    0.86005   0.13994   0.28734   0.00000  Uiso   1.00
Zn175  Zn    0.80046   0.12458   0.21875   0.00000  Uiso   1.00
Zn176  Zn    0.87723   0.19775   0.20657   0.00000  Uiso   1.00
Zn177  Zn    0.79560   0.20439   0.28733   0.00000  Uiso   1.00
C178   C     0.05302   0.49320   0.25979   0.00000  Uiso   1.00
C179   C     0.17077   0.49795   0.06039   0.00000  Uiso   1.00
C180   C     0.20841   0.43826   0.05776   0.00000  Uiso   1.00
C181   C     0.28067   0.50705   0.24012   0.00000  Uiso   1.00
C182   C     0.14364   0.52974   0.41973   0.00000  Uiso   1.00
C183   C     0.32643   0.50929   0.23627   0.00000  Uiso   1.00
C184   C     0.00787   0.49043   0.26459   0.00000  Uiso   1.00
C185   C     0.17951   0.65562   0.23665   0.00000  Uiso   1.00
C186   C     0.15112   0.34576   0.26448   0.00000  Uiso   1.00
C187   C     0.15604   0.38950   0.26021   0.00000  Uiso   1.00
C188   C     0.17633   0.61119   0.24027   0.00000  Uiso   1.00
C189   C     0.14975   0.58596   0.47802   0.00000  Uiso   1.00
C190   C     0.18546   0.48097   0.12943   0.00000  Uiso   1.00
C191   C     0.14855   0.51843   0.37101   0.00000  Uiso   1.00
C192   C     0.20342   0.42563   0.01446   0.00000  Uiso   1.00
C193   C     0.19056   0.47366   0.08115   0.00000  Uiso   1.00
C194   C     0.14005   0.57184   0.43707   0.00000  Uiso   1.00
C195   C     0.16277   0.55912   0.00150   0.00000  Uiso   1.00
C196   C     0.16072   0.51624   0.48863   0.00000  Uiso   1.00
C197   C     0.15071   0.50105   0.44731   0.00000  Uiso   1.00
C198   C     0.17179   0.48861   0.01432   0.00000  Uiso   1.00
C199   C     0.18321   0.44941   0.49338   0.00000  Uiso   1.00
C200   C     0.17130   0.43377   0.45350   0.00000  Uiso   1.00
C201   C     0.14989   0.45781   0.43433   0.00000  Uiso   1.00
Cl202  Cl    0.22206   0.34440   0.19434   0.00000  Uiso   1.00
Cl203  Cl    0.18004   0.38313   0.42853   0.00000  Uiso   1.00
Cl204  Cl    0.13543   0.53197   0.09562   0.00000  Uiso   1.00
Cl205  Cl    0.12782   0.60904   0.40684   0.00000  Uiso   1.00
Cl206  Cl    0.14887   0.63827   0.49989   0.00000  Uiso   1.00
Cl207  Cl    0.11671   0.43162   0.40008   0.00000  Uiso   1.00
Cl208  Cl    0.02861   0.53739   0.19316   0.00000  Uiso   1.00
H209   H     0.21434   0.39659   0.49815   0.00000  Uiso   1.00
H210   H     0.17588   0.57273   0.02922   0.00000  Uiso   1.00
H211   H     0.20416   0.39703   0.10260   0.00000  Uiso   1.00
H212   H     0.24417   0.39132   0.05631   0.00000  Uiso   1.00
H213   H     0.31978   0.48163   0.33071   0.00000  Uiso   1.00
H214   H     0.32150   0.43755   0.29587   0.00000  Uiso   1.00
H215   H     0.11936   0.34439   0.32998   0.00000  Uiso   1.00
H216   H     0.08781   0.33595   0.29379   0.00000  Uiso   1.00
N217   N     0.22839   0.41345   0.07957   0.00000  Uiso   1.00
N218   N     0.31357   0.46790   0.30045   0.00000  Uiso   1.00
N219   N     0.11621   0.66241   0.29916   0.00000  Uiso   1.00
O220   O     0.16667   0.50000   0.25000   0.00000  Uiso   1.00
O221   O     0.15451   0.45970   0.15458   0.00000  Uiso   1.00
O222   O     0.12940   0.53724   0.34968   0.00000  Uiso   1.00
O223   O     0.20824   0.51092   0.14606   0.00000  Uiso   1.00
O224   O     0.17451   0.49213   0.34968   0.00000  Uiso   1.00
O225   O     0.17930   0.41352   0.28213   0.00000  Uiso   1.00
O226   O     0.14632   0.59418   0.27013   0.00000  Uiso   1.00
O227   O     0.07412   0.46625   0.23413   0.00000  Uiso   1.00
O228   O     0.26693   0.52605   0.21360   0.00000  Uiso   1.00
O229   O     0.07071   0.52211   0.28213   0.00000  Uiso   1.00
O230   O     0.25491   0.48559   0.27013   0.00000  Uiso   1.00
O231   O     0.13760   0.40277   0.23413   0.00000  Uiso   1.00
O232   O     0.20345   0.58953   0.21360   0.00000  Uiso   1.00
Zn233  Zn    0.19338   0.47327   0.28734   0.00000  Uiso   1.00
Zn234  Zn    0.13379   0.45791   0.21875   0.00000  Uiso   1.00
Zn235  Zn    0.21056   0.53109   0.20657   0.00000  Uiso   1.00
Zn236  Zn    0.12893   0.53773   0.28733   0.00000  Uiso   1.00
C237   C     0.38635   0.49320   0.25979   0.00000  Uiso   1.00
C238   C     0.50411   0.49795   0.06039   0.00000  Uiso   1.00
C239   C     0.54175   0.43826   0.05776   0.00000  Uiso   1.00
C240   C     0.61400   0.50705   0.24012   0.00000  Uiso   1.00
C241   C     0.47697   0.52974   0.41973   0.00000  Uiso   1.00
C242   C     0.65977   0.50929   0.23627   0.00000  Uiso   1.00
C243   C     0.34120   0.49043   0.26459   0.00000  Uiso   1.00
C244   C     0.51284   0.65562   0.23665   0.00000  Uiso   1.00
C245   C     0.48446   0.34576   0.26448   0.00000  Uiso   1.00
C246   C     0.48937   0.38950   0.26021   0.00000  Uiso   1.00
C247   C     0.50966   0.61119   0.24027   0.00000  Uiso   1.00
C248   C     0.48308   0.58596   0.47802   0.00000  Uiso   1.00
C249   C     0.51879   0.48097   0.12943   0.00000  Uiso   1.00
C250   C     0.48188   0.51843   0.37101   0.00000  Uiso   1.00
C251   C     0.53675   0.42563   0.01446   0.00000  Uiso   1.00
C252   C     0.52389   0.47366   0.08115   0.00000  Uiso   1.00
C253   C     0.47339   0.57184   0.43707   0.00000  Uiso   1.00
C254   C     0.49610   0.55912   0.00150   0.00000  Uiso   1.00
C255   C     0.49406   0.51624   0.48863   0.00000  Uiso   1.00
C256   C     0.48404   0.50105   0.44731   0.00000  Uiso   1.00
C257   C     0.50513   0.48861   0.01432   0.00000  Uiso   1.00
C258   C     0.51654   0.44941   0.49338   0.00000  Uiso   1.00
C259   C     0.50463   0.43377   0.45350   0.00000  Uiso   1.00
C260   C     0.48322   0.45781   0.43433   0.00000  Uiso   1.00
Cl261  Cl    0.55539   0.34440   0.19434   0.00000  Uiso   1.00
Cl262  Cl    0.51337   0.38313   0.42853   0.00000  Uiso   1.00
Cl263  Cl    0.46877   0.53197   0.09562   0.00000  Uiso   1.00
Cl264  Cl    0.46115   0.60904   0.40684   0.00000  Uiso   1.00
Cl265  Cl    0.48221   0.63827   0.49989   0.00000  Uiso   1.00
Cl266  Cl    0.45004   0.43162   0.40008   0.00000  Uiso   1.00
Cl267  Cl    0.36194   0.53739   0.19316   0.00000  Uiso   1.00
H268   H     0.54767   0.39659   0.49815   0.00000  Uiso   1.00
H269   H     0.50922   0.57273   0.02922   0.00000  Uiso   1.00
H270   H     0.53750   0.39703   0.10260   0.00000  Uiso   1.00
H271   H     0.57750   0.39132   0.05631   0.00000  Uiso   1.00
H272   H     0.65311   0.48163   0.33071   0.00000  Uiso   1.00
H273   H     0.65483   0.43755   0.29587   0.00000  Uiso   1.00
H274   H     0.45270   0.34439   0.32998   0.00000  Uiso   1.00
H275   H     0.42114   0.33595   0.29379   0.00000  Uiso   1.00
N276   N     0.56173   0.41345   0.07957   0.00000  Uiso   1.00
N277   N     0.64690   0.46790   0.30045   0.00000  Uiso   1.00
N278   N     0.44954   0.66241   0.29916   0.00000  Uiso   1.00
O279   O     0.50000   0.50000   0.25000   0.00000  Uiso   1.00
O280   O     0.48784   0.45970   0.15458   0.00000  Uiso   1.00
O281   O     0.46274   0.53724   0.34968   0.00000  Uiso   1.00
O282   O     0.54157   0.51092   0.14606   0.00000  Uiso   1.00
O283   O     0.50785   0.49213   0.34968   0.00000  Uiso   1.00
O284   O     0.51264   0.41352   0.28213   0.00000  Uiso   1.00
O285   O     0.47965   0.59418   0.27013   0.00000  Uiso   1.00
O286   O     0.40745   0.46625   0.23413   0.00000  Uiso   1.00
O287   O     0.60026   0.52605   0.21360   0.00000  Uiso   1.00
O288   O     0.40405   0.52211   0.28213   0.00000  Uiso   1.00
O289   O     0.58824   0.48559   0.27013   0.00000  Uiso   1.00
O290   O     0.47093   0.40277   0.23413   0.00000  Uiso   1.00
O291   O     0.53678   0.58953   0.21360   0.00000  Uiso   1.00
Zn292  Zn    0.52672   0.47327   0.28734   0.00000  Uiso   1.00
Zn293  Zn    0.46713   0.45791   0.21875   0.00000  Uiso   1.00
Zn294  Zn    0.54389   0.53109   0.20657   0.00000  Uiso   1.00
Zn295  Zn    0.46226   0.53773   0.28733   0.00000  Uiso   1.00
C296   C     0.71969   0.49320   0.25979   0.00000  Uiso   1.00
C297   C     0.83744   0.49795   0.06039   0.00000  Uiso   1.00
C298   C     0.87508   0.43826   0.05776   0.00000  Uiso   1.00
C299   C     0.94733   0.50705   0.24012   0.00000  Uiso   1.00
C300   C     0.81031   0.52974   0.41973   0.00000  Uiso   1.00
C301   C     0.99310   0.50929   0.23627   0.00000  Uiso   1.00
C302   C     0.67454   0.49043   0.26459   0.00000  Uiso   1.00
C303   C     0.84618   0.65562   0.23665   0.00000  Uiso   1.00
C304   C     0.81779   0.34576   0.26448   0.00000  Uiso   1.00
C305   C     0.82271   0.38950   0.26021   0.00000  Uiso   1.00
C306   C     0.84299   0.61119   0.24027   0.00000  Uiso   1.00
C307   C     0.81642   0.58596   0.47802   0.00000  Uiso   1.00
C308   C     0.85212   0.48097   0.12943   0.00000  Uiso   1.00
C309   C     0.81521   0.51843   0.37101   0.00000  Uiso   1.00
C310   C     0.87009   0.42563   0.01446   0.00000  Uiso   1.00
C311   C     0.85723   0.47366   0.08115   0.00000  Uiso   1.00
C312   C     0.80672   0.57184   0.43707   0.00000  Uiso   1.00
C313   C     0.82944   0.55912   0.00150   0.00000  Uiso   1.00
C314   C     0.82739   0.51624   0.48863   0.00000  Uiso   1.00
C315   C     0.81738   0.50105   0.44731   0.00000  Uiso   1.00
C316   C     0.83846   0.48861   0.01432   0.00000  Uiso   1.00
C317   C     0.84987   0.44941   0.49338   0.00000  Uiso   1.00
C318   C     0.83796   0.43377   0.45350   0.00000  Uiso   1.00
C319   C     0.81655   0.45781   0.43433   0.00000  Uiso   1.00
Cl320  Cl    0.88873   0.34440   0.19434   0.00000  Uiso   1.00
Cl321  Cl    0.84671   0.38313   0.42853   0.00000  Uiso   1.00
Cl322  Cl    0.80210   0.53197   0.09562   0.00000  Uiso   1.00
Cl323  Cl    0.79448   0.60904   0.40684   0.00000  Uiso   1.00
Cl324  Cl    0.81554   0.63827   0.49989   0.00000  Uiso   1.00
Cl325  Cl    0.78337   0.43162   0.40008   0.00000  Uiso   1.00
Cl326  Cl    0.69527   0.53739   0.19316   0.00000  Uiso   1.00
H327   H     0.88101   0.39659   0.49815   0.00000  Uiso   1.00
H328   H     0.84255   0.57273   0.02922   0.00000  Uiso   1.00
H329   H     0.87083   0.39703   0.10260   0.00000  Uiso   1.00
H330   H     0.91084   0.39132   0.05631   0.00000  Uiso   1.00
H331   H     0.98644   0.48163   0.33071   0.00000  Uiso   1.00
H332   H     0.98816   0.43755   0.29587   0.00000  Uiso   1.00
H333   H     0.78603   0.34439   0.32998   0.00000  Uiso   1.00
H334   H     0.75448   0.33595   0.29379   0.00000  Uiso   1.00
N335   N     0.89506   0.41345   0.07957   0.00000  Uiso   1.00
N336   N     0.98023   0.46790   0.30045   0.00000  Uiso   1.00
N337   N     0.78287   0.66241   0.29916   0.00000  Uiso   1.00
O338   O     0.83333   0.50000   0.25000   0.00000  Uiso   1.00
O339   O     0.82118   0.45970   0.15458   0.00000  Uiso   1.00
O340   O     0.79607   0.53724   0.34968   0.00000  Uiso   1.00
O341   O     0.87491   0.51092   0.14606   0.00000  Uiso   1.00
O342   O     0.84118   0.49213   0.34968   0.00000  Uiso   1.00
O343   O     0.84597   0.41352   0.28213   0.00000  Uiso   1.00
O344   O     0.81298   0.59418   0.27013   0.00000  Uiso   1.00
O345   O     0.74078   0.46625   0.23413   0.00000  Uiso   1.00
O346   O     0.93360   0.52605   0.21360   0.00000  Uiso   1.00
O347   O     0.73738   0.52211   0.28213   0.00000  Uiso   1.00
O348   O     0.92158   0.48559   0.27013   0.00000  Uiso   1.00
O349   O     0.80426   0.40277   0.23413   0.00000  Uiso   1.00
O350   O     0.87012   0.58953   0.21360   0.00000  Uiso   1.00
Zn351  Zn    0.86005   0.47327   0.28734   0.00000  Uiso   1.00
Zn352  Zn    0.80046   0.45791   0.21875   0.00000  Uiso   1.00
Zn353  Zn    0.87723   0.53109   0.20657   0.00000  Uiso   1.00
Zn354  Zn    0.79560   0.53773   0.28733   0.00000  Uiso   1.00
C355   C     0.05302   0.82653   0.25979   0.00000  Uiso   1.00
C356   C     0.17077   0.83128   0.06039   0.00000  Uiso   1.00
C357   C     0.20841   0.77159   0.05776   0.00000  Uiso   1.00
C358   C     0.28067   0.84038   0.24012   0.00000  Uiso   1.00
C359   C     0.14364   0.86308   0.41973   0.00000  Uiso   1.00
C360   C     0.32643   0.84262   0.23627   0.00000  Uiso   1.00
C361   C     0.00787   0.82376   0.26459   0.00000  Uiso   1.00
C362   C     0.17951   0.98895   0.23665   0.00000  Uiso   1.00
C363   C     0.15112   0.67910   0.26448   0.00000  Uiso   1.00
C364   C     0.15604   0.72283   0.26021   0.00000  Uiso   1.00
C365   C     0.17633   0.94452   0.24027   0.00000  Uiso   1.00
C366   C     0.14975   0.91929   0.47802   0.00000  Uiso   1.00
C367   C     0.18546   0.81431   0.12943   0.00000  Uiso   1.00
C368   C     0.14855   0.85176   0.37101   0.00000  Uiso   1.00
C369   C     0.20342   0.75896   0.01446   0.00000  Uiso   1.00
C370   C     0.19056   0.80699   0.08115   0.00000  Uiso   1.00
C371   C     0.14005   0.90517   0.43707   0.00000  Uiso   1.00
C372   C     0.16277   0.89245   0.00150   0.00000  Uiso   1.00
C373   C     0.16072   0.84958   0.48863   0.00000  Uiso   1.00
C374   C     0.15071   0.83438   0.44731   0.00000  Uiso   1.00
C375   C     0.17179   0.82195   0.01432   0.00000  Uiso   1.00
C376   C     0.18321   0.78274   0.49338   0.00000  Uiso   1.00
C377   C     0.17130   0.76710   0.45350   0.00000  Uiso   1.00
C378   C     0.14989   0.79115   0.43433   0.00000  Uiso   1.00
Cl379  Cl    0.22206   0.67773   0.19434   0.00000  Uiso   1.00
Cl380  Cl    0.18004   0.71646   0.42853   0.00000  Uiso   1.00
Cl381  Cl    0.13543   0.86531   0.09562   0.00000  Uiso   1.00
Cl382  Cl    0.12782   0.94237   0.40684   0.00000  Uiso   1.00
Cl383  Cl    0.14887   0.97160   0.49989   0.00000  Uiso   1.00
Cl384  Cl    0.11671   0.76496   0.40008   0.00000  Uiso   1.00
Cl385  Cl    0.02861   0.87072   0.19316   0.00000  Uiso   1.00
H386   H     0.21434   0.72992   0.49815   0.00000  Uiso   1.00
H387   H     0.17588   0.90606   0.02922   0.00000  Uiso   1.00
H388   H     0.20416   0.73036   0.10260   0.00000  Uiso   1.00
H389   H     0.24417   0.72466   0.05631   0.00000  Uiso   1.00
H390   H     0.31978   0.81496   0.33071   0.00000  Uiso   1.00
H391   H     0.32150   0.77088   0.29587   0.00000  Uiso   1.00
H392   H     0.11936   0.67772   0.32998   0.00000  Uiso   1.00
H393   H     0.08781   0.66928   0.29379   0.00000  Uiso   1.00
N394   N     0.22839   0.74678   0.07957   0.00000  Uiso   1.00
N395   N     0.31357   0.80123   0.30045   0.00000  Uiso   1.00
N396   N     0.11621   0.99575   0.29916   0.00000  Uiso   1.00
O397   O     0.16667   0.83333   0.25000   0.00000  Uiso   1.00
O398   O     0.15451   0.79304   0.15458   0.00000  Uiso   1.00
O399   O     0.12940   0.87058   0.34968   0.00000  Uiso   1.00
O400   O     0.20824   0.84425   0.14606   0.00000  Uiso   1.00
O401   O     0.17451   0.82546   0.34968   0.00000  Uiso   1.00
O402   O     0.17930   0.74686   0.28213   0.00000  Uiso   1.00
O403   O     0.14632   0.92751   0.27013   0.00000  Uiso   1.00
O404   O     0.07412   0.79958   0.23413   0.00000  Uiso   1.00
O405   O     0.26693   0.85939   0.21360   0.00000  Uiso   1.00
O406   O     0.07071   0.85544   0.28213   0.00000  Uiso   1.00
O407   O     0.25491   0.81892   0.27013   0.00000  Uiso   1.00
O408   O     0.13760   0.73610   0.23413   0.00000  Uiso   1.00
O409   O     0.20345   0.92286   0.21360   0.00000  Uiso   1.00
Zn410  Zn    0.19338   0.80661   0.28734   0.00000  Uiso   1.00
Zn411  Zn    0.13379   0.79124   0.21875   0.00000  Uiso   1.00
Zn412  Zn    0.21056   0.86442   0.20657   0.00000  Uiso   1.00
Zn413  Zn    0.12893   0.87106   0.28733   0.00000  Uiso   1.00
C414   C     0.38635   0.82653   0.25979   0.00000  Uiso   1.00
C415   C     0.50411   0.83128   0.06039   0.00000  Uiso   1.00
C416   C     0.54175   0.77159   0.05776   0.00000  Uiso   1.00
C417   C     0.61400   0.84038   0.24012   0.00000  Uiso   1.00
C418   C     0.47697   0.86308   0.41973   0.00000  Uiso   1.00
C419   C     0.65977   0.84262   0.23627   0.00000  Uiso   1.00
C420   C     0.34120   0.82376   0.26459   0.00000  Uiso   1.00
C421   C     0.51284   0.98895   0.23665   0.00000  Uiso   1.00
C422   C     0.48446   0.67910   0.26448   0.00000  Uiso   1.00
C423   C     0.48937   0.72283   0.26021   0.00000  Uiso   1.00
C424   C     0.50966   0.94452   0.24027   0.00000  Uiso   1.00
C425   C     0.48308   0.91929   0.47802   0.00000  Uiso   1.00
C426   C     0.51879   0.81431   0.12943   0.00000  Uiso   1.00
C427   C     0.48188   0.85176   0.37101   0.00000  Uiso   1.00
C428   C     0.53675   0.75896   0.01446   0.00000  Uiso   1.00
C429   C     0.52389   0.80699   0.08115   0.00000  Uiso   1.00
C430   C     0.47339   0.90517   0.43707   0.00000  Uiso   1.00
C431   C     0.49610   0.89245   0.00150   0.00000  Uiso   1.00
C432   C     0.49406   0.84958   0.48863   0.00000  Uiso   1.00
C433   C     0.48404   0.83438   0.44731   0.00000  Uiso   1.00
C434   C     0.50513   0.82195   0.01432   0.00000  Uiso   1.00
C435   C     0.51654   0.78274   0.49338   0.00000  Uiso   1.00
C436   C     0.50463   0.76710   0.45350   0.00000  Uiso   1.00
C437   C     0.48322   0.79115   0.43433   0.00000  Uiso   1.00
Cl438  Cl    0.55539   0.67773   0.19434   0.00000  Uiso   1.00
Cl439  Cl    0.51337   0.71646   0.42853   0.00000  Uiso   1.00
Cl440  Cl    0.46877   0.86531   0.09562   0.00000  Uiso   1.00
Cl441  Cl    0.46115   0.94237   0.40684   0.00000  Uiso   1.00
Cl442  Cl    0.48221   0.97160   0.49989   0.00000  Uiso   1.00
Cl443  Cl    0.45004   0.76496   0.40008   0.00000  Uiso   1.00
Cl444  Cl    0.36194   0.87072   0.19316   0.00000  Uiso   1.00
H445   H     0.54767   0.72992   0.49815   0.00000  Uiso   1.00
H446   H     0.50922   0.90606   0.02922   0.00000  Uiso   1.00
H447   H     0.53750   0.73036   0.10260   0.00000  Uiso   1.00
H448   H     0.57750   0.72466   0.05631   0.00000  Uiso   1.00
H449   H     0.65311   0.81496   0.33071   0.00000  Uiso   1.00
H450   H     0.65483   0.77088   0.29587   0.00000  Uiso   1.00
H451   H     0.45270   0.67772   0.32998   0.00000  Uiso   1.00
H452   H     0.42114   0.66928   0.29379   0.00000  Uiso   1.00
N453   N     0.56173   0.74678   0.07957   0.00000  Uiso   1.00
N454   N     0.64690   0.80123   0.30045   0.00000  Uiso   1.00
N455   N     0.44954   0.99575   0.29916   0.00000  Uiso   1.00
O456   O     0.50000   0.83333   0.25000   0.00000  Uiso   1.00
O457   O     0.48784   0.79304   0.15458   0.00000  Uiso   1.00
O458   O     0.46274   0.87058   0.34968   0.00000  Uiso   1.00
O459   O     0.54157   0.84425   0.14606   0.00000  Uiso   1.00
O460   O     0.50785   0.82546   0.34968   0.00000  Uiso   1.00
O461   O     0.51264   0.74686   0.28213   0.00000  Uiso   1.00
O462   O     0.47965   0.92751   0.27013   0.00000  Uiso   1.00
O463   O     0.40745   0.79958   0.23413   0.00000  Uiso   1.00
O464   O     0.60026   0.85939   0.21360   0.00000  Uiso   1.00
O465   O     0.40405   0.85544   0.28213   0.00000  Uiso   1.00
O466   O     0.58824   0.81892   0.27013   0.00000  Uiso   1.00
O467   O     0.47093   0.73610   0.23413   0.00000  Uiso   1.00
O468   O     0.53678   0.92286   0.21360   0.00000  Uiso   1.00
Zn469  Zn    0.52672   0.80661   0.28734   0.00000  Uiso   1.00
Zn470  Zn    0.46713   0.79124   0.21875   0.00000  Uiso   1.00
Zn471  Zn    0.54389   0.86442   0.20657   0.00000  Uiso   1.00
Zn472  Zn    0.46226   0.87106   0.28733   0.00000  Uiso   1.00
C473   C     0.71969   0.82653   0.25979   0.00000  Uiso   1.00
C474   C     0.83744   0.83128   0.06039   0.00000  Uiso   1.00
C475   C     0.87508   0.77159   0.05776   0.00000  Uiso   1.00
C476   C     0.94733   0.84038   0.24012   0.00000  Uiso   1.00
C477   C     0.81031   0.86308   0.41973   0.00000  Uiso   1.00
C478   C     0.99310   0.84262   0.23627   0.00000  Uiso   1.00
C479   C     0.67454   0.82376   0.26459   0.00000  Uiso   1.00
C480   C     0.84618   0.98895   0.23665   0.00000  Uiso   1.00
C481   C     0.81779   0.67910   0.26448   0.00000  Uiso   1.00
C482   C     0.82271   0.72283   0.26021   0.00000  Uiso   1.00
C483   C     0.84299   0.94452   0.24027   0.00000  Uiso   1.00
C484   C     0.81642   0.91929   0.47802   0.00000  Uiso   1.00
C485   C     0.85212   0.81431   0.12943   0.00000  Uiso   1.00
C486   C     0.81521   0.85176   0.37101   0.00000  Uiso   1.00
C487   C     0.87009   0.75896   0.01446   0.00000  Uiso   1.00
C488   C     0.85723   0.80699   0.08115   0.00000  Uiso   1.00
C489   C     0.80672   0.90517   0.43707   0.00000  Uiso   1.00
C490   C     0.82944   0.89245   0.00150   0.00000  Uiso   1.00
C491   C     0.82739   0.84958   0.48863   0.00000  Uiso   1.00
C492   C     0.81738   0.83438   0.44731   0.00000  Uiso   1.00
C493   C     0.83846   0.82195   0.01432   0.00000  Uiso   1.00
C494   C     0.84987   0.78274   0.49338   0.00000  Uiso   1.00
C495   C     0.83796   0.76710   0.45350   0.00000  Uiso   1.00
C496   C     0.81655   0.79115   0.43433   0.00000  Uiso   1.00
Cl497  Cl    0.88873   0.67773   0.19434   0.00000  Uiso   1.00
Cl498  Cl    0.84671   0.71646   0.42853   0.00000  Uiso   1.00
Cl499  Cl    0.80210   0.86531   0.09562   0.00000  Uiso   1.00
Cl500  Cl    0.79448   0.94237   0.40684   0.00000  Uiso   1.00
Cl501  Cl    0.81554   0.97160   0.49989   0.00000  Uiso   1.00
Cl502  Cl    0.78337   0.76496   0.40008   0.00000  Uiso   1.00
Cl503  Cl    0.69527   0.87072   0.19316   0.00000  Uiso   1.00
H504   H     0.88101   0.72992   0.49815   0.00000  Uiso   1.00
H505   H     0.84255   0.90606   0.02922   0.00000  Uiso   1.00
H506   H     0.87083   0.73036   0.10260   0.00000  Uiso   1.00
H507   H     0.91084   0.72466   0.05631   0.00000  Uiso   1.00
H508   H     0.98644   0.81496   0.33071   0.00000  Uiso   1.00
H509   H     0.98816   0.77088   0.29587   0.00000  Uiso   1.00
H510   H     0.78603   0.67772   0.32998   0.00000  Uiso   1.00
H511   H     0.75448   0.66928   0.29379   0.00000  Uiso   1.00
N512   N     0.89506   0.74678   0.07957   0.00000  Uiso   1.00
N513   N     0.98023   0.80123   0.30045   0.00000  Uiso   1.00
N514   N     0.78287   0.99575   0.29916   0.00000  Uiso   1.00
O515   O     0.83333   0.83333   0.25000   0.00000  Uiso   1.00
O516   O     0.82118   0.79304   0.15458   0.00000  Uiso   1.00
O517   O     0.79607   0.87058   0.34968   0.00000  Uiso   1.00
O518   O     0.87491   0.84425   0.14606   0.00000  Uiso   1.00
O519   O     0.84118   0.82546   0.34968   0.00000  Uiso   1.00
O520   O     0.84597   0.74686   0.28213   0.00000  Uiso   1.00
O521   O     0.81298   0.92751   0.27013   0.00000  Uiso   1.00
O522   O     0.74078   0.79958   0.23413   0.00000  Uiso   1.00
O523   O     0.93360   0.85939   0.21360   0.00000  Uiso   1.00
O524   O     0.73738   0.85544   0.28213   0.00000  Uiso   1.00
O525   O     0.92158   0.81892   0.27013   0.00000  Uiso   1.00
O526   O     0.80426   0.73610   0.23413   0.00000  Uiso   1.00
O527   O     0.87012   0.92286   0.21360   0.00000  Uiso   1.00
Zn528  Zn    0.86005   0.80661   0.28734   0.00000  Uiso   1.00
Zn529  Zn    0.80046   0.79124   0.21875   0.00000  Uiso   1.00
Zn530  Zn    0.87723   0.86442   0.20657   0.00000  Uiso   1.00
Zn531  Zn    0.79560   0.87106   0.28733   0.00000  Uiso   1.00
C532   C     0.05302   0.15986   0.75979   0.00000  Uiso   1.00
C533   C     0.17077   0.16462   0.56039   0.00000  Uiso   1.00
C534   C     0.20841   0.10492   0.55776   0.00000  Uiso   1.00
C535   C     0.28067   0.17372   0.74012   0.00000  Uiso   1.00
C536   C     0.14364   0.19641   0.91973   0.00000  Uiso   1.00
C537   C     0.32643   0.17596   0.73627   0.00000  Uiso   1.00
C538   C     0.00787   0.15709   0.76459   0.00000  Uiso   1.00
C539   C     0.17951   0.32229   0.73665   0.00000  Uiso   1.00
C540   C     0.15112   0.01243   0.76448   0.00000  Uiso   1.00
C541   C     0.15604   0.05617   0.76021   0.00000  Uiso   1.00
C542   C     0.17633   0.27786   0.74027   0.00000  Uiso   1.00
C543   C     0.14975   0.25263   0.97802   0.00000  Uiso   1.00
C544   C     0.18546   0.14764   0.62943   0.00000  Uiso   1.00
C545   C     0.14855   0.18510   0.87101   0.00000  Uiso   1.00
C546   C     0.20342   0.09229   0.51446   0.00000  Uiso   1.00
C547   C     0.19056   0.14032   0.58115   0.00000  Uiso   1.00
C548   C     0.14005   0.23850   0.93707   0.00000  Uiso   1.00
C549   C     0.16277   0.22579   0.50150   0.00000  Uiso   1.00
C550   C     0.16072   0.18291   0.98863   0.00000  Uiso   1.00
C551   C     0.15071   0.16771   0.94731   0.00000  Uiso   1.00
C552   C     0.17179   0.15528   0.51432   0.00000  Uiso   1.00
C553   C     0.18321   0.11608   0.99338   0.00000  Uiso   1.00
C554   C     0.17130   0.10043   0.95350   0.00000  Uiso   1.00
C555   C     0.14989   0.12448   0.93433   0.00000  Uiso   1.00
Cl556  Cl    0.22206   0.01107   0.69434   0.00000  Uiso   1.00
Cl557  Cl    0.18004   0.04979   0.92853   0.00000  Uiso   1.00
Cl558  Cl    0.13543   0.19864   0.59562   0.00000  Uiso   1.00
Cl559  Cl    0.12782   0.27570   0.90684   0.00000  Uiso   1.00
Cl560  Cl    0.14887   0.30493   0.99989   0.00000  Uiso   1.00
Cl561  Cl    0.11671   0.09829   0.90008   0.00000  Uiso   1.00
Cl562  Cl    0.02861   0.20406   0.69316   0.00000  Uiso   1.00
H563   H     0.21434   0.06326   0.99815   0.00000  Uiso   1.00
H564   H     0.17588   0.23940   0.52922   0.00000  Uiso   1.00
H565   H     0.20416   0.06370   0.60260   0.00000  Uiso   1.00
H566   H     0.24417   0.05799   0.55631   0.00000  Uiso   1.00
H567   H     0.31978   0.14830   0.83071   0.00000  Uiso   1.00
H568   H     0.32150   0.10421   0.79587   0.00000  Uiso   1.00
H569   H     0.11936   0.01105   0.82998   0.00000  Uiso   1.00
H570   H     0.08781   0.00261   0.79379   0.00000  Uiso   1.00
N571   N     0.22839   0.08011   0.57957   0.00000  Uiso   1.00
N572   N     0.31357   0.13456   0.80045   0.00000  Uiso   1.00
N573   N     0.11621   0.32908   0.79916   0.00000  Uiso   1.00
O574   O     0.16667   0.16667   0.75000   0.00000  Uiso   1.00
O575   O     0.15451   0.12637   0.65458   0.00000  Uiso   1.00
O576   O     0.12940   0.20391   0.84968   0.00000  Uiso   1.00
O577   O     0.20824   0.17759   0.64606   0.00000  Uiso   1.00
O578   O     0.17451   0.15880   0.84968   0.00000  Uiso   1.00
O579   O     0.17930   0.08019   0.78213   0.00000  Uiso   1.00
O580   O     0.14632   0.26085   0.77013   0.00000  Uiso   1.00
O581   O     0.07412   0.13291   0.73413   0.00000  Uiso   1.00
O582   O     0.26693   0.19272   0.71360   0.00000  Uiso   1.00
O583   O     0.07071   0.18878   0.78213   0.00000  Uiso   1.00
O584   O     0.25491   0.15226   0.77013   0.00000  Uiso   1.00
O585   O     0.13760   0.06944   0.73413   0.00000  Uiso   1.00
O586   O     0.20345   0.25620   0.71360   0.00000  Uiso   1.00
Zn587  Zn    0.19338   0.13994   0.78734   0.00000  Uiso   1.00
Zn588  Zn    0.13379   0.12458   0.71875   0.00000  Uiso   1.00
Zn589  Zn    0.21056   0.19775   0.70657   0.00000  Uiso   1.00
Zn590  Zn    0.12893   0.20439   0.78733   0.00000  Uiso   1.00
C591   C     0.38635   0.15986   0.75979   0.00000  Uiso   1.00
C592   C     0.50411   0.16462   0.56039   0.00000  Uiso   1.00
C593   C     0.54175   0.10492   0.55776   0.00000  Uiso   1.00
C594   C     0.61400   0.17372   0.74012   0.00000  Uiso   1.00
C595   C     0.47697   0.19641   0.91973   0.00000  Uiso   1.00
C596   C     0.65977   0.17596   0.73627   0.00000  Uiso   1.00
C597   C     0.34120   0.15709   0.76459   0.00000  Uiso   1.00
C598   C     0.51284   0.32229   0.73665   0.00000  Uiso   1.00
C599   C     0.48446   0.01243   0.76448   0.00000  Uiso   1.00
C600   C     0.48937   0.05617   0.76021   0.00000  Uiso   1.00
C601   C     0.50966   0.27786   0.74027   0.00000  Uiso   1.00
C602   C     0.48308   0.25263   0.97802   0.00000  Uiso   1.00
C603   C     0.51879   0.14764   0.62943   0.00000  Uiso   1.00
C604   C     0.48188   0.18510   0.87101   0.00000  Uiso   1.00
C605   C     0.53675   0.09229   0.51446   0.00000  Uiso   1.00
C606   C     0.52389   0.14032   0.58115   0.00000  Uiso   1.00
C607   C     0.47339   0.23850   0.93707   0.00000  Uiso   1.00
C608   C     0.49610   0.22579   0.50150   0.00000  Uiso   1.00
C609   C     0.49406   0.18291   0.98863   0.00000  Uiso   1.00
C610   C     0.48404   0.16771   0.94731   0.00000  Uiso   1.00
C611   C     0.50513   0.15528   0.51432   0.00000  Uiso   1.00
C612   C     0.51654   0.11608   0.99338   0.00000  Uiso   1.00
C613   C     0.50463   0.10043   0.95350   0.00000  Uiso   1.00
C614   C     0.48322   0.12448   0.93433   0.00000  Uiso   1.00
Cl615  Cl    0.55539   0.01107   0.69434   0.00000  Uiso   1.00
Cl616  Cl    0.51337   0.04979   0.92853   0.00000  Uiso   1.00
Cl617  Cl    0.46877   0.19864   0.59562   0.00000  Uiso   1.00
Cl618  Cl    0.46115   0.27570   0.90684   0.00000  Uiso   1.00
Cl619  Cl    0.48221   0.30493   0.99989   0.00000  Uiso   1.00
Cl620  Cl    0.45004   0.09829   0.90008   0.00000  Uiso   1.00
Cl621  Cl    0.36194   0.20406   0.69316   0.00000  Uiso   1.00
H622   H     0.54767   0.06326   0.99815   0.00000  Uiso   1.00
H623   H     0.50922   0.23940   0.52922   0.00000  Uiso   1.00
H624   H     0.53750   0.06370   0.60260   0.00000  Uiso   1.00
H625   H     0.57750   0.05799   0.55631   0.00000  Uiso   1.00
H626   H     0.65311   0.14830   0.83071   0.00000  Uiso   1.00
H627   H     0.65483   0.10421   0.79587   0.00000  Uiso   1.00
H628   H     0.45270   0.01105   0.82998   0.00000  Uiso   1.00
H629   H     0.42114   0.00261   0.79379   0.00000  Uiso   1.00
N630   N     0.56173   0.08011   0.57957   0.00000  Uiso   1.00
N631   N     0.64690   0.13456   0.80045   0.00000  Uiso   1.00
N632   N     0.44954   0.32908   0.79916   0.00000  Uiso   1.00
O633   O     0.50000   0.16667   0.75000   0.00000  Uiso   1.00
O634   O     0.48784   0.12637   0.65458   0.00000  Uiso   1.00
O635   O     0.46274   0.20391   0.84968   0.00000  Uiso   1.00
O636   O     0.54157   0.17759   0.64606   0.00000  Uiso   1.00
O637   O     0.50785   0.15880   0.84968   0.00000  Uiso   1.00
O638   O     0.51264   0.08019   0.78213   0.00000  Uiso   1.00
O639   O     0.47965   0.26085   0.77013   0.00000  Uiso   1.00
O640   O     0.40745   0.13291   0.73413   0.00000  Uiso   1.00
O641   O     0.60026   0.19272   0.71360   0.00000  Uiso   1.00
O642   O     0.40405   0.18878   0.78213   0.00000  Uiso   1.00
O643   O     0.58824   0.15226   0.77013   0.00000  Uiso   1.00
O644   O     0.47093   0.06944   0.73413   0.00000  Uiso   1.00
O645   O     0.53678   0.25620   0.71360   0.00000  Uiso   1.00
Zn646  Zn    0.52672   0.13994   0.78734   0.00000  Uiso   1.00
Zn647  Zn    0.46713   0.12458   0.71875   0.00000  Uiso   1.00
Zn648  Zn    0.54389   0.19775   0.70657   0.00000  Uiso   1.00
Zn649  Zn    0.46226   0.20439   0.78733   0.00000  Uiso   1.00
C650   C     0.71969   0.15986   0.75979   0.00000  Uiso   1.00
C651   C     0.83744   0.16462   0.56039   0.00000  Uiso   1.00
C652   C     0.87508   0.10492   0.55776   0.00000  Uiso   1.00
C653   C     0.94733   0.17372   0.74012   0.00000  Uiso   1.00
C654   C     0.81031   0.19641   0.91973   0.00000  Uiso   1.00
C655   C     0.99310   0.17596   0.73627   0.00000  Uiso   1.00
C656   C     0.67454   0.15709   0.76459   0.00000  Uiso   1.00
C657   C     0.84618   0.32229   0.73665   0.00000  Uiso   1.00
C658   C     0.81779   0.01243   0.76448   0.00000  Uiso   1.00
C659   C     0.82271   0.05617   0.76021   0.00000  Uiso   1.00
C660   C     0.84299   0.27786   0.74027   0.00000  Uiso   1.00
C661   C     0.81642   0.25263   0.97802   0.00000  Uiso   1.00
C662   C     0.85212   0.14764   0.62943   0.00000  Uiso   1.00
C663   C     0.81521   0.18510   0.87101   0.00000  Uiso   1.00
C664   C     0.87009   0.09229   0.51446   0.00000  Uiso   1.00
C665   C     0.85723   0.14032   0.58115   0.00000  Uiso   1.00
C666   C     0.80672   0.23850   0.93707   0.00000  Uiso   1.00
C667   C     0.82944   0.22579   0.50150   0.00000  Uiso   1.00
C668   C     0.82739   0.18291   0.98863   0.00000  Uiso   1.00
C669   C     0.81738   0.16771   0.94731   0.00000  Uiso   1.00
C670   C     0.83846   0.15528   0.51432   0.00000  Uiso   1.00
C671   C     0.84987   0.11608   0.99338   0.00000  Uiso   1.00
C672   C     0.83796   0.10043   0.95350   0.00000  Uiso   1.00
C673   C     0.81655   0.12448   0.93433   0.00000  Uiso   1.00
Cl674  Cl    0.88873   0.01107   0.69434   0.00000  Uiso   1.00
Cl675  Cl    0.84671   0.04979   0.92853   0.00000  Uiso   1.00
Cl676  Cl    0.80210   0.19864   0.59562   0.00000  Uiso   1.00
Cl677  Cl    0.79448   0.27570   0.90684   0.00000  Uiso   1.00
Cl678  Cl    0.81554   0.30493   0.99989   0.00000  Uiso   1.00
Cl679  Cl    0.78337   0.09829   0.90008   0.00000  Uiso   1.00
Cl680  Cl    0.69527   0.20406   0.69316   0.00000  Uiso   1.00
H681   H     0.88101   0.06326   0.99815   0.00000  Uiso   1.00
H682   H     0.84255   0.23940   0.52922   0.00000  Uiso   1.00
H683   H     0.87083   0.06370   0.60260   0.00000  Uiso   1.00
H684   H     0.91084   0.05799   0.55631   0.00000  Uiso   1.00
H685   H     0.98644   0.14830   0.83071   0.00000  Uiso   1.00
H686   H     0.98816   0.10421   0.79587   0.00000  Uiso   1.00
H687   H     0.78603   0.01105   0.82998   0.00000  Uiso   1.00
H688   H     0.75448   0.00261   0.79379   0.00000  Uiso   1.00
N689   N     0.89506   0.08011   0.57957   0.00000  Uiso   1.00
N690   N     0.98023   0.13456   0.80045   0.00000  Uiso   1.00
N691   N     0.78287   0.32908   0.79916   0.00000  Uiso   1.00
O692   O     0.83333   0.16667   0.75000   0.00000  Uiso   1.00
O693   O     0.82118   0.12637   0.65458   0.00000  Uiso   1.00
O694   O     0.79607   0.20391   0.84968   0.00000  Uiso   1.00
O695   O     0.87491   0.17759   0.64606   0.00000  Uiso   1.00
O696   O     0.84118   0.15880   0.84968   0.00000  Uiso   1.00
O697   O     0.84597   0.08019   0.78213   0.00000  Uiso   1.00
O698   O     0.81298   0.26085   0.77013   0.00000  Uiso   1.00
O699   O     0.74078   0.13291   0.73413   0.00000  Uiso   1.00
O700   O     0.93360   0.19272   0.71360   0.00000  Uiso   1.00
O701   O     0.73738   0.18878   0.78213   0.00000  Uiso   1.00
O702   O     0.92158   0.15226   0.77013   0.00000  Uiso   1.00
O703   O     0.80426   0.06944   0.73413   0.00000  Uiso   1.00
O704   O     0.87012   0.25620   0.71360   0.00000  Uiso   1.00
Zn705  Zn    0.86005   0.13994   0.78734   0.00000  Uiso   1.00
Zn706  Zn    0.80046   0.12458   0.71875   0.00000  Uiso   1.00
Zn707  Zn    0.87723   0.19775   0.70657   0.00000  Uiso   1.00
Zn708  Zn    0.79560   0.20439   0.78733   0.00000  Uiso   1.00
C709   C     0.05302   0.49320   0.75979   0.00000  Uiso   1.00
C710   C     0.17077   0.49795   0.56039   0.00000  Uiso   1.00
C711   C     0.20841   0.43826   0.55776   0.00000  Uiso   1.00
C712   C     0.28067   0.50705   0.74012   0.00000  Uiso   1.00
C713   C     0.14364   0.52974   0.91973   0.00000  Uiso   1.00
C714   C     0.32643   0.50929   0.73627   0.00000  Uiso   1.00
C715   C     0.00787   0.49043   0.76459   0.00000  Uiso   1.00
C716   C     0.17951   0.65562   0.73665   0.00000  Uiso   1.00
C717   C     0.15112   0.34576   0.76448   0.00000  Uiso   1.00
C718   C     0.15604   0.38950   0.76021   0.00000  Uiso   1.00
C719   C     0.17633   0.61119   0.74027   0.00000  Uiso   1.00
C720   C     0.14975   0.58596   0.97802   0.00000  Uiso   1.00
C721   C     0.18546   0.48097   0.62943   0.00000  Uiso   1.00
C722   C     0.14855   0.51843   0.87101   0.00000  Uiso   1.00
C723   C     0.20342   0.42563   0.51446   0.00000  Uiso   1.00
C724   C     0.19056   0.47366   0.58115   0.00000  Uiso   1.00
C725   C     0.14005   0.57184   0.93707   0.00000  Uiso   1.00
C726   C     0.16277   0.55912   0.50150   0.00000  Uiso   1.00
C727   C     0.16072   0.51624   0.98863   0.00000  Uiso   1.00
C728   C     0.15071   0.50105   0.94731   0.00000  Uiso   1.00
C729   C     0.17179   0.48861   0.51432   0.00000  Uiso   1.00
C730   C     0.18321   0.44941   0.99338   0.00000  Uiso   1.00
C731   C     0.17130   0.43377   0.95350   0.00000  Uiso   1.00
C732   C     0.14989   0.45781   0.93433   0.00000  Uiso   1.00
Cl733  Cl    0.22206   0.34440   0.69434   0.00000  Uiso   1.00
Cl734  Cl    0.18004   0.38313   0.92853   0.00000  Uiso   1.00
Cl735  Cl    0.13543   0.53197   0.59562   0.00000  Uiso   1.00
Cl736  Cl    0.12782   0.60904   0.90684   0.00000  Uiso   1.00
Cl737  Cl    0.14887   0.63827   0.99989   0.00000  Uiso   1.00
Cl738  Cl    0.11671   0.43162   0.90008   0.00000  Uiso   1.00
Cl739  Cl    0.02861   0.53739   0.69316   0.00000  Uiso   1.00
H740   H     0.21434   0.39659   0.99815   0.00000  Uiso   1.00
H741   H     0.17588   0.57273   0.52922   0.00000  Uiso   1.00
H742   H     0.20416   0.39703   0.60260   0.00000  Uiso   1.00
H743   H     0.24417   0.39132   0.55631   0.00000  Uiso   1.00
H744   H     0.31978   0.48163   0.83071   0.00000  Uiso   1.00
H745   H     0.32150   0.43755   0.79587   0.00000  Uiso   1.00
H746   H     0.11936   0.34439   0.82998   0.00000  Uiso   1.00
H747   H     0.08781   0.33595   0.79379   0.00000  Uiso   1.00
N748   N     0.22839   0.41345   0.57957   0.00000  Uiso   1.00
N749   N     0.31357   0.46790   0.80045   0.00000  Uiso   1.00
N750   N     0.11621   0.66241   0.79916   0.00000  Uiso   1.00
O751   O     0.16667   0.50000   0.75000   0.00000  Uiso   1.00
O752   O     0.15451   0.45970   0.65458   0.00000  Uiso   1.00
O753   O     0.12940   0.53724   0.84968   0.00000  Uiso   1.00
O754   O     0.20824   0.51092   0.64606   0.00000  Uiso   1.00
O755   O     0.17451   0.49213   0.84968   0.00000  Uiso   1.00
O756   O     0.17930   0.41352   0.78213   0.00000  Uiso   1.00
O757   O     0.14632   0.59418   0.77013   0.00000  Uiso   1.00
O758   O     0.07412   0.46625   0.73413   0.00000  Uiso   1.00
O759   O     0.26693   0.52605   0.71360   0.00000  Uiso   1.00
O760   O     0.07071   0.52211   0.78213   0.00000  Uiso   1.00
O761   O     0.25491   0.48559   0.77013   0.00000  Uiso   1.00
O762   O     0.13760   0.40277   0.73413   0.00000  Uiso   1.00
O763   O     0.20345   0.58953   0.71360   0.00000  Uiso   1.00
Zn764  Zn    0.19338   0.47327   0.78734   0.00000  Uiso   1.00
Zn765  Zn    0.13379   0.45791   0.71875   0.00000  Uiso   1.00
Zn766  Zn    0.21056   0.53109   0.70657   0.00000  Uiso   1.00
Zn767  Zn    0.12893   0.53773   0.78733   0.00000  Uiso   1.00
C768   C     0.38635   0.49320   0.75979   0.00000  Uiso   1.00
C769   C     0.50411   0.49795   0.56039   0.00000  Uiso   1.00
C770   C     0.54175   0.43826   0.55776   0.00000  Uiso   1.00
C771   C     0.61400   0.50705   0.74012   0.00000  Uiso   1.00
C772   C     0.47697   0.52974   0.91973   0.00000  Uiso   1.00
C773   C     0.65977   0.50929   0.73627   0.00000  Uiso   1.00
C774   C     0.34120   0.49043   0.76459   0.00000  Uiso   1.00
C775   C     0.51284   0.65562   0.73665   0.00000  Uiso   1.00
C776   C     0.48446   0.34576   0.76448   0.00000  Uiso   1.00
C777   C     0.48937   0.38950   0.76021   0.00000  Uiso   1.00
C778   C     0.50966   0.61119   0.74027   0.00000  Uiso   1.00
C779   C     0.48308   0.58596   0.97802   0.00000  Uiso   1.00
C780   C     0.51879   0.48097   0.62943   0.00000  Uiso   1.00
C781   C     0.48188   0.51843   0.87101   0.00000  Uiso   1.00
C782   C     0.53675   0.42563   0.51446   0.00000  Uiso   1.00
C783   C     0.52389   0.47366   0.58115   0.00000  Uiso   1.00
C784   C     0.47339   0.57184   0.93707   0.00000  Uiso   1.00
C785   C     0.49610   0.55912   0.50150   0.00000  Uiso   1.00
C786   C     0.49406   0.51624   0.98863   0.00000  Uiso   1.00
C787   C     0.48404   0.50105   0.94731   0.00000  Uiso   1.00
C788   C     0.50513   0.48861   0.51432   0.00000  Uiso   1.00
C789   C     0.51654   0.44941   0.99338   0.00000  Uiso   1.00
C790   C     0.50463   0.43377   0.95350   0.00000  Uiso   1.00
C791   C     0.48322   0.45781   0.93433   0.00000  Uiso   1.00
Cl792  Cl    0.55539   0.34440   0.69434   0.00000  Uiso   1.00
Cl793  Cl    0.51337   0.38313   0.92853   0.00000  Uiso   1.00
Cl794  Cl    0.46877   0.53197   0.59562   0.00000  Uiso   1.00
Cl795  Cl    0.46115   0.60904   0.90684   0.00000  Uiso   1.00
Cl796  Cl    0.48221   0.63827   0.99989   0.00000  Uiso   1.00
Cl797  Cl    0.45004   0.43162   0.90008   0.00000  Uiso   1.00
Cl798  Cl    0.36194   0.53739   0.69316   0.00000  Uiso   1.00
H799   H     0.54767   0.39659   0.99815   0.00000  Uiso   1.00
H800   H     0.50922   0.57273   0.52922   0.00000  Uiso   1.00
H801   H     0.53750   0.39703   0.60260   0.00000  Uiso   1.00
H802   H     0.57750   0.39132   0.55631   0.00000  Uiso   1.00
H803   H     0.65311   0.48163   0.83071   0.00000  Uiso   1.00
H804   H     0.65483   0.43755   0.79587   0.00000  Uiso   1.00
H805   H     0.45270   0.34439   0.82998   0.00000  Uiso   1.00
H806   H     0.42114   0.33595   0.79379   0.00000  Uiso   1.00
N807   N     0.56173   0.41345   0.57957   0.00000  Uiso   1.00
N808   N     0.64690   0.46790   0.80045   0.00000  Uiso   1.00
N809   N     0.44954   0.66241   0.79916   0.00000  Uiso   1.00
O810   O     0.50000   0.50000   0.75000   0.00000  Uiso   1.00
O811   O     0.48784   0.45970   0.65458   0.00000  Uiso   1.00
O812   O     0.46274   0.53724   0.84968   0.00000  Uiso   1.00
O813   O     0.54157   0.51092   0.64606   0.00000  Uiso   1.00
O814   O     0.50785   0.49213   0.84968   0.00000  Uiso   1.00
O815   O     0.51264   0.41352   0.78213   0.00000  Uiso   1.00
O816   O     0.47965   0.59418   0.77013   0.00000  Uiso   1.00
O817   O     0.40745   0.46625   0.73413   0.00000  Uiso   1.00
O818   O     0.60026   0.52605   0.71360   0.00000  Uiso   1.00
O819   O     0.40405   0.52211   0.78213   0.00000  Uiso   1.00
O820   O     0.58824   0.48559   0.77013   0.00000  Uiso   1.00
O821   O     0.47093   0.40277   0.73413   0.00000  Uiso   1.00
O822   O     0.53678   0.58953   0.71360   0.00000  Uiso   1.00
Zn823  Zn    0.52672   0.47327   0.78734   0.00000  Uiso   1.00
Zn824  Zn    0.46713   0.45791   0.71875   0.00000  Uiso   1.00
Zn825  Zn    0.54389   0.53109   0.70657   0.00000  Uiso   1.00
Zn826  Zn    0.46226   0.53773   0.78733   0.00000  Uiso   1.00
C827   C     0.71969   0.49320   0.75979   0.00000  Uiso   1.00
C828   C     0.83744   0.49795   0.56039   0.00000  Uiso   1.00
C829   C     0.87508   0.43826   0.55776   0.00000  Uiso   1.00
C830   C     0.94733   0.50705   0.74012   0.00000  Uiso   1.00
C831   C     0.81031   0.52974   0.91973   0.00000  Uiso   1.00
C832   C     0.99310   0.50929   0.73627   0.00000  Uiso   1.00
C833   C     0.67454   0.49043   0.76459   0.00000  Uiso   1.00
C834   C     0.84618   0.65562   0.73665   0.00000  Uiso   1.00
C835   C     0.81779   0.34576   0.76448   0.00000  Uiso   1.00
C836   C     0.82271   0.38950   0.76021   0.00000  Uiso   1.00
C837   C     0.84299   0.61119   0.74027   0.00000  Uiso   1.00
C838   C     0.81642   0.58596   0.97802   0.00000  Uiso   1.00
C839   C     0.85212   0.48097   0.62943   0.00000  Uiso   1.00
C840   C     0.81521   0.51843   0.87101   0.00000  Uiso   1.00
C841   C     0.87009   0.42563   0.51446   0.00000  Uiso   1.00
C842   C     0.85723   0.47366   0.58115   0.00000  Uiso   1.00
C843   C     0.80672   0.57184   0.93707   0.00000  Uiso   1.00
C844   C     0.82944   0.55912   0.50150   0.00000  Uiso   1.00
C845   C     0.82739   0.51624   0.98863   0.00000  Uiso   1.00
C846   C     0.81738   0.50105   0.94731   0.00000  Uiso   1.00
C847   C     0.83846   0.48861   0.51432   0.00000  Uiso   1.00
C848   C     0.84987   0.44941   0.99338   0.00000  Uiso   1.00
C849   C     0.83796   0.43377   0.95350   0.00000  Uiso   1.00
C850   C     0.81655   0.45781   0.93433   0.00000  Uiso   1.00
Cl851  Cl    0.88873   0.34440   0.69434   0.00000  Uiso   1.00
Cl852  Cl    0.84671   0.38313   0.92853   0.00000  Uiso   1.00
Cl853  Cl    0.80210   0.53197   0.59562   0.00000  Uiso   1.00
Cl854  Cl    0.79448   0.60904   0.90684   0.00000  Uiso   1.00
Cl855  Cl    0.81554   0.63827   0.99989   0.00000  Uiso   1.00
Cl856  Cl    0.78337   0.43162   0.90008   0.00000  Uiso   1.00
Cl857  Cl    0.69527   0.53739   0.69316   0.00000  Uiso   1.00
H858   H     0.88101   0.39659   0.99815   0.00000  Uiso   1.00
H859   H     0.84255   0.57273   0.52922   0.00000  Uiso   1.00
H860   H     0.87083   0.39703   0.60260   0.00000  Uiso   1.00
H861   H     0.91084   0.39132   0.55631   0.00000  Uiso   1.00
H862   H     0.98644   0.48163   0.83071   0.00000  Uiso   1.00
H863   H     0.98816   0.43755   0.79587   0.00000  Uiso   1.00
H864   H     0.78603   0.34439   0.82998   0.00000  Uiso   1.00
H865   H     0.75448   0.33595   0.79379   0.00000  Uiso   1.00
N866   N     0.89506   0.41345   0.57957   0.00000  Uiso   1.00
N867   N     0.98023   0.46790   0.80045   0.00000  Uiso   1.00
N868   N     0.78287   0.66241   0.79916   0.00000  Uiso   1.00
O869   O     0.83333   0.50000   0.75000   0.00000  Uiso   1.00
O870   O     0.82118   0.45970   0.65458   0.00000  Uiso   1.00
O871   O     0.79607   0.53724   0.84968   0.00000  Uiso   1.00
O872   O     0.87491   0.51092   0.64606   0.00000  Uiso   1.00
O873   O     0.84118   0.49213   0.84968   0.00000  Uiso   1.00
O874   O     0.84597   0.41352   0.78213   0.00000  Uiso   1.00
O875   O     0.81298   0.59418   0.77013   0.00000  Uiso   1.00
O876   O     0.74078   0.46625   0.73413   0.00000  Uiso   1.00
O877   O     0.93360   0.52605   0.71360   0.00000  Uiso   1.00
O878   O     0.73738   0.52211   0.78213   0.00000  Uiso   1.00
O879   O     0.92158   0.48559   0.77013   0.00000  Uiso   1.00
O880   O     0.80426   0.40277   0.73413   0.00000  Uiso   1.00
O881   O     0.87012   0.58953   0.71360   0.00000  Uiso   1.00
Zn882  Zn    0.86005   0.47327   0.78734   0.00000  Uiso   1.00
Zn883  Zn    0.80046   0.45791   0.71875   0.00000  Uiso   1.00
Zn884  Zn    0.87723   0.53109   0.70657   0.00000  Uiso   1.00
Zn885  Zn    0.79560   0.53773   0.78733   0.00000  Uiso   1.00
C886   C     0.05302   0.82653   0.75979   0.00000  Uiso   1.00
C887   C     0.17077   0.83128   0.56039   0.00000  Uiso   1.00
C888   C     0.20841   0.77159   0.55776   0.00000  Uiso   1.00
C889   C     0.28067   0.84038   0.74012   0.00000  Uiso   1.00
C890   C     0.14364   0.86308   0.91973   0.00000  Uiso   1.00
C891   C     0.32643   0.84262   0.73627   0.00000  Uiso   1.00
C892   C     0.00787   0.82376   0.76459   0.00000  Uiso   1.00
C893   C     0.17951   0.98895   0.73665   0.00000  Uiso   1.00
C894   C     0.15112   0.67910   0.76448   0.00000  Uiso   1.00
C895   C     0.15604   0.72283   0.76021   0.00000  Uiso   1.00
C896   C     0.17633   0.94452   0.74027   0.00000  Uiso   1.00
C897   C     0.14975   0.91929   0.97802   0.00000  Uiso   1.00
C898   C     0.18546   0.81431   0.62943   0.00000  Uiso   1.00
C899   C     0.14855   0.85176   0.87101   0.00000  Uiso   1.00
C900   C     0.20342   0.75896   0.51446   0.00000  Uiso   1.00
C901   C     0.19056   0.80699   0.58115   0.00000  Uiso   1.00
C902   C     0.14005   0.90517   0.93707   0.00000  Uiso   1.00
C903   C     0.16277   0.89245   0.50150   0.00000  Uiso   1.00
C904   C     0.16072   0.84958   0.98863   0.00000  Uiso   1.00
C905   C     0.15071   0.83438   0.94731   0.00000  Uiso   1.00
C906   C     0.17179   0.82195   0.51432   0.00000  Uiso   1.00
C907   C     0.18321   0.78274   0.99338   0.00000  Uiso   1.00
C908   C     0.17130   0.76710   0.95350   0.00000  Uiso   1.00
C909   C     0.14989   0.79115   0.93433   0.00000  Uiso   1.00
Cl910  Cl    0.22206   0.67773   0.69434   0.00000  Uiso   1.00
Cl911  Cl    0.18004   0.71646   0.92853   0.00000  Uiso   1.00
Cl912  Cl    0.13543   0.86531   0.59562   0.00000  Uiso   1.00
Cl913  Cl    0.12782   0.94237   0.90684   0.00000  Uiso   1.00
Cl914  Cl    0.14887   0.97160   0.99989   0.00000  Uiso   1.00
Cl915  Cl    0.11671   0.76496   0.90008   0.00000  Uiso   1.00
Cl916  Cl    0.02861   0.87072   0.69316   0.00000  Uiso   1.00
H917   H     0.21434   0.72992   0.99815   0.00000  Uiso   1.00
H918   H     0.17588   0.90606   0.52922   0.00000  Uiso   1.00
H919   H     0.20416   0.73036   0.60260   0.00000  Uiso   1.00
H920   H     0.24417   0.72466   0.55631   0.00000  Uiso   1.00
H921   H     0.31978   0.81496   0.83071   0.00000  Uiso   1.00
H922   H     0.32150   0.77088   0.79587   0.00000  Uiso   1.00
H923   H     0.11936   0.67772   0.82998   0.00000  Uiso   1.00
H924   H     0.08781   0.66928   0.79379   0.00000  Uiso   1.00
N925   N     0.22839   0.74678   0.57957   0.00000  Uiso   1.00
N926   N     0.31357   0.80123   0.80045   0.00000  Uiso   1.00
N927   N     0.11621   0.99575   0.79916   0.00000  Uiso   1.00
O928   O     0.16667   0.83333   0.75000   0.00000  Uiso   1.00
O929   O     0.15451   0.79304   0.65458   0.00000  Uiso   1.00
O930   O     0.12940   0.87058   0.84968   0.00000  Uiso   1.00
O931   O     0.20824   0.84425   0.64606   0.00000  Uiso   1.00
O932   O     0.17451   0.82546   0.84968   0.00000  Uiso   1.00
O933   O     0.17930   0.74686   0.78213   0.00000  Uiso   1.00
O934   O     0.14632   0.92751   0.77013   0.00000  Uiso   1.00
O935   O     0.07412   0.79958   0.73413   0.00000  Uiso   1.00
O936   O     0.26693   0.85939   0.71360   0.00000  Uiso   1.00
O937   O     0.07071   0.85544   0.78213   0.00000  Uiso   1.00
O938   O     0.25491   0.81892   0.77013   0.00000  Uiso   1.00
O939   O     0.13760   0.73610   0.73413   0.00000  Uiso   1.00
O940   O     0.20345   0.92286   0.71360   0.00000  Uiso   1.00
Zn941  Zn    0.19338   0.80661   0.78734   0.00000  Uiso   1.00
Zn942  Zn    0.13379   0.79124   0.71875   0.00000  Uiso   1.00
Zn943  Zn    0.21056   0.86442   0.70657   0.00000  Uiso   1.00
Zn944  Zn    0.12893   0.87106   0.78733   0.00000  Uiso   1.00
C945   C     0.38635   0.82653   0.75979   0.00000  Uiso   1.00
C946   C     0.50411   0.83128   0.56039   0.00000  Uiso   1.00
C947   C     0.54175   0.77159   0.55776   0.00000  Uiso   1.00
C948   C     0.61400   0.84038   0.74012   0.00000  Uiso   1.00
C949   C     0.47697   0.86308   0.91973   0.00000  Uiso   1.00
C950   C     0.65977   0.84262   0.73627   0.00000  Uiso   1.00
C951   C     0.34120   0.82376   0.76459   0.00000  Uiso   1.00
C952   C     0.51284   0.98895   0.73665   0.00000  Uiso   1.00
C953   C     0.48446   0.67910   0.76448   0.00000  Uiso   1.00
C954   C     0.48937   0.72283   0.76021   0.00000  Uiso   1.00
C955   C     0.50966   0.94452   0.74027   0.00000  Uiso   1.00
C956   C     0.48308   0.91929   0.97802   0.00000  Uiso   1.00
C957   C     0.51879   0.81431   0.62943   0.00000  Uiso   1.00
C958   C     0.48188   0.85176   0.87101   0.00000  Uiso   1.00
C959   C     0.53675   0.75896   0.51446   0.00000  Uiso   1.00
C960   C     0.52389   0.80699   0.58115   0.00000  Uiso   1.00
C961   C     0.47339   0.90517   0.93707   0.00000  Uiso   1.00
C962   C     0.49610   0.89245   0.50150   0.00000  Uiso   1.00
C963   C     0.49406   0.84958   0.98863   0.00000  Uiso   1.00
C964   C     0.48404   0.83438   0.94731   0.00000  Uiso   1.00
C965   C     0.50513   0.82195   0.51432   0.00000  Uiso   1.00
C966   C     0.51654   0.78274   0.99338   0.00000  Uiso   1.00
C967   C     0.50463   0.76710   0.95350   0.00000  Uiso   1.00
C968   C     0.48322   0.79115   0.93433   0.00000  Uiso   1.00
Cl969  Cl    0.55539   0.67773   0.69434   0.00000  Uiso   1.00
Cl970  Cl    0.51337   0.71646   0.92853   0.00000  Uiso   1.00
Cl971  Cl    0.46877   0.86531   0.59562   0.00000  Uiso   1.00
Cl972  Cl    0.46115   0.94237   0.90684   0.00000  Uiso   1.00
Cl973  Cl    0.48221   0.97160   0.99989   0.00000  Uiso   1.00
Cl974  Cl    0.45004   0.76496   0.90008   0.00000  Uiso   1.00
Cl975  Cl    0.36194   0.87072   0.69316   0.00000  Uiso   1.00
H976   H     0.54767   0.72992   0.99815   0.00000  Uiso   1.00
H977   H     0.50922   0.90606   0.52922   0.00000  Uiso   1.00
H978   H     0.53750   0.73036   0.60260   0.00000  Uiso   1.00
H979   H     0.57750   0.72466   0.55631   0.00000  Uiso   1.00
H980   H     0.65311   0.81496   0.83071   0.00000  Uiso   1.00
H981   H     0.65483   0.77088   0.79587   0.00000  Uiso   1.00
H982   H     0.45270   0.67772   0.82998   0.00000  Uiso   1.00
H983   H     0.42114   0.66928   0.79379   0.00000  Uiso   1.00
N984   N     0.56173   0.74678   0.57957   0.00000  Uiso   1.00
N985   N     0.64690   0.80123   0.80045   0.00000  Uiso   1.00
N986   N     0.44954   0.99575   0.79916   0.00000  Uiso   1.00
O987   O     0.50000   0.83333   0.75000   0.00000  Uiso   1.00
O988   O     0.48784   0.79304   0.65458   0.00000  Uiso   1.00
O989   O     0.46274   0.87058   0.84968   0.00000  Uiso   1.00
O990   O     0.54157   0.84425   0.64606   0.00000  Uiso   1.00
O991   O     0.50785   0.82546   0.84968   0.00000  Uiso   1.00
O992   O     0.51264   0.74686   0.78213   0.00000  Uiso   1.00
O993   O     0.47965   0.92751   0.77013   0.00000  Uiso   1.00
O994   O     0.40745   0.79958   0.73413   0.00000  Uiso   1.00
O995   O     0.60026   0.85939   0.71360   0.00000  Uiso   1.00
O996   O     0.40405   0.85544   0.78213   0.00000  Uiso   1.00
O997   O     0.58824   0.81892   0.77013   0.00000  Uiso   1.00
O998   O     0.47093   0.73610   0.73413   0.00000  Uiso   1.00
O999   O     0.53678   0.92286   0.71360   0.00000  Uiso   1.00
Zn1000 Zn    0.52672   0.80661   0.78734   0.00000  Uiso   1.00
Zn1001 Zn    0.46713   0.79124   0.71875   0.00000  Uiso   1.00
Zn1002 Zn    0.54389   0.86442   0.70657   0.00000  Uiso   1.00
Zn1003 Zn    0.46226   0.87106   0.78733   0.00000  Uiso   1.00
C1004  C     0.71969   0.82653   0.75979   0.00000  Uiso   1.00
C1005  C     0.83744   0.83128   0.56039   0.00000  Uiso   1.00
C1006  C     0.87508   0.77159   0.55776   0.00000  Uiso   1.00
C1007  C     0.94733   0.84038   0.74012   0.00000  Uiso   1.00
C1008  C     0.81031   0.86308   0.91973   0.00000  Uiso   1.00
C1009  C     0.99310   0.84262   0.73627   0.00000  Uiso   1.00
C1010  C     0.67454   0.82376   0.76459   0.00000  Uiso   1.00
C1011  C     0.84618   0.98895   0.73665   0.00000  Uiso   1.00
C1012  C     0.81779   0.67910   0.76448   0.00000  Uiso   1.00
C1013  C     0.82271   0.72283   0.76021   0.00000  Uiso   1.00
C1014  C     0.84299   0.94452   0.74027   0.00000  Uiso   1.00
C1015  C     0.81642   0.91929   0.97802   0.00000  Uiso   1.00
C1016  C     0.85212   0.81431   0.62943   0.00000  Uiso   1.00
C1017  C     0.81521   0.85176   0.87101   0.00000  Uiso   1.00
C1018  C     0.87009   0.75896   0.51446   0.00000  Uiso   1.00
C1019  C     0.85723   0.80699   0.58115   0.00000  Uiso   1.00
C1020  C     0.80672   0.90517   0.93707   0.00000  Uiso   1.00
C1021  C     0.82944   0.89245   0.50150   0.00000  Uiso   1.00
C1022  C     0.82739   0.84958   0.98863   0.00000  Uiso   1.00
C1023  C     0.81738   0.83438   0.94731   0.00000  Uiso   1.00
C1024  C     0.83846   0.82195   0.51432   0.00000  Uiso   1.00
C1025  C     0.84987   0.78274   0.99338   0.00000  Uiso   1.00
C1026  C     0.83796   0.76710   0.95350   0.00000  Uiso   1.00
C1027  C     0.81655   0.79115   0.93433   0.00000  Uiso   1.00
Cl1028 Cl    0.88873   0.67773   0.69434   0.00000  Uiso   1.00
Cl1029 Cl    0.84671   0.71646   0.92853   0.00000  Uiso   1.00
Cl1030 Cl    0.80210   0.86531   0.59562   0.00000  Uiso   1.00
Cl1031 Cl    0.79448   0.94237   0.90684   0.00000  Uiso   1.00
Cl1032 Cl    0.81554   0.97160   0.99989   0.00000  Uiso   1.00
Cl1033 Cl    0.78337   0.76496   0.90008   0.00000  Uiso   1.00
Cl1034 Cl    0.69527   0.87072   0.69316   0.00000  Uiso   1.00
H1035  H     0.88101   0.72992   0.99815   0.00000  Uiso   1.00
H1036  H     0.84255   0.90606   0.52922   0.00000  Uiso   1.00
H1037  H     0.87083   0.73036   0.60260   0.00000  Uiso   1.00
H1038  H     0.91084   0.72466   0.55631   0.00000  Uiso   1.00
H1039  H     0.98644   0.81496   0.83071   0.00000  Uiso   1.00
H1040  H     0.98816   0.77088   0.79587   0.00000  Uiso   1.00
H1041  H     0.78603   0.67772   0.82998   0.00000  Uiso   1.00
H1042  H     0.75448   0.66928   0.79379   0.00000  Uiso   1.00
N1043  N     0.89506   0.74678   0.57957   0.00000  Uiso   1.00
N1044  N     0.98023   0.80123   0.80045   0.00000  Uiso   1.00
N1045  N     0.78287   0.99575   0.79916   0.00000  Uiso   1.00
O1046  O     0.83333   0.83333   0.75000   0.00000  Uiso   1.00
O1047  O     0.82118   0.79304   0.65458   0.00000  Uiso   1.00
O1048  O     0.79607   0.87058   0.84968   0.00000  Uiso   1.00
O1049  O     0.87491   0.84425   0.64606   0.00000  Uiso   1.00
O1050  O     0.84118   0.82546   0.84968   0.00000  Uiso   1.00
O1051  O     0.84597   0.74686   0.78213   0.00000  Uiso   1.00
O1052  O     0.81298   0.92751   0.77013   0.00000  Uiso   1.00
O1053  O     0.74078   0.79958   0.73413   0.00000  Uiso   1.00
O1054  O     0.93360   0.85939   0.71360   0.00000  Uiso   1.00
O1055  O     0.73738   0.85544   0.78213   0.00000  Uiso   1.00
O1056  O     0.92158   0.81892   0.77013   0.00000  Uiso   1.00
O1057  O     0.80426   0.73610   0.73413   0.00000  Uiso   1.00
O1058  O     0.87012   0.92286   0.71360   0.00000  Uiso   1.00
Zn1059 Zn    0.86005   0.80661   0.78734   0.00000  Uiso   1.00
Zn1060 Zn    0.80046   0.79124   0.71875   0.00000  Uiso   1.00
Zn1061 Zn    0.87723   0.86442   0.70657   0.00000  Uiso   1.00
Zn1062 Zn    0.79560   0.87106   0.78733   0.00000  Uiso   1.00
loop_
_geom_bond_atom_site_label_1
_geom_bond_atom_site_label_2
_geom_bond_distance
_geom_bond_site_symmetry_2
_ccdc_geom_bond_type
C1     O50     1.265   .     A
C1     O52     1.264   .     A
C1     C7      1.434   .     S
C2     Cl27    1.782   .     S
C2     C16     1.401   .     A
C2     C21     1.416   .     A
C3     N40     1.438   .     S
C3     C15     1.399   .     A
C3     C16     1.405   .     A
C4     O53     1.279   .     A
C4     O51     1.291   .     A
C4     C6      1.461   .     S
C5     C14     1.481   .     S
C5     C17     1.424   .     A
C5     C20     1.425   .     A
C6     C66     1.353   .     S
C6     Cl90    1.772   .     S
C7     C124    1.353   1_455 S
C7     N159    1.437   1_455 S
C8     C11     1.456   .     S
C8     C186    1.348   .     S
C8     Cl202   1.773   .     S
C9     C10     1.433   .     S
C9     C362    1.348   1_545 S
C9     N396    1.437   1_545 S
C10    O48     1.274   .     A
C10    O54     1.276   .     A
C11    O49     1.270   .     A
C11    O55     1.274   .     A
C12    C17     1.397   .     A
C12    Cl29    1.761   .     S
C12    C549    1.383   .     S
C13    C16     1.455   .     S
C13    O46     1.282   .     A
C13    O44     1.273   .     A
C14    O45     1.281   .     A
C14    O47     1.294   .     A
C15    C553    1.405   1_554 S
C15    H563    1.082   1_554 S
C17    Cl28    1.772   .     S
C18    H33     1.079   .     S
C18    C543    1.383   1_554 S
C18    C550    1.406   1_554 S
C19    C20     1.419   .     A
C19    C549    1.406   .     S
C19    C552    1.417   .     S
C20    C24     1.419   .     A
C21    C550    1.417   1_554 S
C21    C553    1.418   1_554 S
C22    C23     1.408   .     A
C22    C552    1.418   .     S
C22    C546    1.405   .     S
C23    C24     1.400   .     A
C23    Cl26    1.769   .     S
C24    Cl30    1.775   .     S
Cl25   C362    1.773   1_545 S
Cl31   C124    1.772   1_455 S
H32    C546    1.082   .     S
H34    N40     1.046   .     S
H35    N40     1.046   .     S
H36    N41     1.046   .     S
H37    N41     1.046   .     S
H38    N396    1.046   1_545 S
H39    N396    1.046   1_545 S
N41    C66     1.437   .     S
N42    H215    1.046   .     S
N42    H216    1.046   .     S
N42    C186    1.437   .     S
O43    Zn59    1.930   .     S
O43    Zn57    1.943   .     S
O43    Zn56    1.969   .     S
O43    Zn58    1.945   .     S
O44    Zn57    1.929   .     S
O45    Zn59    1.939   .     S
O46    Zn58    1.927   .     S
O47    Zn56    1.919   .     S
O48    Zn56    1.936   .     S
O49    Zn59    1.945   .     S
O50    Zn57    1.934   .     S
O51    Zn58    1.945   .     S
O52    Zn59    1.941   .     S
O53    Zn56    1.933   .     S
O54    Zn57    1.949   .     S
O55    Zn58    1.937   .     S
C60    O109    1.265   .     A
C60    O111    1.264   .     A
C60    C66     1.434   .     S
C61    Cl86    1.782   .     S
C61    C75     1.401   .     A
C61    C80     1.416   .     A
C62    N99     1.438   .     S
C62    C74     1.399   .     A
C62    C75     1.405   .     A
C63    O112    1.279   .     A
C63    O110    1.291   .     A
C63    C65     1.461   .     S
C64    C73     1.481   .     S
C64    C76     1.424   .     A
C64    C79     1.425   .     A
C65    C125    1.353   .     S
C65    Cl149   1.772   .     S
C67    C70     1.456   .     S
C67    C245    1.348   .     S
C67    Cl261   1.773   .     S
C68    C69     1.433   .     S
C68    C421    1.348   1_545 S
C68    N455    1.437   1_545 S
C69    O107    1.274   .     A
C69    O113    1.276   .     A
C70    O108    1.270   .     A
C70    O114    1.274   .     A
C71    C76     1.397   .     A
C71    Cl88    1.761   .     S
C71    C608    1.383   .     S
C72    C75     1.455   .     S
C72    O105    1.282   .     A
C72    O103    1.273   .     A
C73    O104    1.281   .     A
C73    O106    1.294   .     A
C74    C612    1.405   1_554 S
C74    H622    1.082   1_554 S
C76    Cl87    1.772   .     S
C77    H92     1.079   .     S
C77    C602    1.383   1_554 S
C77    C609    1.406   1_554 S
C78    C79     1.419   .     A
C78    C608    1.406   .     S
C78    C611    1.417   .     S
C79    C83     1.419   .     A
C80    C609    1.417   1_554 S
C80    C612    1.418   1_554 S
C81    C82     1.408   .     A
C81    C611    1.418   .     S
C81    C605    1.405   .     S
C82    C83     1.400   .     A
C82    Cl85    1.769   .     S
C83    Cl89    1.775   .     S
Cl84   C421    1.773   1_545 S
H91    C605    1.082   .     S
H93    N99     1.046   .     S
H94    N99     1.046   .     S
H95    N100    1.046   .     S
H96    N100    1.046   .     S
H97    N455    1.046   1_545 S
H98    N455    1.046   1_545 S
N100   C125    1.437   .     S
N101   H274    1.046   .     S
N101   H275    1.046   .     S
N101   C245    1.437   .     S
O102   Zn118   1.930   .     S
O102   Zn116   1.943   .     S
O102   Zn115   1.969   .     S
O102   Zn117   1.945   .     S
O103   Zn116   1.929   .     S
O104   Zn118   1.939   .     S
O105   Zn117   1.927   .     S
O106   Zn115   1.919   .     S
O107   Zn115   1.936   .     S
O108   Zn118   1.945   .     S
O109   Zn116   1.934   .     S
O110   Zn117   1.945   .     S
O111   Zn118   1.941   .     S
O112   Zn115   1.933   .     S
O113   Zn116   1.949   .     S
O114   Zn117   1.937   .     S
C119   O168    1.265   .     A
C119   O170    1.264   .     A
C119   C125    1.434   .     S
C120   Cl145   1.782   .     S
C120   C134    1.401   .     A
C120   C139    1.416   .     A
C121   N158    1.438   .     S
C121   C133    1.399   .     A
C121   C134    1.405   .     A
C122   O171    1.279   .     A
C122   O169    1.291   .     A
C122   C124    1.461   .     S
C123   C132    1.481   .     S
C123   C135    1.424   .     A
C123   C138    1.425   .     A
C124   C7      1.353   1_655 S
C124   Cl31    1.772   1_655 S
C126   C129    1.456   .     S
C126   C304    1.348   .     S
C126   Cl320   1.773   .     S
C127   C128    1.433   .     S
C127   C480    1.348   1_545 S
C127   N514    1.437   1_545 S
C128   O166    1.274   .     A
C128   O172    1.276   .     A
C129   O167    1.270   .     A
C129   O173    1.274   .     A
C130   C135    1.397   .     A
C130   Cl147   1.761   .     S
C130   C667    1.383   .     S
C131   C134    1.455   .     S
C131   O164    1.282   .     A
C131   O162    1.273   .     A
C132   O163    1.281   .     A
C132   O165    1.294   .     A
C133   C671    1.405   1_554 S
C133   H681    1.082   1_554 S
C135   Cl146   1.772   .     S
C136   H151    1.079   .     S
C136   C661    1.383   1_554 S
C136   C668    1.406   1_554 S
C137   C138    1.419   .     A
C137   C667    1.406   .     S
C137   C670    1.417   .     S
C138   C142    1.419   .     A
C139   C668    1.417   1_554 S
C139   C671    1.418   1_554 S
C140   C141    1.408   .     A
C140   C670    1.418   .     S
C140   C664    1.405   .     S
C141   C142    1.400   .     A
C141   Cl144   1.769   .     S
C142   Cl148   1.775   .     S
Cl143  C480    1.773   1_545 S
H150   C664    1.082   .     S
H152   N158    1.046   .     S
H153   N158    1.046   .     S
H154   N159    1.046   .     S
H155   N159    1.046   .     S
H156   N514    1.046   1_545 S
H157   N514    1.046   1_545 S
N159   C7      1.437   1_655 S
N160   H333    1.046   .     S
N160   H334    1.046   .     S
N160   C304    1.437   .     S
O161   Zn177   1.930   .     S
O161   Zn175   1.943   .     S
O161   Zn174   1.969   .     S
O161   Zn176   1.945   .     S
O162   Zn175   1.929   .     S
O163   Zn177   1.939   .     S
O164   Zn176   1.927   .     S
O165   Zn174   1.919   .     S
O166   Zn174   1.936   .     S
O167   Zn177   1.945   .     S
O168   Zn175   1.934   .     S
O169   Zn176   1.945   .     S
O170   Zn177   1.941   .     S
O171   Zn174   1.933   .     S
O172   Zn175   1.949   .     S
O173   Zn176   1.937   .     S
C178   O227    1.265   .     A
C178   O229    1.264   .     A
C178   C184    1.434   .     S
C179   Cl204   1.782   .     S
C179   C193    1.401   .     A
C179   C198    1.416   .     A
C180   N217    1.438   .     S
C180   C192    1.399   .     A
C180   C193    1.405   .     A
C181   O230    1.279   .     A
C181   O228    1.291   .     A
C181   C183    1.461   .     S
C182   C191    1.481   .     S
C182   C194    1.424   .     A
C182   C197    1.425   .     A
C183   C243    1.353   .     S
C183   Cl267   1.772   .     S
C184   C301    1.353   1_455 S
C184   N336    1.437   1_455 S
C185   C188    1.456   .     S
C185   C363    1.348   .     S
C185   Cl379   1.773   .     S
C186   C187    1.433   .     S
C187   O225    1.274   .     A
C187   O231    1.276   .     A
C188   O226    1.270   .     A
C188   O232    1.274   .     A
C189   C194    1.397   .     A
C189   Cl206   1.761   .     S
C189   C726    1.383   .     S
C190   C193    1.455   .     S
C190   O223    1.282   .     A
C190   O221    1.273   .     A
C191   O222    1.281   .     A
C191   O224    1.294   .     A
C192   C730    1.405   1_554 S
C192   H740    1.082   1_554 S
C194   Cl205   1.772   .     S
C195   H210    1.079   .     S
C195   C720    1.383   1_554 S
C195   C727    1.406   1_554 S
C196   C197    1.419   .     A
C196   C726    1.406   .     S
C196   C729    1.417   .     S
C197   C201    1.419   .     A
C198   C727    1.417   1_554 S
C198   C730    1.418   1_554 S
C199   C200    1.408   .     A
C199   C729    1.418   .     S
C199   C723    1.405   .     S
C200   C201    1.400   .     A
C200   Cl203   1.769   .     S
C201   Cl207   1.775   .     S
Cl208  C301    1.772   1_455 S
H209   C723    1.082   .     S
H211   N217    1.046   .     S
H212   N217    1.046   .     S
H213   N218    1.046   .     S
H214   N218    1.046   .     S
N218   C243    1.437   .     S
N219   H392    1.046   .     S
N219   H393    1.046   .     S
N219   C363    1.437   .     S
O220   Zn236   1.930   .     S
O220   Zn234   1.943   .     S
O220   Zn233   1.969   .     S
O220   Zn235   1.945   .     S
O221   Zn234   1.929   .     S
O222   Zn236   1.939   .     S
O223   Zn235   1.927   .     S
O224   Zn233   1.919   .     S
O225   Zn233   1.936   .     S
O226   Zn236   1.945   .     S
O227   Zn234   1.934   .     S
O228   Zn235   1.945   .     S
O229   Zn236   1.941   .     S
O230   Zn233   1.933   .     S
O231   Zn234   1.949   .     S
O232   Zn235   1.937   .     S
C237   O286    1.265   .     A
C237   O288    1.264   .     A
C237   C243    1.434   .     S
C238   Cl263   1.782   .     S
C238   C252    1.401   .     A
C238   C257    1.416   .     A
C239   N276    1.438   .     S
C239   C251    1.399   .     A
C239   C252    1.405   .     A
C240   O289    1.279   .     A
C240   O287    1.291   .     A
C240   C242    1.461   .     S
C241   C250    1.481   .     S
C241   C253    1.424   .     A
C241   C256    1.425   .     A
C242   C302    1.353   .     S
C242   Cl326   1.772   .     S
C244   C247    1.456   .     S
C244   C422    1.348   .     S
C244   Cl438   1.773   .     S
C245   C246    1.433   .     S
C246   O284    1.274   .     A
C246   O290    1.276   .     A
C247   O285    1.270   .     A
C247   O291    1.274   .     A
C248   C253    1.397   .     A
C248   Cl265   1.761   .     S
C248   C785    1.383   .     S
C249   C252    1.455   .     S
C249   O282    1.282   .     A
C249   O280    1.273   .     A
C250   O281    1.281   .     A
C250   O283    1.294   .     A
C251   C789    1.405   1_554 S
C251   H799    1.082   1_554 S
C253   Cl264   1.772   .     S
C254   H269    1.079   .     S
C254   C779    1.383   1_554 S
C254   C786    1.406   1_554 S
C255   C256    1.419   .     A
C255   C785    1.406   .     S
C255   C788    1.417   .     S
C256   C260    1.419   .     A
C257   C786    1.417   1_554 S
C257   C789    1.418   1_554 S
C258   C259    1.408   .     A
C258   C788    1.418   .     S
C258   C782    1.405   .     S
C259   C260    1.400   .     A
C259   Cl262   1.769   .     S
C260   Cl266   1.775   .     S
H268   C782    1.082   .     S
H270   N276    1.046   .     S
H271   N276    1.046   .     S
H272   N277    1.046   .     S
H273   N277    1.046   .     S
N277   C302    1.437   .     S
N278   H451    1.046   .     S
N278   H452    1.046   .     S
N278   C422    1.437   .     S
O279   Zn295   1.930   .     S
O279   Zn293   1.943   .     S
O279   Zn292   1.969   .     S
O279   Zn294   1.945   .     S
O280   Zn293   1.929   .     S
O281   Zn295   1.939   .     S
O282   Zn294   1.927   .     S
O283   Zn292   1.919   .     S
O284   Zn292   1.936   .     S
O285   Zn295   1.945   .     S
O286   Zn293   1.934   .     S
O287   Zn294   1.945   .     S
O288   Zn295   1.941   .     S
O289   Zn292   1.933   .     S
O290   Zn293   1.949   .     S
O291   Zn294   1.937   .     S
C296   O345    1.265   .     A
C296   O347    1.264   .     A
C296   C302    1.434   .     S
C297   Cl322   1.782   .     S
C297   C311    1.401   .     A
C297   C316    1.416   .     A
C298   N335    1.438   .     S
C298   C310    1.399   .     A
C298   C311    1.405   .     A
C299   O348    1.279   .     A
C299   O346    1.291   .     A
C299   C301    1.461   .     S
C300   C309    1.481   .     S
C300   C312    1.424   .     A
C300   C315    1.425   .     A
C301   C184    1.353   1_655 S
C301   Cl208   1.772   1_655 S
C303   C306    1.456   .     S
C303   C481    1.348   .     S
C303   Cl497   1.773   .     S
C304   C305    1.433   .     S
C305   O343    1.274   .     A
C305   O349    1.276   .     A
C306   O344    1.270   .     A
C306   O350    1.274   .     A
C307   C312    1.397   .     A
C307   Cl324   1.761   .     S
C307   C844    1.383   .     S
C308   C311    1.455   .     S
C308   O341    1.282   .     A
C308   O339    1.273   .     A
C309   O340    1.281   .     A
C309   O342    1.294   .     A
C310   C848    1.405   1_554 S
C310   H858    1.082   1_554 S
C312   Cl323   1.772   .     S
C313   H328    1.079   .     S
C313   C838    1.383   1_554 S
C313   C845    1.406   1_554 S
C314   C315    1.419   .     A
C314   C844    1.406   .     S
C314   C847    1.417   .     S
C315   C319    1.419   .     A
C316   C845    1.417   1_554 S
C316   C848    1.418   1_554 S
C317   C318    1.408   .     A
C317   C847    1.418   .     S
C317   C841    1.405   .     S
C318   C319    1.400   .     A
C318   Cl321   1.769   .     S
C319   Cl325   1.775   .     S
H327   C841    1.082   .     S
H329   N335    1.046   .     S
H330   N335    1.046   .     S
H331   N336    1.046   .     S
H332   N336    1.046   .     S
N336   C184    1.437   1_655 S
N337   H510    1.046   .     S
N337   H511    1.046   .     S
N337   C481    1.437   .     S
O338   Zn354   1.930   .     S
O338   Zn352   1.943   .     S
O338   Zn351   1.969   .     S
O338   Zn353   1.945   .     S
O339   Zn352   1.929   .     S
O340   Zn354   1.939   .     S
O341   Zn353   1.927   .     S
O342   Zn351   1.919   .     S
O343   Zn351   1.936   .     S
O344   Zn354   1.945   .     S
O345   Zn352   1.934   .     S
O346   Zn353   1.945   .     S
O347   Zn354   1.941   .     S
O348   Zn351   1.933   .     S
O349   Zn352   1.949   .     S
O350   Zn353   1.937   .     S
C355   O404    1.265   .     A
C355   O406    1.264   .     A
C355   C361    1.434   .     S
C356   Cl381   1.782   .     S
C356   C370    1.401   .     A
C356   C375    1.416   .     A
C357   N394    1.438   .     S
C357   C369    1.399   .     A
C357   C370    1.405   .     A
C358   O407    1.279   .     A
C358   O405    1.291   .     A
C358   C360    1.461   .     S
C359   C368    1.481   .     S
C359   C371    1.424   .     A
C359   C374    1.425   .     A
C360   C420    1.353   .     S
C360   Cl444   1.772   .     S
C361   C478    1.353   1_455 S
C361   N513    1.437   1_455 S
C362   C365    1.456   .     S
C362   C9      1.348   1_565 S
C362   Cl25    1.773   1_565 S
C363   C364    1.433   .     S
C364   O402    1.274   .     A
C364   O408    1.276   .     A
C365   O403    1.270   .     A
C365   O409    1.274   .     A
C366   C371    1.397   .     A
C366   Cl383   1.761   .     S
C366   C903    1.383   .     S
C367   C370    1.455   .     S
C367   O400    1.282   .     A
C367   O398    1.273   .     A
C368   O399    1.281   .     A
C368   O401    1.294   .     A
C369   C907    1.405   1_554 S
C369   H917    1.082   1_554 S
C371   Cl382   1.772   .     S
C372   H387    1.079   .     S
C372   C897    1.383   1_554 S
C372   C904    1.406   1_554 S
C373   C374    1.419   .     A
C373   C903    1.406   .     S
C373   C906    1.417   .     S
C374   C378    1.419   .     A
C375   C904    1.417   1_554 S
C375   C907    1.418   1_554 S
C376   C377    1.408   .     A
C376   C906    1.418   .     S
C376   C900    1.405   .     S
C377   C378    1.400   .     A
C377   Cl380   1.769   .     S
C378   Cl384   1.775   .     S
Cl385  C478    1.772   1_455 S
H386   C900    1.082   .     S
H388   N394    1.046   .     S
H389   N394    1.046   .     S
H390   N395    1.046   .     S
H391   N395    1.046   .     S
N395   C420    1.437   .     S
N396   H38     1.046   1_565 S
N396   H39     1.046   1_565 S
N396   C9      1.437   1_565 S
O397   Zn413   1.930   .     S
O397   Zn411   1.943   .     S
O397   Zn410   1.969   .     S
O397   Zn412   1.945   .     S
O398   Zn411   1.929   .     S
O399   Zn413   1.939   .     S
O400   Zn412   1.927   .     S
O401   Zn410   1.919   .     S
O402   Zn410   1.936   .     S
O403   Zn413   1.945   .     S
O404   Zn411   1.934   .     S
O405   Zn412   1.945   .     S
O406   Zn413   1.941   .     S
O407   Zn410   1.933   .     S
O408   Zn411   1.949   .     S
O409   Zn412   1.937   .     S
C414   O463    1.265   .     A
C414   O465    1.264   .     A
C414   C420    1.434   .     S
C415   Cl440   1.782   .     S
C415   C429    1.401   .     A
C415   C434    1.416   .     A
C416   N453    1.438   .     S
C416   C428    1.399   .     A
C416   C429    1.405   .     A
C417   O466    1.279   .     A
C417   O464    1.291   .     A
C417   C419    1.461   .     S
C418   C427    1.481   .     S
C418   C430    1.424   .     A
C418   C433    1.425   .     A
C419   C479    1.353   .     S
C419   Cl503   1.772   .     S
C421   C424    1.456   .     S
C421   C68     1.348   1_565 S
C421   Cl84    1.773   1_565 S
C422   C423    1.433   .     S
C423   O461    1.274   .     A
C423   O467    1.276   .     A
C424   O462    1.270   .     A
C424   O468    1.274   .     A
C425   C430    1.397   .     A
C425   Cl442   1.761   .     S
C425   C962    1.383   .     S
C426   C429    1.455   .     S
C426   O459    1.282   .     A
C426   O457    1.273   .     A
C427   O458    1.281   .     A
C427   O460    1.294   .     A
C428   C966    1.405   1_554 S
C428   H976    1.082   1_554 S
C430   Cl441   1.772   .     S
C431   H446    1.079   .     S
C431   C956    1.383   1_554 S
C431   C963    1.406   1_554 S
C432   C433    1.419   .     A
C432   C962    1.406   .     S
C432   C965    1.417   .     S
C433   C437    1.419   .     A
C434   C963    1.417   1_554 S
C434   C966    1.418   1_554 S
C435   C436    1.408   .     A
C435   C965    1.418   .     S
C435   C959    1.405   .     S
C436   C437    1.400   .     A
C436   Cl439   1.769   .     S
C437   Cl443   1.775   .     S
H445   C959    1.082   .     S
H447   N453    1.046   .     S
H448   N453    1.046   .     S
H449   N454    1.046   .     S
H450   N454    1.046   .     S
N454   C479    1.437   .     S
N455   H97     1.046   1_565 S
N455   H98     1.046   1_565 S
N455   C68     1.437   1_565 S
O456   Zn472   1.930   .     S
O456   Zn470   1.943   .     S
O456   Zn469   1.969   .     S
O456   Zn471   1.945   .     S
O457   Zn470   1.929   .     S
O458   Zn472   1.939   .     S
O459   Zn471   1.927   .     S
O460   Zn469   1.919   .     S
O461   Zn469   1.936   .     S
O462   Zn472   1.945   .     S
O463   Zn470   1.934   .     S
O464   Zn471   1.945   .     S
O465   Zn472   1.941   .     S
O466   Zn469   1.933   .     S
O467   Zn470   1.949   .     S
O468   Zn471   1.937   .     S
C473   O522    1.265   .     A
C473   O524    1.264   .     A
C473   C479    1.434   .     S
C474   Cl499   1.782   .     S
C474   C488    1.401   .     A
C474   C493    1.416   .     A
C475   N512    1.438   .     S
C475   C487    1.399   .     A
C475   C488    1.405   .     A
C476   O525    1.279   .     A
C476   O523    1.291   .     A
C476   C478    1.461   .     S
C477   C486    1.481   .     S
C477   C489    1.424   .     A
C477   C492    1.425   .     A
C478   C361    1.353   1_655 S
C478   Cl385   1.772   1_655 S
C480   C483    1.456   .     S
C480   C127    1.348   1_565 S
C480   Cl143   1.773   1_565 S
C481   C482    1.433   .     S
C482   O520    1.274   .     A
C482   O526    1.276   .     A
C483   O521    1.270   .     A
C483   O527    1.274   .     A
C484   C489    1.397   .     A
C484   Cl501   1.761   .     S
C484   C1021   1.383   .     S
C485   C488    1.455   .     S
C485   O518    1.282   .     A
C485   O516    1.273   .     A
C486   O517    1.281   .     A
C486   O519    1.294   .     A
C487   C1025   1.405   1_554 S
C487   H1035   1.082   1_554 S
C489   Cl500   1.772   .     S
C490   H505    1.079   .     S
C490   C1015   1.383   1_554 S
C490   C1022   1.406   1_554 S
C491   C492    1.419   .     A
C491   C1021   1.406   .     S
C491   C1024   1.417   .     S
C492   C496    1.419   .     A
C493   C1022   1.417   1_554 S
C493   C1025   1.418   1_554 S
C494   C495    1.408   .     A
C494   C1024   1.418   .     S
C494   C1018   1.405   .     S
C495   C496    1.400   .     A
C495   Cl498   1.769   .     S
C496   Cl502   1.775   .     S
H504   C1018   1.082   .     S
H506   N512    1.046   .     S
H507   N512    1.046   .     S
H508   N513    1.046   .     S
H509   N513    1.046   .     S
N513   C361    1.437   1_655 S
N514   H156    1.046   1_565 S
N514   H157    1.046   1_565 S
N514   C127    1.437   1_565 S
O515   Zn531   1.930   .     S
O515   Zn529   1.943   .     S
O515   Zn528   1.969   .     S
O515   Zn530   1.945   .     S
O516   Zn529   1.929   .     S
O517   Zn531   1.939   .     S
O518   Zn530   1.927   .     S
O519   Zn528   1.919   .     S
O520   Zn528   1.936   .     S
O521   Zn531   1.945   .     S
O522   Zn529   1.934   .     S
O523   Zn530   1.945   .     S
O524   Zn531   1.941   .     S
O525   Zn528   1.933   .     S
O526   Zn529   1.949   .     S
O527   Zn530   1.937   .     S
C532   O581    1.265   .     A
C532   O583    1.264   .     A
C532   C538    1.434   .     S
C533   Cl558   1.782   .     S
C533   C547    1.401   .     A
C533   C552    1.416   .     A
C534   N571    1.438   .     S
C534   C546    1.399   .     A
C534   C547    1.405   .     A
C535   O584    1.279   .     A
C535   O582    1.291   .     A
C535   C537    1.461   .     S
C536   C545    1.481   .     S
C536   C548    1.424   .     A
C536   C551    1.425   .     A
C537   C597    1.353   .     S
C537   Cl621   1.772   .     S
C538   C655    1.353   1_455 S
C538   N690    1.437   1_455 S
C539   C542    1.456   .     S
C539   C717    1.348   .     S
C539   Cl733   1.773   .     S
C540   C541    1.433   .     S
C540   C893    1.348   1_545 S
C540   N927    1.437   1_545 S
C541   O579    1.274   .     A
C541   O585    1.276   .     A
C542   O580    1.270   .     A
C542   O586    1.274   .     A
C543   C548    1.397   .     A
C543   Cl560   1.761   .     S
C543   C18     1.383   1_556 S
C544   C547    1.455   .     S
C544   O577    1.282   .     A
C544   O575    1.273   .     A
C545   O576    1.281   .     A
C545   O578    1.294   .     A
C548   Cl559   1.772   .     S
C549   H564    1.079   .     S
C550   C551    1.419   .     A
C550   C18     1.406   1_556 S
C550   C21     1.417   1_556 S
C551   C555    1.419   .     A
C553   C554    1.408   .     A
C553   C21     1.418   1_556 S
C553   C15     1.405   1_556 S
C554   C555    1.400   .     A
C554   Cl557   1.769   .     S
C555   Cl561   1.775   .     S
Cl556  C893    1.773   1_545 S
Cl562  C655    1.772   1_455 S
H563   C15     1.082   1_556 S
H565   N571    1.046   .     S
H566   N571    1.046   .     S
H567   N572    1.046   .     S
H568   N572    1.046   .     S
H569   N927    1.046   1_545 S
H570   N927    1.046   1_545 S
N572   C597    1.437   .     S
N573   H746    1.046   .     S
N573   H747    1.046   .     S
N573   C717    1.437   .     S
O574   Zn590   1.930   .     S
O574   Zn588   1.943   .     S
O574   Zn587   1.969   .     S
O574   Zn589   1.945   .     S
O575   Zn588   1.929   .     S
O576   Zn590   1.939   .     S
O577   Zn589   1.927   .     S
O578   Zn587   1.919   .     S
O579   Zn587   1.936   .     S
O580   Zn590   1.945   .     S
O581   Zn588   1.934   .     S
O582   Zn589   1.945   .     S
O583   Zn590   1.941   .     S
O584   Zn587   1.933   .     S
O585   Zn588   1.949   .     S
O586   Zn589   1.937   .     S
C591   O640    1.265   .     A
C591   O642    1.264   .     A
C591   C597    1.434   .     S
C592   Cl617   1.782   .     S
C592   C606    1.401   .     A
C592   C611    1.416   .     A
C593   N630    1.438   .     S
C593   C605    1.399   .     A
C593   C606    1.405   .     A
C594   O643    1.279   .     A
C594   O641    1.291   .     A
C594   C596    1.461   .     S
C595   C604    1.481   .     S
C595   C607    1.424   .     A
C595   C610    1.425   .     A
C596   C656    1.353   .     S
C596   Cl680   1.772   .     S
C598   C601    1.456   .     S
C598   C776    1.348   .     S
C598   Cl792   1.773   .     S
C599   C600    1.433   .     S
C599   C952    1.348   1_545 S
C599   N986    1.437   1_545 S
C600   O638    1.274   .     A
C600   O644    1.276   .     A
C601   O639    1.270   .     A
C601   O645    1.274   .     A
C602   C607    1.397   .     A
C602   Cl619   1.761   .     S
C602   C77     1.383   1_556 S
C603   C606    1.455   .     S
C603   O636    1.282   .     A
C603   O634    1.273   .     A
C604   O635    1.281   .     A
C604   O637    1.294   .     A
C607   Cl618   1.772   .     S
C608   H623    1.079   .     S
C609   C610    1.419   .     A
C609   C77     1.406   1_556 S
C609   C80     1.417   1_556 S
C610   C614    1.419   .     A
C612   C613    1.408   .     A
C612   C80     1.418   1_556 S
C612   C74     1.405   1_556 S
C613   C614    1.400   .     A
C613   Cl616   1.769   .     S
C614   Cl620   1.775   .     S
Cl615  C952    1.773   1_545 S
H622   C74     1.082   1_556 S
H624   N630    1.046   .     S
H625   N630    1.046   .     S
H626   N631    1.046   .     S
H627   N631    1.046   .     S
H628   N986    1.046   1_545 S
H629   N986    1.046   1_545 S
N631   C656    1.437   .     S
N632   H805    1.046   .     S
N632   H806    1.046   .     S
N632   C776    1.437   .     S
O633   Zn649   1.930   .     S
O633   Zn647   1.943   .     S
O633   Zn646   1.969   .     S
O633   Zn648   1.945   .     S
O634   Zn647   1.929   .     S
O635   Zn649   1.939   .     S
O636   Zn648   1.927   .     S
O637   Zn646   1.919   .     S
O638   Zn646   1.936   .     S
O639   Zn649   1.945   .     S
O640   Zn647   1.934   .     S
O641   Zn648   1.945   .     S
O642   Zn649   1.941   .     S
O643   Zn646   1.933   .     S
O644   Zn647   1.949   .     S
O645   Zn648   1.937   .     S
C650   O699    1.265   .     A
C650   O701    1.264   .     A
C650   C656    1.434   .     S
C651   Cl676   1.782   .     S
C651   C665    1.401   .     A
C651   C670    1.416   .     A
C652   N689    1.438   .     S
C652   C664    1.399   .     A
C652   C665    1.405   .     A
C653   O702    1.279   .     A
C653   O700    1.291   .     A
C653   C655    1.461   .     S
C654   C663    1.481   .     S
C654   C666    1.424   .     A
C654   C669    1.425   .     A
C655   C538    1.353   1_655 S
C655   Cl562   1.772   1_655 S
C657   C660    1.456   .     S
C657   C835    1.348   .     S
C657   Cl851   1.773   .     S
C658   C659    1.433   .     S
C658   C1011   1.348   1_545 S
C658   N1045   1.437   1_545 S
C659   O697    1.274   .     A
C659   O703    1.276   .     A
C660   O698    1.270   .     A
C660   O704    1.274   .     A
C661   C666    1.397   .     A
C661   Cl678   1.761   .     S
C661   C136    1.383   1_556 S
C662   C665    1.455   .     S
C662   O695    1.282   .     A
C662   O693    1.273   .     A
C663   O694    1.281   .     A
C663   O696    1.294   .     A
C666   Cl677   1.772   .     S
C667   H682    1.079   .     S
C668   C669    1.419   .     A
C668   C136    1.406   1_556 S
C668   C139    1.417   1_556 S
C669   C673    1.419   .     A
C671   C672    1.408   .     A
C671   C139    1.418   1_556 S
C671   C133    1.405   1_556 S
C672   C673    1.400   .     A
C672   Cl675   1.769   .     S
C673   Cl679   1.775   .     S
Cl674  C1011   1.773   1_545 S
H681   C133    1.082   1_556 S
H683   N689    1.046   .     S
H684   N689    1.046   .     S
H685   N690    1.046   .     S
H686   N690    1.046   .     S
H687   N1045   1.046   1_545 S
H688   N1045   1.046   1_545 S
N690   C538    1.437   1_655 S
N691   H864    1.046   .     S
N691   H865    1.046   .     S
N691   C835    1.437   .     S
O692   Zn708   1.930   .     S
O692   Zn706   1.943   .     S
O692   Zn705   1.969   .     S
O692   Zn707   1.945   .     S
O693   Zn706   1.929   .     S
O694   Zn708   1.939   .     S
O695   Zn707   1.927   .     S
O696   Zn705   1.919   .     S
O697   Zn705   1.936   .     S
O698   Zn708   1.945   .     S
O699   Zn706   1.934   .     S
O700   Zn707   1.945   .     S
O701   Zn708   1.941   .     S
O702   Zn705   1.933   .     S
O703   Zn706   1.949   .     S
O704   Zn707   1.937   .     S
C709   O758    1.265   .     A
C709   O760    1.264   .     A
C709   C715    1.434   .     S
C710   Cl735   1.782   .     S
C710   C724    1.401   .     A
C710   C729    1.416   .     A
C711   N748    1.438   .     S
C711   C723    1.399   .     A
C711   C724    1.405   .     A
C712   O761    1.279   .     A
C712   O759    1.291   .     A
C712   C714    1.461   .     S
C713   C722    1.481   .     S
C713   C725    1.424   .     A
C713   C728    1.425   .     A
C714   C774    1.353   .     S
C714   Cl798   1.772   .     S
C715   C832    1.353   1_455 S
C715   N867    1.437   1_455 S
C716   C719    1.456   .     S
C716   C894    1.348   .     S
C716   Cl910   1.773   .     S
C717   C718    1.433   .     S
C718   O756    1.274   .     A
C718   O762    1.276   .     A
C719   O757    1.270   .     A
C719   O763    1.274   .     A
C720   C725    1.397   .     A
C720   Cl737   1.761   .     S
C720   C195    1.383   1_556 S
C721   C724    1.455   .     S
C721   O754    1.282   .     A
C721   O752    1.273   .     A
C722   O753    1.281   .     A
C722   O755    1.294   .     A
C725   Cl736   1.772   .     S
C726   H741    1.079   .     S
C727   C728    1.419   .     A
C727   C195    1.406   1_556 S
C727   C198    1.417   1_556 S
C728   C732    1.419   .     A
C730   C731    1.408   .     A
C730   C198    1.418   1_556 S
C730   C192    1.405   1_556 S
C731   C732    1.400   .     A
C731   Cl734   1.769   .     S
C732   Cl738   1.775   .     S
Cl739  C832    1.772   1_455 S
H740   C192    1.082   1_556 S
H742   N748    1.046   .     S
H743   N748    1.046   .     S
H744   N749    1.046   .     S
H745   N749    1.046   .     S
N749   C774    1.437   .     S
N750   H923    1.046   .     S
N750   H924    1.046   .     S
N750   C894    1.437   .     S
O751   Zn767   1.930   .     S
O751   Zn765   1.943   .     S
O751   Zn764   1.969   .     S
O751   Zn766   1.945   .     S
O752   Zn765   1.929   .     S
O753   Zn767   1.939   .     S
O754   Zn766   1.927   .     S
O755   Zn764   1.919   .     S
O756   Zn764   1.936   .     S
O757   Zn767   1.945   .     S
O758   Zn765   1.934   .     S
O759   Zn766   1.945   .     S
O760   Zn767   1.941   .     S
O761   Zn764   1.933   .     S
O762   Zn765   1.949   .     S
O763   Zn766   1.937   .     S
C768   O817    1.265   .     A
C768   O819    1.264   .     A
C768   C774    1.434   .     S
C769   Cl794   1.782   .     S
C769   C783    1.401   .     A
C769   C788    1.416   .     A
C770   N807    1.438   .     S
C770   C782    1.399   .     A
C770   C783    1.405   .     A
C771   O820    1.279   .     A
C771   O818    1.291   .     A
C771   C773    1.461   .     S
C772   C781    1.481   .     S
C772   C784    1.424   .     A
C772   C787    1.425   .     A
C773   C833    1.353   .     S
C773   Cl857   1.772   .     S
C775   C778    1.456   .     S
C775   C953    1.348   .     S
C775   Cl969   1.773   .     S
C776   C777    1.433   .     S
C777   O815    1.274   .     A
C777   O821    1.276   .     A
C778   O816    1.270   .     A
C778   O822    1.274   .     A
C779   C784    1.397   .     A
C779   Cl796   1.761   .     S
C779   C254    1.383   1_556 S
C780   C783    1.455   .     S
C780   O813    1.282   .     A
C780   O811    1.273   .     A
C781   O812    1.281   .     A
C781   O814    1.294   .     A
C784   Cl795   1.772   .     S
C785   H800    1.079   .     S
C786   C787    1.419   .     A
C786   C254    1.406   1_556 S
C786   C257    1.417   1_556 S
C787   C791    1.419   .     A
C789   C790    1.408   .     A
C789   C257    1.418   1_556 S
C789   C251    1.405   1_556 S
C790   C791    1.400   .     A
C790   Cl793   1.769   .     S
C791   Cl797   1.775   .     S
H799   C251    1.082   1_556 S
H801   N807    1.046   .     S
H802   N807    1.046   .     S
H803   N808    1.046   .     S
H804   N808    1.046   .     S
N808   C833    1.437   .     S
N809   H982    1.046   .     S
N809   H983    1.046   .     S
N809   C953    1.437   .     S
O810   Zn826   1.930   .     S
O810   Zn824   1.943   .     S
O810   Zn823   1.969   .     S
O810   Zn825   1.945   .     S
O811   Zn824   1.929   .     S
O812   Zn826   1.939   .     S
O813   Zn825   1.927   .     S
O814   Zn823   1.919   .     S
O815   Zn823   1.936   .     S
O816   Zn826   1.945   .     S
O817   Zn824   1.934   .     S
O818   Zn825   1.945   .     S
O819   Zn826   1.941   .     S
O820   Zn823   1.933   .     S
O821   Zn824   1.949   .     S
O822   Zn825   1.937   .     S
C827   O876    1.265   .     A
C827   O878    1.264   .     A
C827   C833    1.434   .     S
C828   Cl853   1.782   .     S
C828   C842    1.401   .     A
C828   C847    1.416   .     A
C829   N866    1.438   .     S
C829   C841    1.399   .     A
C829   C842    1.405   .     A
C830   O879    1.279   .     A
C830   O877    1.291   .     A
C830   C832    1.461   .     S
C831   C840    1.481   .     S
C831   C843    1.424   .     A
C831   C846    1.425   .     A
C832   C715    1.353   1_655 S
C832   Cl739   1.772   1_655 S
C834   C837    1.456   .     S
C834   C1012   1.348   .     S
C834   Cl1028  1.773   .     S
C835   C836    1.433   .     S
C836   O874    1.274   .     A
C836   O880    1.276   .     A
C837   O875    1.270   .     A
C837   O881    1.274   .     A
C838   C843    1.397   .     A
C838   Cl855   1.761   .     S
C838   C313    1.383   1_556 S
C839   C842    1.455   .     S
C839   O872    1.282   .     A
C839   O870    1.273   .     A
C840   O871    1.281   .     A
C840   O873    1.294   .     A
C843   Cl854   1.772   .     S
C844   H859    1.079   .     S
C845   C846    1.419   .     A
C845   C313    1.406   1_556 S
C845   C316    1.417   1_556 S
C846   C850    1.419   .     A
C848   C849    1.408   .     A
C848   C316    1.418   1_556 S
C848   C310    1.405   1_556 S
C849   C850    1.400   .     A
C849   Cl852   1.769   .     S
C850   Cl856   1.775   .     S
H858   C310    1.082   1_556 S
H860   N866    1.046   .     S
H861   N866    1.046   .     S
H862   N867    1.046   .     S
H863   N867    1.046   .     S
N867   C715    1.437   1_655 S
N868   H1041   1.046   .     S
N868   H1042   1.046   .     S
N868   C1012   1.437   .     S
O869   Zn885   1.930   .     S
O869   Zn883   1.943   .     S
O869   Zn882   1.969   .     S
O869   Zn884   1.945   .     S
O870   Zn883   1.929   .     S
O871   Zn885   1.939   .     S
O872   Zn884   1.927   .     S
O873   Zn882   1.919   .     S
O874   Zn882   1.936   .     S
O875   Zn885   1.945   .     S
O876   Zn883   1.934   .     S
O877   Zn884   1.945   .     S
O878   Zn885   1.941   .     S
O879   Zn882   1.933   .     S
O880   Zn883   1.949   .     S
O881   Zn884   1.937   .     S
C886   O935    1.265   .     A
C886   O937    1.264   .     A
C886   C892    1.434   .     S
C887   Cl912   1.782   .     S
C887   C901    1.401   .     A
C887   C906    1.416   .     A
C888   N925    1.438   .     S
C888   C900    1.399   .     A
C888   C901    1.405   .     A
C889   O938    1.279   .     A
C889   O936    1.291   .     A
C889   C891    1.461   .     S
C890   C899    1.481   .     S
C890   C902    1.424   .     A
C890   C905    1.425   .     A
C891   C951    1.353   .     S
C891   Cl975   1.772   .     S
C892   C1009   1.353   1_455 S
C892   N1044   1.437   1_455 S
C893   C896    1.456   .     S
C893   C540    1.348   1_565 S
C893   Cl556   1.773   1_565 S
C894   C895    1.433   .     S
C895   O933    1.274   .     A
C895   O939    1.276   .     A
C896   O934    1.270   .     A
C896   O940    1.274   .     A
C897   C902    1.397   .     A
C897   Cl914   1.761   .     S
C897   C372    1.383   1_556 S
C898   C901    1.455   .     S
C898   O931    1.282   .     A
C898   O929    1.273   .     A
C899   O930    1.281   .     A
C899   O932    1.294   .     A
C902   Cl913   1.772   .     S
C903   H918    1.079   .     S
C904   C905    1.419   .     A
C904   C372    1.406   1_556 S
C904   C375    1.417   1_556 S
C905   C909    1.419   .     A
C907   C908    1.408   .     A
C907   C375    1.418   1_556 S
C907   C369    1.405   1_556 S
C908   C909    1.400   .     A
C908   Cl911   1.769   .     S
C909   Cl915   1.775   .     S
Cl916  C1009   1.772   1_455 S
H917   C369    1.082   1_556 S
H919   N925    1.046   .     S
H920   N925    1.046   .     S
H921   N926    1.046   .     S
H922   N926    1.046   .     S
N926   C951    1.437   .     S
N927   H569    1.046   1_565 S
N927   H570    1.046   1_565 S
N927   C540    1.437   1_565 S
O928   Zn944   1.930   .     S
O928   Zn942   1.943   .     S
O928   Zn941   1.969   .     S
O928   Zn943   1.945   .     S
O929   Zn942   1.929   .     S
O930   Zn944   1.939   .     S
O931   Zn943   1.927   .     S
O932   Zn941   1.919   .     S
O933   Zn941   1.936   .     S
O934   Zn944   1.945   .     S
O935   Zn942   1.934   .     S
O936   Zn943   1.945   .     S
O937   Zn944   1.941   .     S
O938   Zn941   1.933   .     S
O939   Zn942   1.949   .     S
O940   Zn943   1.937   .     S
C945   O994    1.265   .     A
C945   O996    1.264   .     A
C945   C951    1.434   .     S
C946   Cl971   1.782   .     S
C946   C960    1.401   .     A
C946   C965    1.416   .     A
C947   N984    1.438   .     S
C947   C959    1.399   .     A
C947   C960    1.405   .     A
C948   O997    1.279   .     A
C948   O995    1.291   .     A
C948   C950    1.461   .     S
C949   C958    1.481   .     S
C949   C961    1.424   .     A
C949   C964    1.425   .     A
C950   C1010   1.353   .     S
C950   Cl1034  1.772   .     S
C952   C955    1.456   .     S
C952   C599    1.348   1_565 S
C952   Cl615   1.773   1_565 S
C953   C954    1.433   .     S
C954   O992    1.274   .     A
C954   O998    1.276   .     A
C955   O993    1.270   .     A
C955   O999    1.274   .     A
C956   C961    1.397   .     A
C956   Cl973   1.761   .     S
C956   C431    1.383   1_556 S
C957   C960    1.455   .     S
C957   O990    1.282   .     A
C957   O988    1.273   .     A
C958   O989    1.281   .     A
C958   O991    1.294   .     A
C961   Cl972   1.772   .     S
C962   H977    1.079   .     S
C963   C964    1.419   .     A
C963   C431    1.406   1_556 S
C963   C434    1.417   1_556 S
C964   C968    1.419   .     A
C966   C967    1.408   .     A
C966   C434    1.418   1_556 S
C966   C428    1.405   1_556 S
C967   C968    1.400   .     A
C967   Cl970   1.769   .     S
C968   Cl974   1.775   .     S
H976   C428    1.082   1_556 S
H978   N984    1.046   .     S
H979   N984    1.046   .     S
H980   N985    1.046   .     S
H981   N985    1.046   .     S
N985   C1010   1.437   .     S
N986   H628    1.046   1_565 S
N986   H629    1.046   1_565 S
N986   C599    1.437   1_565 S
O987   Zn1003  1.930   .     S
O987   Zn1001  1.943   .     S
O987   Zn1000  1.969   .     S
O987   Zn1002  1.945   .     S
O988   Zn1001  1.929   .     S
O989   Zn1003  1.939   .     S
O990   Zn1002  1.927   .     S
O991   Zn1000  1.919   .     S
O992   Zn1000  1.936   .     S
O993   Zn1003  1.945   .     S
O994   Zn1001  1.934   .     S
O995   Zn1002  1.945   .     S
O996   Zn1003  1.941   .     S
O997   Zn1000  1.933   .     S
O998   Zn1001  1.949   .     S
O999   Zn1002  1.937   .     S
C1004  O1053   1.265   .     A
C1004  O1055   1.264   .     A
C1004  C1010   1.434   .     S
C1005  Cl1030  1.782   .     S
C1005  C1019   1.401   .     A
C1005  C1024   1.416   .     A
C1006  N1043   1.438   .     S
C1006  C1018   1.399   .     A
C1006  C1019   1.405   .     A
C1007  O1056   1.279   .     A
C1007  O1054   1.291   .     A
C1007  C1009   1.461   .     S
C1008  C1017   1.481   .     S
C1008  C1020   1.424   .     A
C1008  C1023   1.425   .     A
C1009  C892    1.353   1_655 S
C1009  Cl916   1.772   1_655 S
C1011  C1014   1.456   .     S
C1011  C658    1.348   1_565 S
C1011  Cl674   1.773   1_565 S
C1012  C1013   1.433   .     S
C1013  O1051   1.274   .     A
C1013  O1057   1.276   .     A
C1014  O1052   1.270   .     A
C1014  O1058   1.274   .     A
C1015  C1020   1.397   .     A
C1015  Cl1032  1.761   .     S
C1015  C490    1.383   1_556 S
C1016  C1019   1.455   .     S
C1016  O1049   1.282   .     A
C1016  O1047   1.273   .     A
C1017  O1048   1.281   .     A
C1017  O1050   1.294   .     A
C1020  Cl1031  1.772   .     S
C1021  H1036   1.079   .     S
C1022  C1023   1.419   .     A
C1022  C490    1.406   1_556 S
C1022  C493    1.417   1_556 S
C1023  C1027   1.419   .     A
C1025  C1026   1.408   .     A
C1025  C493    1.418   1_556 S
C1025  C487    1.405   1_556 S
C1026  C1027   1.400   .     A
C1026  Cl1029  1.769   .     S
C1027  Cl1033  1.775   .     S
H1035  C487    1.082   1_556 S
H1037  N1043   1.046   .     S
H1038  N1043   1.046   .     S
H1039  N1044   1.046   .     S
H1040  N1044   1.046   .     S
N1044  C892    1.437   1_655 S
N1045  H687    1.046   1_565 S
N1045  H688    1.046   1_565 S
N1045  C658    1.437   1_565 S
O1046  Zn1062  1.930   .     S
O1046  Zn1060  1.943   .     S
O1046  Zn1059  1.969   .     S
O1046  Zn1061  1.945   .     S
O1047  Zn1060  1.929   .     S
O1048  Zn1062  1.939   .     S
O1049  Zn1061  1.927   .     S
O1050  Zn1059  1.919   .     S
O1051  Zn1059  1.936   .     S
O1052  Zn1062  1.945   .     S
O1053  Zn1060  1.934   .     S
O1054  Zn1061  1.945   .     S
O1055  Zn1062  1.941   .     S
O1056  Zn1059  1.933   .     S
O1057  Zn1060  1.949   .     S
O1058  Zn1061  1.937   .     S
