data_str_m1_o10_o18_pcu_sym.209
_audit_creation_date              2020-01-03
_audit_creation_method            'Materials Studio'
_symmetry_space_group_name_H-M    'P1'
_symmetry_Int_Tables_number       1
_symmetry_cell_setting            triclinic
loop_
_symmetry_equiv_pos_as_xyz
  x,y,z
_cell_length_a                    32.6100
_cell_length_b                    32.5417
_cell_length_c                    35.4446
_cell_angle_alpha                 98.0994
_cell_angle_beta                  72.9340
_cell_angle_gamma                 98.7409
loop_
_atom_site_label
_atom_site_type_symbol
_atom_site_fract_x
_atom_site_fract_y
_atom_site_fract_z
_atom_site_U_iso_or_equiv
_atom_site_adp_type
_atom_site_occupancy
C1     C     0.05235   0.15941   0.25938   0.00000  Uiso   1.00
C2     C     0.18658   0.11575   0.45927   0.00000  Uiso   1.00
C3     C     0.21513   0.10589   0.47836   0.00000  Uiso   1.00
C4     C     0.28128   0.17353   0.24091   0.00000  Uiso   1.00
C5     C     0.21001   0.11790   0.01878   0.00000  Uiso   1.00
C6     C     0.17288   0.13716   0.04146   0.00000  Uiso   1.00
C7     C     0.24026   0.10938   0.03742   0.00000  Uiso   1.00
C8     C     0.23342   0.11947   0.07818   0.00000  Uiso   1.00
C9     C     0.16682   0.14646   0.08274   0.00000  Uiso   1.00
C10    C     0.32769   0.17597   0.23626   0.00000  Uiso   1.00
C11    C     0.00726   0.15783   0.26189   0.00000  Uiso   1.00
C12    C     0.09191   0.20682   0.42094   0.00000  Uiso   1.00
C13    C     0.18120   0.32224   0.23806   0.00000  Uiso   1.00
C14    C     0.15166   0.01201   0.26203   0.00000  Uiso   1.00
C15    C     0.15601   0.05606   0.25883   0.00000  Uiso   1.00
C16    C     0.17696   0.27772   0.24130   0.00000  Uiso   1.00
C17    C     0.18803   0.14555   0.14378   0.00000  Uiso   1.00
C18    C     0.14505   0.18735   0.35644   0.00000  Uiso   1.00
C19    C     0.12995   0.18994   0.40018   0.00000  Uiso   1.00
C20    C     0.19650   0.13726   0.10081   0.00000  Uiso   1.00
C21    C     0.07457   0.20505   0.46200   0.00000  Uiso   1.00
C22    C     0.03210   0.18188   0.04843   0.00000  Uiso   1.00
C23    C     0.15164   0.17193   0.42081   0.00000  Uiso   1.00
C24    C     0.02665   0.19840   0.20317   0.00000  Uiso   1.00
C25    C     0.03771   0.23078   0.48186   0.00000  Uiso   1.00
C26    C     0.18727   0.09129   0.41955   0.00000  Uiso   1.00
C27    C     0.13309   0.16456   0.46079   0.00000  Uiso   1.00
C28    C     0.09418   0.18215   0.48260   0.00000  Uiso   1.00
C29    C     0.15464   0.14261   0.47999   0.00000  Uiso   1.00
C30    C     0.14404   0.14785   0.02190   0.00000  Uiso   1.00
C31    C     0.10410   0.16199   0.04284   0.00000  Uiso   1.00
C32    C     0.07775   0.17623   0.02375   0.00000  Uiso   1.00
Cl33   Cl    0.28736   0.08618   0.01106   0.00000  Uiso   1.00
H34    H     0.31765   0.14205   0.28589   0.00000  Uiso   1.00
H35    H     0.02380   0.16795   0.07699   0.00000  Uiso   1.00
H36    H     0.02772   0.21535   0.05639   0.00000  Uiso   1.00
H37    H     0.00870   0.16513   0.03270   0.00000  Uiso   1.00
H38    H     0.01070   0.21147   0.18462   0.00000  Uiso   1.00
H39    H     0.04618   0.22464   0.21591   0.00000  Uiso   1.00
H40    H     0.04848   0.17631   0.18346   0.00000  Uiso   1.00
H41    H     0.03164   0.25010   0.46102   0.00000  Uiso   1.00
H42    H     0.00708   0.21058   0.49273   0.00000  Uiso   1.00
H43    H     0.04591   0.25328   0.00586   0.00000  Uiso   1.00
H44    H     0.15736   0.09218   0.41097   0.00000  Uiso   1.00
H45    H     0.20855   0.00299   0.21603   0.00000  Uiso   1.00
H46    H     0.21609   0.10303   0.39629   0.00000  Uiso   1.00
H47    H     0.18906   0.05776   0.42113   0.00000  Uiso   1.00
H48    H     0.12385   0.33197   0.28402   0.00000  Uiso   1.00
H49    H     0.14012   0.16215   0.10163   0.00000  Uiso   1.00
H50    H     0.25651   0.11266   0.09240   0.00000  Uiso   1.00
H51    H     0.24048   0.08718   0.46144   0.00000  Uiso   1.00
H52    H     0.07574   0.22193   0.40494   0.00000  Uiso   1.00
H53    H     0.18356   0.16390   0.40507   0.00000  Uiso   1.00
H54    H     0.09147   0.15992   0.07432   0.00000  Uiso   1.00
O55    O     0.16667   0.16667   0.25000   0.00000  Uiso   1.00
O56    O     0.15693   0.12393   0.16625   0.00000  Uiso   1.00
O57    O     0.12687   0.20646   0.33749   0.00000  Uiso   1.00
O58    O     0.21088   0.17493   0.15877   0.00000  Uiso   1.00
O59    O     0.17198   0.16135   0.33749   0.00000  Uiso   1.00
O60    O     0.17849   0.08101   0.27820   0.00000  Uiso   1.00
O61    O     0.14581   0.26136   0.26767   0.00000  Uiso   1.00
O62    O     0.07452   0.13251   0.23607   0.00000  Uiso   1.00
O63    O     0.26785   0.19179   0.21805   0.00000  Uiso   1.00
O64    O     0.06990   0.18960   0.27820   0.00000  Uiso   1.00
O65    O     0.25440   0.15277   0.26767   0.00000  Uiso   1.00
O66    O     0.13800   0.06903   0.23607   0.00000  Uiso   1.00
O67    O     0.20437   0.25527   0.21805   0.00000  Uiso   1.00
Zn68   Zn    0.19244   0.14090   0.28277   0.00000  Uiso   1.00
Zn69   Zn    0.13459   0.12378   0.22257   0.00000  Uiso   1.00
Zn70   Zn    0.21166   0.19664   0.21188   0.00000  Uiso   1.00
Zn71   Zn    0.12798   0.20535   0.28277   0.00000  Uiso   1.00
C72    C     0.38568   0.15941   0.25938   0.00000  Uiso   1.00
C73    C     0.51991   0.11575   0.45927   0.00000  Uiso   1.00
C74    C     0.54846   0.10589   0.47836   0.00000  Uiso   1.00
C75    C     0.61461   0.17353   0.24091   0.00000  Uiso   1.00
C76    C     0.54334   0.11790   0.01878   0.00000  Uiso   1.00
C77    C     0.50622   0.13716   0.04146   0.00000  Uiso   1.00
C78    C     0.57359   0.10938   0.03742   0.00000  Uiso   1.00
C79    C     0.56675   0.11947   0.07818   0.00000  Uiso   1.00
C80    C     0.50016   0.14646   0.08274   0.00000  Uiso   1.00
C81    C     0.66102   0.17597   0.23626   0.00000  Uiso   1.00
C82    C     0.34059   0.15783   0.26189   0.00000  Uiso   1.00
C83    C     0.42525   0.20682   0.42094   0.00000  Uiso   1.00
C84    C     0.51453   0.32224   0.23806   0.00000  Uiso   1.00
C85    C     0.48499   0.01201   0.26203   0.00000  Uiso   1.00
C86    C     0.48935   0.05606   0.25883   0.00000  Uiso   1.00
C87    C     0.51029   0.27772   0.24130   0.00000  Uiso   1.00
C88    C     0.52136   0.14555   0.14378   0.00000  Uiso   1.00
C89    C     0.47838   0.18735   0.35644   0.00000  Uiso   1.00
C90    C     0.46329   0.18994   0.40018   0.00000  Uiso   1.00
C91    C     0.52983   0.13726   0.10081   0.00000  Uiso   1.00
C92    C     0.40790   0.20505   0.46200   0.00000  Uiso   1.00
C93    C     0.36543   0.18188   0.04843   0.00000  Uiso   1.00
C94    C     0.48497   0.17193   0.42081   0.00000  Uiso   1.00
C95    C     0.35998   0.19840   0.20317   0.00000  Uiso   1.00
C96    C     0.37105   0.23078   0.48186   0.00000  Uiso   1.00
C97    C     0.52061   0.09129   0.41955   0.00000  Uiso   1.00
C98    C     0.46642   0.16456   0.46079   0.00000  Uiso   1.00
C99    C     0.42752   0.18215   0.48260   0.00000  Uiso   1.00
C100   C     0.48797   0.14261   0.47999   0.00000  Uiso   1.00
C101   C     0.47737   0.14785   0.02190   0.00000  Uiso   1.00
C102   C     0.43744   0.16199   0.04284   0.00000  Uiso   1.00
C103   C     0.41108   0.17623   0.02375   0.00000  Uiso   1.00
Cl104  Cl    0.62069   0.08618   0.01106   0.00000  Uiso   1.00
H105   H     0.65098   0.14205   0.28589   0.00000  Uiso   1.00
H106   H     0.35713   0.16795   0.07699   0.00000  Uiso   1.00
H107   H     0.36105   0.21535   0.05639   0.00000  Uiso   1.00
H108   H     0.34203   0.16513   0.03270   0.00000  Uiso   1.00
H109   H     0.34403   0.21147   0.18462   0.00000  Uiso   1.00
H110   H     0.37951   0.22464   0.21591   0.00000  Uiso   1.00
H111   H     0.38182   0.17631   0.18346   0.00000  Uiso   1.00
H112   H     0.36497   0.25010   0.46102   0.00000  Uiso   1.00
H113   H     0.34041   0.21058   0.49273   0.00000  Uiso   1.00
H114   H     0.37924   0.25328   0.00586   0.00000  Uiso   1.00
H115   H     0.49069   0.09218   0.41097   0.00000  Uiso   1.00
H116   H     0.54189   0.00299   0.21603   0.00000  Uiso   1.00
H117   H     0.54942   0.10303   0.39629   0.00000  Uiso   1.00
H118   H     0.52239   0.05776   0.42113   0.00000  Uiso   1.00
H119   H     0.45718   0.33197   0.28402   0.00000  Uiso   1.00
H120   H     0.47345   0.16215   0.10163   0.00000  Uiso   1.00
H121   H     0.58985   0.11266   0.09240   0.00000  Uiso   1.00
H122   H     0.57382   0.08718   0.46144   0.00000  Uiso   1.00
H123   H     0.40907   0.22193   0.40494   0.00000  Uiso   1.00
H124   H     0.51689   0.16390   0.40507   0.00000  Uiso   1.00
H125   H     0.42481   0.15992   0.07432   0.00000  Uiso   1.00
O126   O     0.50000   0.16667   0.25000   0.00000  Uiso   1.00
O127   O     0.49027   0.12393   0.16625   0.00000  Uiso   1.00
O128   O     0.46020   0.20646   0.33749   0.00000  Uiso   1.00
O129   O     0.54421   0.17493   0.15877   0.00000  Uiso   1.00
O130   O     0.50532   0.16135   0.33749   0.00000  Uiso   1.00
O131   O     0.51182   0.08101   0.27820   0.00000  Uiso   1.00
O132   O     0.47914   0.26136   0.26767   0.00000  Uiso   1.00
O133   O     0.40785   0.13251   0.23607   0.00000  Uiso   1.00
O134   O     0.60119   0.19179   0.21805   0.00000  Uiso   1.00
O135   O     0.40323   0.18960   0.27820   0.00000  Uiso   1.00
O136   O     0.58773   0.15277   0.26767   0.00000  Uiso   1.00
O137   O     0.47133   0.06903   0.23607   0.00000  Uiso   1.00
O138   O     0.53771   0.25527   0.21805   0.00000  Uiso   1.00
Zn139  Zn    0.52577   0.14090   0.28277   0.00000  Uiso   1.00
Zn140  Zn    0.46792   0.12378   0.22257   0.00000  Uiso   1.00
Zn141  Zn    0.54500   0.19664   0.21188   0.00000  Uiso   1.00
Zn142  Zn    0.46131   0.20535   0.28277   0.00000  Uiso   1.00
C143   C     0.71901   0.15941   0.25938   0.00000  Uiso   1.00
C144   C     0.85324   0.11575   0.45927   0.00000  Uiso   1.00
C145   C     0.88179   0.10589   0.47836   0.00000  Uiso   1.00
C146   C     0.94794   0.17353   0.24091   0.00000  Uiso   1.00
C147   C     0.87667   0.11790   0.01878   0.00000  Uiso   1.00
C148   C     0.83955   0.13716   0.04146   0.00000  Uiso   1.00
C149   C     0.90693   0.10938   0.03742   0.00000  Uiso   1.00
C150   C     0.90009   0.11947   0.07818   0.00000  Uiso   1.00
C151   C     0.83349   0.14646   0.08274   0.00000  Uiso   1.00
C152   C     0.99436   0.17597   0.23626   0.00000  Uiso   1.00
C153   C     0.67392   0.15783   0.26189   0.00000  Uiso   1.00
C154   C     0.75858   0.20682   0.42094   0.00000  Uiso   1.00
C155   C     0.84786   0.32224   0.23806   0.00000  Uiso   1.00
C156   C     0.81832   0.01201   0.26203   0.00000  Uiso   1.00
C157   C     0.82268   0.05606   0.25883   0.00000  Uiso   1.00
C158   C     0.84362   0.27772   0.24130   0.00000  Uiso   1.00
C159   C     0.85469   0.14555   0.14378   0.00000  Uiso   1.00
C160   C     0.81171   0.18735   0.35644   0.00000  Uiso   1.00
C161   C     0.79662   0.18994   0.40018   0.00000  Uiso   1.00
C162   C     0.86317   0.13726   0.10081   0.00000  Uiso   1.00
C163   C     0.74124   0.20505   0.46200   0.00000  Uiso   1.00
C164   C     0.69877   0.18188   0.04843   0.00000  Uiso   1.00
C165   C     0.81830   0.17193   0.42081   0.00000  Uiso   1.00
C166   C     0.69331   0.19840   0.20317   0.00000  Uiso   1.00
C167   C     0.70438   0.23078   0.48186   0.00000  Uiso   1.00
C168   C     0.85394   0.09129   0.41955   0.00000  Uiso   1.00
C169   C     0.79976   0.16456   0.46079   0.00000  Uiso   1.00
C170   C     0.76085   0.18215   0.48260   0.00000  Uiso   1.00
C171   C     0.82131   0.14261   0.47999   0.00000  Uiso   1.00
C172   C     0.81071   0.14785   0.02190   0.00000  Uiso   1.00
C173   C     0.77077   0.16199   0.04284   0.00000  Uiso   1.00
C174   C     0.74441   0.17623   0.02375   0.00000  Uiso   1.00
Cl175  Cl    0.95402   0.08618   0.01106   0.00000  Uiso   1.00
H176   H     0.98431   0.14205   0.28589   0.00000  Uiso   1.00
H177   H     0.69047   0.16795   0.07699   0.00000  Uiso   1.00
H178   H     0.69439   0.21535   0.05639   0.00000  Uiso   1.00
H179   H     0.67537   0.16513   0.03270   0.00000  Uiso   1.00
H180   H     0.67736   0.21147   0.18462   0.00000  Uiso   1.00
H181   H     0.71284   0.22464   0.21591   0.00000  Uiso   1.00
H182   H     0.71515   0.17631   0.18346   0.00000  Uiso   1.00
H183   H     0.69830   0.25010   0.46102   0.00000  Uiso   1.00
H184   H     0.67374   0.21058   0.49273   0.00000  Uiso   1.00
H185   H     0.71257   0.25328   0.00586   0.00000  Uiso   1.00
H186   H     0.82402   0.09218   0.41097   0.00000  Uiso   1.00
H187   H     0.87522   0.00299   0.21603   0.00000  Uiso   1.00
H188   H     0.88276   0.10303   0.39629   0.00000  Uiso   1.00
H189   H     0.85572   0.05776   0.42113   0.00000  Uiso   1.00
H190   H     0.79052   0.33197   0.28402   0.00000  Uiso   1.00
H191   H     0.80679   0.16215   0.10163   0.00000  Uiso   1.00
H192   H     0.92318   0.11266   0.09240   0.00000  Uiso   1.00
H193   H     0.90715   0.08718   0.46144   0.00000  Uiso   1.00
H194   H     0.74240   0.22193   0.40494   0.00000  Uiso   1.00
H195   H     0.85023   0.16390   0.40507   0.00000  Uiso   1.00
H196   H     0.75814   0.15992   0.07432   0.00000  Uiso   1.00
O197   O     0.83333   0.16667   0.25000   0.00000  Uiso   1.00
O198   O     0.82360   0.12393   0.16625   0.00000  Uiso   1.00
O199   O     0.79354   0.20646   0.33749   0.00000  Uiso   1.00
O200   O     0.87755   0.17493   0.15877   0.00000  Uiso   1.00
O201   O     0.83865   0.16135   0.33749   0.00000  Uiso   1.00
O202   O     0.84515   0.08101   0.27820   0.00000  Uiso   1.00
O203   O     0.81247   0.26136   0.26767   0.00000  Uiso   1.00
O204   O     0.74119   0.13251   0.23607   0.00000  Uiso   1.00
O205   O     0.93452   0.19179   0.21805   0.00000  Uiso   1.00
O206   O     0.73656   0.18960   0.27820   0.00000  Uiso   1.00
O207   O     0.92106   0.15277   0.26767   0.00000  Uiso   1.00
O208   O     0.80467   0.06903   0.23607   0.00000  Uiso   1.00
O209   O     0.87104   0.25527   0.21805   0.00000  Uiso   1.00
Zn210  Zn    0.85910   0.14090   0.28277   0.00000  Uiso   1.00
Zn211  Zn    0.80125   0.12378   0.22257   0.00000  Uiso   1.00
Zn212  Zn    0.87833   0.19664   0.21188   0.00000  Uiso   1.00
Zn213  Zn    0.79465   0.20535   0.28277   0.00000  Uiso   1.00
C214   C     0.05235   0.49274   0.25938   0.00000  Uiso   1.00
C215   C     0.18658   0.44908   0.45927   0.00000  Uiso   1.00
C216   C     0.21513   0.43922   0.47836   0.00000  Uiso   1.00
C217   C     0.28128   0.50686   0.24091   0.00000  Uiso   1.00
C218   C     0.21001   0.45123   0.01878   0.00000  Uiso   1.00
C219   C     0.17288   0.47050   0.04146   0.00000  Uiso   1.00
C220   C     0.24026   0.44271   0.03742   0.00000  Uiso   1.00
C221   C     0.23342   0.45280   0.07818   0.00000  Uiso   1.00
C222   C     0.16682   0.47980   0.08274   0.00000  Uiso   1.00
C223   C     0.32769   0.50930   0.23626   0.00000  Uiso   1.00
C224   C     0.00726   0.49116   0.26189   0.00000  Uiso   1.00
C225   C     0.09191   0.54015   0.42094   0.00000  Uiso   1.00
C226   C     0.18120   0.65558   0.23806   0.00000  Uiso   1.00
C227   C     0.15166   0.34534   0.26203   0.00000  Uiso   1.00
C228   C     0.15601   0.38939   0.25883   0.00000  Uiso   1.00
C229   C     0.17696   0.61106   0.24130   0.00000  Uiso   1.00
C230   C     0.18803   0.47889   0.14378   0.00000  Uiso   1.00
C231   C     0.14505   0.52068   0.35644   0.00000  Uiso   1.00
C232   C     0.12995   0.52328   0.40018   0.00000  Uiso   1.00
C233   C     0.19650   0.47059   0.10081   0.00000  Uiso   1.00
C234   C     0.07457   0.53839   0.46200   0.00000  Uiso   1.00
C235   C     0.03210   0.51521   0.04843   0.00000  Uiso   1.00
C236   C     0.15164   0.50527   0.42081   0.00000  Uiso   1.00
C237   C     0.02665   0.53174   0.20317   0.00000  Uiso   1.00
C238   C     0.03771   0.56412   0.48186   0.00000  Uiso   1.00
C239   C     0.18727   0.42462   0.41955   0.00000  Uiso   1.00
C240   C     0.13309   0.49790   0.46079   0.00000  Uiso   1.00
C241   C     0.09418   0.51548   0.48260   0.00000  Uiso   1.00
C242   C     0.15464   0.47594   0.47999   0.00000  Uiso   1.00
C243   C     0.14404   0.48119   0.02190   0.00000  Uiso   1.00
C244   C     0.10410   0.49533   0.04284   0.00000  Uiso   1.00
C245   C     0.07775   0.50956   0.02375   0.00000  Uiso   1.00
Cl246  Cl    0.28736   0.41952   0.01106   0.00000  Uiso   1.00
H247   H     0.31765   0.47538   0.28589   0.00000  Uiso   1.00
H248   H     0.02380   0.50128   0.07699   0.00000  Uiso   1.00
H249   H     0.02772   0.54868   0.05639   0.00000  Uiso   1.00
H250   H     0.00870   0.49846   0.03270   0.00000  Uiso   1.00
H251   H     0.01070   0.54480   0.18462   0.00000  Uiso   1.00
H252   H     0.04618   0.55798   0.21591   0.00000  Uiso   1.00
H253   H     0.04848   0.50965   0.18346   0.00000  Uiso   1.00
H254   H     0.03164   0.58343   0.46102   0.00000  Uiso   1.00
H255   H     0.00708   0.54391   0.49273   0.00000  Uiso   1.00
H256   H     0.04591   0.58661   0.00586   0.00000  Uiso   1.00
H257   H     0.15736   0.42551   0.41097   0.00000  Uiso   1.00
H258   H     0.20855   0.33632   0.21603   0.00000  Uiso   1.00
H259   H     0.21609   0.43636   0.39629   0.00000  Uiso   1.00
H260   H     0.18906   0.39109   0.42113   0.00000  Uiso   1.00
H261   H     0.12385   0.66530   0.28402   0.00000  Uiso   1.00
H262   H     0.14012   0.49548   0.10163   0.00000  Uiso   1.00
H263   H     0.25651   0.44599   0.09240   0.00000  Uiso   1.00
H264   H     0.24048   0.42051   0.46144   0.00000  Uiso   1.00
H265   H     0.07574   0.55526   0.40494   0.00000  Uiso   1.00
H266   H     0.18356   0.49724   0.40507   0.00000  Uiso   1.00
H267   H     0.09147   0.49325   0.07432   0.00000  Uiso   1.00
O268   O     0.16667   0.50000   0.25000   0.00000  Uiso   1.00
O269   O     0.15693   0.45726   0.16625   0.00000  Uiso   1.00
O270   O     0.12687   0.53979   0.33749   0.00000  Uiso   1.00
O271   O     0.21088   0.50826   0.15877   0.00000  Uiso   1.00
O272   O     0.17198   0.49468   0.33749   0.00000  Uiso   1.00
O273   O     0.17849   0.41434   0.27820   0.00000  Uiso   1.00
O274   O     0.14581   0.59469   0.26767   0.00000  Uiso   1.00
O275   O     0.07452   0.46584   0.23607   0.00000  Uiso   1.00
O276   O     0.26785   0.52512   0.21805   0.00000  Uiso   1.00
O277   O     0.06990   0.52293   0.27820   0.00000  Uiso   1.00
O278   O     0.25440   0.48610   0.26767   0.00000  Uiso   1.00
O279   O     0.13800   0.40236   0.23607   0.00000  Uiso   1.00
O280   O     0.20437   0.58860   0.21805   0.00000  Uiso   1.00
Zn281  Zn    0.19244   0.47423   0.28277   0.00000  Uiso   1.00
Zn282  Zn    0.13459   0.45711   0.22257   0.00000  Uiso   1.00
Zn283  Zn    0.21166   0.52997   0.21188   0.00000  Uiso   1.00
Zn284  Zn    0.12798   0.53868   0.28277   0.00000  Uiso   1.00
C285   C     0.38568   0.49274   0.25938   0.00000  Uiso   1.00
C286   C     0.51991   0.44908   0.45927   0.00000  Uiso   1.00
C287   C     0.54846   0.43922   0.47836   0.00000  Uiso   1.00
C288   C     0.61461   0.50686   0.24091   0.00000  Uiso   1.00
C289   C     0.54334   0.45123   0.01878   0.00000  Uiso   1.00
C290   C     0.50622   0.47050   0.04146   0.00000  Uiso   1.00
C291   C     0.57359   0.44271   0.03742   0.00000  Uiso   1.00
C292   C     0.56675   0.45280   0.07818   0.00000  Uiso   1.00
C293   C     0.50016   0.47980   0.08274   0.00000  Uiso   1.00
C294   C     0.66102   0.50930   0.23626   0.00000  Uiso   1.00
C295   C     0.34059   0.49116   0.26189   0.00000  Uiso   1.00
C296   C     0.42525   0.54015   0.42094   0.00000  Uiso   1.00
C297   C     0.51453   0.65558   0.23806   0.00000  Uiso   1.00
C298   C     0.48499   0.34534   0.26203   0.00000  Uiso   1.00
C299   C     0.48935   0.38939   0.25883   0.00000  Uiso   1.00
C300   C     0.51029   0.61106   0.24130   0.00000  Uiso   1.00
C301   C     0.52136   0.47889   0.14378   0.00000  Uiso   1.00
C302   C     0.47838   0.52068   0.35644   0.00000  Uiso   1.00
C303   C     0.46329   0.52328   0.40018   0.00000  Uiso   1.00
C304   C     0.52983   0.47059   0.10081   0.00000  Uiso   1.00
C305   C     0.40790   0.53839   0.46200   0.00000  Uiso   1.00
C306   C     0.36543   0.51521   0.04843   0.00000  Uiso   1.00
C307   C     0.48497   0.50527   0.42081   0.00000  Uiso   1.00
C308   C     0.35998   0.53174   0.20317   0.00000  Uiso   1.00
C309   C     0.37105   0.56412   0.48186   0.00000  Uiso   1.00
C310   C     0.52061   0.42462   0.41955   0.00000  Uiso   1.00
C311   C     0.46642   0.49790   0.46079   0.00000  Uiso   1.00
C312   C     0.42752   0.51548   0.48260   0.00000  Uiso   1.00
C313   C     0.48797   0.47594   0.47999   0.00000  Uiso   1.00
C314   C     0.47737   0.48119   0.02190   0.00000  Uiso   1.00
C315   C     0.43744   0.49533   0.04284   0.00000  Uiso   1.00
C316   C     0.41108   0.50956   0.02375   0.00000  Uiso   1.00
Cl317  Cl    0.62069   0.41952   0.01106   0.00000  Uiso   1.00
H318   H     0.65098   0.47538   0.28589   0.00000  Uiso   1.00
H319   H     0.35713   0.50128   0.07699   0.00000  Uiso   1.00
H320   H     0.36105   0.54868   0.05639   0.00000  Uiso   1.00
H321   H     0.34203   0.49846   0.03270   0.00000  Uiso   1.00
H322   H     0.34403   0.54480   0.18462   0.00000  Uiso   1.00
H323   H     0.37951   0.55798   0.21591   0.00000  Uiso   1.00
H324   H     0.38182   0.50965   0.18346   0.00000  Uiso   1.00
H325   H     0.36497   0.58343   0.46102   0.00000  Uiso   1.00
H326   H     0.34041   0.54391   0.49273   0.00000  Uiso   1.00
H327   H     0.37924   0.58661   0.00586   0.00000  Uiso   1.00
H328   H     0.49069   0.42551   0.41097   0.00000  Uiso   1.00
H329   H     0.54189   0.33632   0.21603   0.00000  Uiso   1.00
H330   H     0.54942   0.43636   0.39629   0.00000  Uiso   1.00
H331   H     0.52239   0.39109   0.42113   0.00000  Uiso   1.00
H332   H     0.45718   0.66530   0.28402   0.00000  Uiso   1.00
H333   H     0.47345   0.49548   0.10163   0.00000  Uiso   1.00
H334   H     0.58985   0.44599   0.09240   0.00000  Uiso   1.00
H335   H     0.57382   0.42051   0.46144   0.00000  Uiso   1.00
H336   H     0.40907   0.55526   0.40494   0.00000  Uiso   1.00
H337   H     0.51689   0.49724   0.40507   0.00000  Uiso   1.00
H338   H     0.42481   0.49325   0.07432   0.00000  Uiso   1.00
O339   O     0.50000   0.50000   0.25000   0.00000  Uiso   1.00
O340   O     0.49027   0.45726   0.16625   0.00000  Uiso   1.00
O341   O     0.46020   0.53979   0.33749   0.00000  Uiso   1.00
O342   O     0.54421   0.50826   0.15877   0.00000  Uiso   1.00
O343   O     0.50532   0.49468   0.33749   0.00000  Uiso   1.00
O344   O     0.51182   0.41434   0.27820   0.00000  Uiso   1.00
O345   O     0.47914   0.59469   0.26767   0.00000  Uiso   1.00
O346   O     0.40785   0.46584   0.23607   0.00000  Uiso   1.00
O347   O     0.60119   0.52512   0.21805   0.00000  Uiso   1.00
O348   O     0.40323   0.52293   0.27820   0.00000  Uiso   1.00
O349   O     0.58773   0.48610   0.26767   0.00000  Uiso   1.00
O350   O     0.47133   0.40236   0.23607   0.00000  Uiso   1.00
O351   O     0.53771   0.58860   0.21805   0.00000  Uiso   1.00
Zn352  Zn    0.52577   0.47423   0.28277   0.00000  Uiso   1.00
Zn353  Zn    0.46792   0.45711   0.22257   0.00000  Uiso   1.00
Zn354  Zn    0.54500   0.52997   0.21188   0.00000  Uiso   1.00
Zn355  Zn    0.46131   0.53868   0.28277   0.00000  Uiso   1.00
C356   C     0.71901   0.49274   0.25938   0.00000  Uiso   1.00
C357   C     0.85324   0.44908   0.45927   0.00000  Uiso   1.00
C358   C     0.88179   0.43922   0.47836   0.00000  Uiso   1.00
C359   C     0.94794   0.50686   0.24091   0.00000  Uiso   1.00
C360   C     0.87667   0.45123   0.01878   0.00000  Uiso   1.00
C361   C     0.83955   0.47050   0.04146   0.00000  Uiso   1.00
C362   C     0.90693   0.44271   0.03742   0.00000  Uiso   1.00
C363   C     0.90009   0.45280   0.07818   0.00000  Uiso   1.00
C364   C     0.83349   0.47980   0.08274   0.00000  Uiso   1.00
C365   C     0.99436   0.50930   0.23626   0.00000  Uiso   1.00
C366   C     0.67392   0.49116   0.26189   0.00000  Uiso   1.00
C367   C     0.75858   0.54015   0.42094   0.00000  Uiso   1.00
C368   C     0.84786   0.65558   0.23806   0.00000  Uiso   1.00
C369   C     0.81832   0.34534   0.26203   0.00000  Uiso   1.00
C370   C     0.82268   0.38939   0.25883   0.00000  Uiso   1.00
C371   C     0.84362   0.61106   0.24130   0.00000  Uiso   1.00
C372   C     0.85469   0.47889   0.14378   0.00000  Uiso   1.00
C373   C     0.81171   0.52068   0.35644   0.00000  Uiso   1.00
C374   C     0.79662   0.52328   0.40018   0.00000  Uiso   1.00
C375   C     0.86317   0.47059   0.10081   0.00000  Uiso   1.00
C376   C     0.74124   0.53839   0.46200   0.00000  Uiso   1.00
C377   C     0.69877   0.51521   0.04843   0.00000  Uiso   1.00
C378   C     0.81830   0.50527   0.42081   0.00000  Uiso   1.00
C379   C     0.69331   0.53174   0.20317   0.00000  Uiso   1.00
C380   C     0.70438   0.56412   0.48186   0.00000  Uiso   1.00
C381   C     0.85394   0.42462   0.41955   0.00000  Uiso   1.00
C382   C     0.79976   0.49790   0.46079   0.00000  Uiso   1.00
C383   C     0.76085   0.51548   0.48260   0.00000  Uiso   1.00
C384   C     0.82131   0.47594   0.47999   0.00000  Uiso   1.00
C385   C     0.81071   0.48119   0.02190   0.00000  Uiso   1.00
C386   C     0.77077   0.49533   0.04284   0.00000  Uiso   1.00
C387   C     0.74441   0.50956   0.02375   0.00000  Uiso   1.00
Cl388  Cl    0.95402   0.41952   0.01106   0.00000  Uiso   1.00
H389   H     0.98431   0.47538   0.28589   0.00000  Uiso   1.00
H390   H     0.69047   0.50128   0.07699   0.00000  Uiso   1.00
H391   H     0.69439   0.54868   0.05639   0.00000  Uiso   1.00
H392   H     0.67537   0.49846   0.03270   0.00000  Uiso   1.00
H393   H     0.67736   0.54480   0.18462   0.00000  Uiso   1.00
H394   H     0.71284   0.55798   0.21591   0.00000  Uiso   1.00
H395   H     0.71515   0.50965   0.18346   0.00000  Uiso   1.00
H396   H     0.69830   0.58343   0.46102   0.00000  Uiso   1.00
H397   H     0.67374   0.54391   0.49273   0.00000  Uiso   1.00
H398   H     0.71257   0.58661   0.00586   0.00000  Uiso   1.00
H399   H     0.82402   0.42551   0.41097   0.00000  Uiso   1.00
H400   H     0.87522   0.33632   0.21603   0.00000  Uiso   1.00
H401   H     0.88276   0.43636   0.39629   0.00000  Uiso   1.00
H402   H     0.85572   0.39109   0.42113   0.00000  Uiso   1.00
H403   H     0.79052   0.66530   0.28402   0.00000  Uiso   1.00
H404   H     0.80679   0.49548   0.10163   0.00000  Uiso   1.00
H405   H     0.92318   0.44599   0.09240   0.00000  Uiso   1.00
H406   H     0.90715   0.42051   0.46144   0.00000  Uiso   1.00
H407   H     0.74240   0.55526   0.40494   0.00000  Uiso   1.00
H408   H     0.85023   0.49724   0.40507   0.00000  Uiso   1.00
H409   H     0.75814   0.49325   0.07432   0.00000  Uiso   1.00
O410   O     0.83333   0.50000   0.25000   0.00000  Uiso   1.00
O411   O     0.82360   0.45726   0.16625   0.00000  Uiso   1.00
O412   O     0.79354   0.53979   0.33749   0.00000  Uiso   1.00
O413   O     0.87755   0.50826   0.15877   0.00000  Uiso   1.00
O414   O     0.83865   0.49468   0.33749   0.00000  Uiso   1.00
O415   O     0.84515   0.41434   0.27820   0.00000  Uiso   1.00
O416   O     0.81247   0.59469   0.26767   0.00000  Uiso   1.00
O417   O     0.74119   0.46584   0.23607   0.00000  Uiso   1.00
O418   O     0.93452   0.52512   0.21805   0.00000  Uiso   1.00
O419   O     0.73656   0.52293   0.27820   0.00000  Uiso   1.00
O420   O     0.92106   0.48610   0.26767   0.00000  Uiso   1.00
O421   O     0.80467   0.40236   0.23607   0.00000  Uiso   1.00
O422   O     0.87104   0.58860   0.21805   0.00000  Uiso   1.00
Zn423  Zn    0.85910   0.47423   0.28277   0.00000  Uiso   1.00
Zn424  Zn    0.80125   0.45711   0.22257   0.00000  Uiso   1.00
Zn425  Zn    0.87833   0.52997   0.21188   0.00000  Uiso   1.00
Zn426  Zn    0.79465   0.53868   0.28277   0.00000  Uiso   1.00
C427   C     0.05235   0.82607   0.25938   0.00000  Uiso   1.00
C428   C     0.18658   0.78241   0.45927   0.00000  Uiso   1.00
C429   C     0.21513   0.77256   0.47836   0.00000  Uiso   1.00
C430   C     0.28128   0.84020   0.24091   0.00000  Uiso   1.00
C431   C     0.21001   0.78456   0.01878   0.00000  Uiso   1.00
C432   C     0.17288   0.80383   0.04146   0.00000  Uiso   1.00
C433   C     0.24026   0.77605   0.03742   0.00000  Uiso   1.00
C434   C     0.23342   0.78614   0.07818   0.00000  Uiso   1.00
C435   C     0.16682   0.81313   0.08274   0.00000  Uiso   1.00
C436   C     0.32769   0.84264   0.23626   0.00000  Uiso   1.00
C437   C     0.00726   0.82449   0.26189   0.00000  Uiso   1.00
C438   C     0.09191   0.87349   0.42094   0.00000  Uiso   1.00
C439   C     0.18120   0.98891   0.23806   0.00000  Uiso   1.00
C440   C     0.15166   0.67868   0.26203   0.00000  Uiso   1.00
C441   C     0.15601   0.72272   0.25883   0.00000  Uiso   1.00
C442   C     0.17696   0.94439   0.24130   0.00000  Uiso   1.00
C443   C     0.18803   0.81222   0.14378   0.00000  Uiso   1.00
C444   C     0.14505   0.85401   0.35644   0.00000  Uiso   1.00
C445   C     0.12995   0.85661   0.40018   0.00000  Uiso   1.00
C446   C     0.19650   0.80392   0.10081   0.00000  Uiso   1.00
C447   C     0.07457   0.87172   0.46200   0.00000  Uiso   1.00
C448   C     0.03210   0.84855   0.04843   0.00000  Uiso   1.00
C449   C     0.15164   0.83860   0.42081   0.00000  Uiso   1.00
C450   C     0.02665   0.86507   0.20317   0.00000  Uiso   1.00
C451   C     0.03771   0.89745   0.48186   0.00000  Uiso   1.00
C452   C     0.18727   0.75795   0.41955   0.00000  Uiso   1.00
C453   C     0.13309   0.83123   0.46079   0.00000  Uiso   1.00
C454   C     0.09418   0.84882   0.48260   0.00000  Uiso   1.00
C455   C     0.15464   0.80927   0.47999   0.00000  Uiso   1.00
C456   C     0.14404   0.81452   0.02190   0.00000  Uiso   1.00
C457   C     0.10410   0.82866   0.04284   0.00000  Uiso   1.00
C458   C     0.07775   0.84290   0.02375   0.00000  Uiso   1.00
Cl459  Cl    0.28736   0.75285   0.01106   0.00000  Uiso   1.00
H460   H     0.31765   0.80871   0.28589   0.00000  Uiso   1.00
H461   H     0.02380   0.83462   0.07699   0.00000  Uiso   1.00
H462   H     0.02772   0.88202   0.05639   0.00000  Uiso   1.00
H463   H     0.00870   0.83179   0.03270   0.00000  Uiso   1.00
H464   H     0.01070   0.87814   0.18462   0.00000  Uiso   1.00
H465   H     0.04618   0.89131   0.21591   0.00000  Uiso   1.00
H466   H     0.04848   0.84298   0.18346   0.00000  Uiso   1.00
H467   H     0.03164   0.91676   0.46102   0.00000  Uiso   1.00
H468   H     0.00708   0.87724   0.49273   0.00000  Uiso   1.00
H469   H     0.04591   0.91994   0.00586   0.00000  Uiso   1.00
H470   H     0.15736   0.75884   0.41097   0.00000  Uiso   1.00
H471   H     0.20855   0.66965   0.21603   0.00000  Uiso   1.00
H472   H     0.21609   0.76969   0.39629   0.00000  Uiso   1.00
H473   H     0.18906   0.72442   0.42113   0.00000  Uiso   1.00
H474   H     0.12385   0.99863   0.28402   0.00000  Uiso   1.00
H475   H     0.14012   0.82882   0.10163   0.00000  Uiso   1.00
H476   H     0.25651   0.77933   0.09240   0.00000  Uiso   1.00
H477   H     0.24048   0.75384   0.46144   0.00000  Uiso   1.00
H478   H     0.07574   0.88860   0.40494   0.00000  Uiso   1.00
H479   H     0.18356   0.83057   0.40507   0.00000  Uiso   1.00
H480   H     0.09147   0.82659   0.07432   0.00000  Uiso   1.00
O481   O     0.16667   0.83333   0.25000   0.00000  Uiso   1.00
O482   O     0.15693   0.79060   0.16625   0.00000  Uiso   1.00
O483   O     0.12687   0.87313   0.33749   0.00000  Uiso   1.00
O484   O     0.21088   0.84159   0.15877   0.00000  Uiso   1.00
O485   O     0.17198   0.82802   0.33749   0.00000  Uiso   1.00
O486   O     0.17849   0.74768   0.27820   0.00000  Uiso   1.00
O487   O     0.14581   0.92803   0.26767   0.00000  Uiso   1.00
O488   O     0.07452   0.79917   0.23607   0.00000  Uiso   1.00
O489   O     0.26785   0.85845   0.21805   0.00000  Uiso   1.00
O490   O     0.06990   0.85627   0.27820   0.00000  Uiso   1.00
O491   O     0.25440   0.81944   0.26767   0.00000  Uiso   1.00
O492   O     0.13800   0.73570   0.23607   0.00000  Uiso   1.00
O493   O     0.20437   0.92193   0.21805   0.00000  Uiso   1.00
Zn494  Zn    0.19244   0.80756   0.28277   0.00000  Uiso   1.00
Zn495  Zn    0.13459   0.79044   0.22257   0.00000  Uiso   1.00
Zn496  Zn    0.21166   0.86331   0.21188   0.00000  Uiso   1.00
Zn497  Zn    0.12798   0.87202   0.28277   0.00000  Uiso   1.00
C498   C     0.38568   0.82607   0.25938   0.00000  Uiso   1.00
C499   C     0.51991   0.78241   0.45927   0.00000  Uiso   1.00
C500   C     0.54846   0.77256   0.47836   0.00000  Uiso   1.00
C501   C     0.61461   0.84020   0.24091   0.00000  Uiso   1.00
C502   C     0.54334   0.78456   0.01878   0.00000  Uiso   1.00
C503   C     0.50622   0.80383   0.04146   0.00000  Uiso   1.00
C504   C     0.57359   0.77605   0.03742   0.00000  Uiso   1.00
C505   C     0.56675   0.78614   0.07818   0.00000  Uiso   1.00
C506   C     0.50016   0.81313   0.08274   0.00000  Uiso   1.00
C507   C     0.66102   0.84264   0.23626   0.00000  Uiso   1.00
C508   C     0.34059   0.82449   0.26189   0.00000  Uiso   1.00
C509   C     0.42525   0.87349   0.42094   0.00000  Uiso   1.00
C510   C     0.51453   0.98891   0.23806   0.00000  Uiso   1.00
C511   C     0.48499   0.67868   0.26203   0.00000  Uiso   1.00
C512   C     0.48935   0.72272   0.25883   0.00000  Uiso   1.00
C513   C     0.51029   0.94439   0.24130   0.00000  Uiso   1.00
C514   C     0.52136   0.81222   0.14378   0.00000  Uiso   1.00
C515   C     0.47838   0.85401   0.35644   0.00000  Uiso   1.00
C516   C     0.46329   0.85661   0.40018   0.00000  Uiso   1.00
C517   C     0.52983   0.80392   0.10081   0.00000  Uiso   1.00
C518   C     0.40790   0.87172   0.46200   0.00000  Uiso   1.00
C519   C     0.36543   0.84855   0.04843   0.00000  Uiso   1.00
C520   C     0.48497   0.83860   0.42081   0.00000  Uiso   1.00
C521   C     0.35998   0.86507   0.20317   0.00000  Uiso   1.00
C522   C     0.37105   0.89745   0.48186   0.00000  Uiso   1.00
C523   C     0.52061   0.75795   0.41955   0.00000  Uiso   1.00
C524   C     0.46642   0.83123   0.46079   0.00000  Uiso   1.00
C525   C     0.42752   0.84882   0.48260   0.00000  Uiso   1.00
C526   C     0.48797   0.80927   0.47999   0.00000  Uiso   1.00
C527   C     0.47737   0.81452   0.02190   0.00000  Uiso   1.00
C528   C     0.43744   0.82866   0.04284   0.00000  Uiso   1.00
C529   C     0.41108   0.84290   0.02375   0.00000  Uiso   1.00
Cl530  Cl    0.62069   0.75285   0.01106   0.00000  Uiso   1.00
H531   H     0.65098   0.80871   0.28589   0.00000  Uiso   1.00
H532   H     0.35713   0.83462   0.07699   0.00000  Uiso   1.00
H533   H     0.36105   0.88202   0.05639   0.00000  Uiso   1.00
H534   H     0.34203   0.83179   0.03270   0.00000  Uiso   1.00
H535   H     0.34403   0.87814   0.18462   0.00000  Uiso   1.00
H536   H     0.37951   0.89131   0.21591   0.00000  Uiso   1.00
H537   H     0.38182   0.84298   0.18346   0.00000  Uiso   1.00
H538   H     0.36497   0.91676   0.46102   0.00000  Uiso   1.00
H539   H     0.34041   0.87724   0.49273   0.00000  Uiso   1.00
H540   H     0.37924   0.91994   0.00586   0.00000  Uiso   1.00
H541   H     0.49069   0.75884   0.41097   0.00000  Uiso   1.00
H542   H     0.54189   0.66965   0.21603   0.00000  Uiso   1.00
H543   H     0.54942   0.76969   0.39629   0.00000  Uiso   1.00
H544   H     0.52239   0.72442   0.42113   0.00000  Uiso   1.00
H545   H     0.45718   0.99863   0.28402   0.00000  Uiso   1.00
H546   H     0.47345   0.82882   0.10163   0.00000  Uiso   1.00
H547   H     0.58985   0.77933   0.09240   0.00000  Uiso   1.00
H548   H     0.57382   0.75384   0.46144   0.00000  Uiso   1.00
H549   H     0.40907   0.88860   0.40494   0.00000  Uiso   1.00
H550   H     0.51689   0.83057   0.40507   0.00000  Uiso   1.00
H551   H     0.42481   0.82659   0.07432   0.00000  Uiso   1.00
O552   O     0.50000   0.83333   0.25000   0.00000  Uiso   1.00
O553   O     0.49027   0.79060   0.16625   0.00000  Uiso   1.00
O554   O     0.46020   0.87313   0.33749   0.00000  Uiso   1.00
O555   O     0.54421   0.84159   0.15877   0.00000  Uiso   1.00
O556   O     0.50532   0.82802   0.33749   0.00000  Uiso   1.00
O557   O     0.51182   0.74768   0.27820   0.00000  Uiso   1.00
O558   O     0.47914   0.92803   0.26767   0.00000  Uiso   1.00
O559   O     0.40785   0.79917   0.23607   0.00000  Uiso   1.00
O560   O     0.60119   0.85845   0.21805   0.00000  Uiso   1.00
O561   O     0.40323   0.85627   0.27820   0.00000  Uiso   1.00
O562   O     0.58773   0.81944   0.26767   0.00000  Uiso   1.00
O563   O     0.47133   0.73570   0.23607   0.00000  Uiso   1.00
O564   O     0.53771   0.92193   0.21805   0.00000  Uiso   1.00
Zn565  Zn    0.52577   0.80756   0.28277   0.00000  Uiso   1.00
Zn566  Zn    0.46792   0.79044   0.22257   0.00000  Uiso   1.00
Zn567  Zn    0.54500   0.86331   0.21188   0.00000  Uiso   1.00
Zn568  Zn    0.46131   0.87202   0.28277   0.00000  Uiso   1.00
C569   C     0.71901   0.82607   0.25938   0.00000  Uiso   1.00
C570   C     0.85324   0.78241   0.45927   0.00000  Uiso   1.00
C571   C     0.88179   0.77256   0.47836   0.00000  Uiso   1.00
C572   C     0.94794   0.84020   0.24091   0.00000  Uiso   1.00
C573   C     0.87667   0.78456   0.01878   0.00000  Uiso   1.00
C574   C     0.83955   0.80383   0.04146   0.00000  Uiso   1.00
C575   C     0.90693   0.77605   0.03742   0.00000  Uiso   1.00
C576   C     0.90009   0.78614   0.07818   0.00000  Uiso   1.00
C577   C     0.83349   0.81313   0.08274   0.00000  Uiso   1.00
C578   C     0.99436   0.84264   0.23626   0.00000  Uiso   1.00
C579   C     0.67392   0.82449   0.26189   0.00000  Uiso   1.00
C580   C     0.75858   0.87349   0.42094   0.00000  Uiso   1.00
C581   C     0.84786   0.98891   0.23806   0.00000  Uiso   1.00
C582   C     0.81832   0.67868   0.26203   0.00000  Uiso   1.00
C583   C     0.82268   0.72272   0.25883   0.00000  Uiso   1.00
C584   C     0.84362   0.94439   0.24130   0.00000  Uiso   1.00
C585   C     0.85469   0.81222   0.14378   0.00000  Uiso   1.00
C586   C     0.81171   0.85401   0.35644   0.00000  Uiso   1.00
C587   C     0.79662   0.85661   0.40018   0.00000  Uiso   1.00
C588   C     0.86317   0.80392   0.10081   0.00000  Uiso   1.00
C589   C     0.74124   0.87172   0.46200   0.00000  Uiso   1.00
C590   C     0.69877   0.84855   0.04843   0.00000  Uiso   1.00
C591   C     0.81830   0.83860   0.42081   0.00000  Uiso   1.00
C592   C     0.69331   0.86507   0.20317   0.00000  Uiso   1.00
C593   C     0.70438   0.89745   0.48186   0.00000  Uiso   1.00
C594   C     0.85394   0.75795   0.41955   0.00000  Uiso   1.00
C595   C     0.79976   0.83123   0.46079   0.00000  Uiso   1.00
C596   C     0.76085   0.84882   0.48260   0.00000  Uiso   1.00
C597   C     0.82131   0.80927   0.47999   0.00000  Uiso   1.00
C598   C     0.81071   0.81452   0.02190   0.00000  Uiso   1.00
C599   C     0.77077   0.82866   0.04284   0.00000  Uiso   1.00
C600   C     0.74441   0.84290   0.02375   0.00000  Uiso   1.00
Cl601  Cl    0.95402   0.75285   0.01106   0.00000  Uiso   1.00
H602   H     0.98431   0.80871   0.28589   0.00000  Uiso   1.00
H603   H     0.69047   0.83462   0.07699   0.00000  Uiso   1.00
H604   H     0.69439   0.88202   0.05639   0.00000  Uiso   1.00
H605   H     0.67537   0.83179   0.03270   0.00000  Uiso   1.00
H606   H     0.67736   0.87814   0.18462   0.00000  Uiso   1.00
H607   H     0.71284   0.89131   0.21591   0.00000  Uiso   1.00
H608   H     0.71515   0.84298   0.18346   0.00000  Uiso   1.00
H609   H     0.69830   0.91676   0.46102   0.00000  Uiso   1.00
H610   H     0.67374   0.87724   0.49273   0.00000  Uiso   1.00
H611   H     0.71257   0.91994   0.00586   0.00000  Uiso   1.00
H612   H     0.82402   0.75884   0.41097   0.00000  Uiso   1.00
H613   H     0.87522   0.66965   0.21603   0.00000  Uiso   1.00
H614   H     0.88276   0.76969   0.39629   0.00000  Uiso   1.00
H615   H     0.85572   0.72442   0.42113   0.00000  Uiso   1.00
H616   H     0.79052   0.99863   0.28402   0.00000  Uiso   1.00
H617   H     0.80679   0.82882   0.10163   0.00000  Uiso   1.00
H618   H     0.92318   0.77933   0.09240   0.00000  Uiso   1.00
H619   H     0.90715   0.75384   0.46144   0.00000  Uiso   1.00
H620   H     0.74240   0.88860   0.40494   0.00000  Uiso   1.00
H621   H     0.85023   0.83057   0.40507   0.00000  Uiso   1.00
H622   H     0.75814   0.82659   0.07432   0.00000  Uiso   1.00
O623   O     0.83333   0.83333   0.25000   0.00000  Uiso   1.00
O624   O     0.82360   0.79060   0.16625   0.00000  Uiso   1.00
O625   O     0.79354   0.87313   0.33749   0.00000  Uiso   1.00
O626   O     0.87755   0.84159   0.15877   0.00000  Uiso   1.00
O627   O     0.83865   0.82802   0.33749   0.00000  Uiso   1.00
O628   O     0.84515   0.74768   0.27820   0.00000  Uiso   1.00
O629   O     0.81247   0.92803   0.26767   0.00000  Uiso   1.00
O630   O     0.74119   0.79917   0.23607   0.00000  Uiso   1.00
O631   O     0.93452   0.85845   0.21805   0.00000  Uiso   1.00
O632   O     0.73656   0.85627   0.27820   0.00000  Uiso   1.00
O633   O     0.92106   0.81944   0.26767   0.00000  Uiso   1.00
O634   O     0.80467   0.73570   0.23607   0.00000  Uiso   1.00
O635   O     0.87104   0.92193   0.21805   0.00000  Uiso   1.00
Zn636  Zn    0.85910   0.80756   0.28277   0.00000  Uiso   1.00
Zn637  Zn    0.80125   0.79044   0.22257   0.00000  Uiso   1.00
Zn638  Zn    0.87833   0.86331   0.21188   0.00000  Uiso   1.00
Zn639  Zn    0.79465   0.87202   0.28277   0.00000  Uiso   1.00
C640   C     0.05235   0.15941   0.75938   0.00000  Uiso   1.00
C641   C     0.18658   0.11575   0.95927   0.00000  Uiso   1.00
C642   C     0.21513   0.10589   0.97836   0.00000  Uiso   1.00
C643   C     0.28128   0.17353   0.74091   0.00000  Uiso   1.00
C644   C     0.21001   0.11790   0.51878   0.00000  Uiso   1.00
C645   C     0.17288   0.13716   0.54146   0.00000  Uiso   1.00
C646   C     0.24026   0.10938   0.53742   0.00000  Uiso   1.00
C647   C     0.23342   0.11947   0.57818   0.00000  Uiso   1.00
C648   C     0.16682   0.14646   0.58274   0.00000  Uiso   1.00
C649   C     0.32769   0.17597   0.73626   0.00000  Uiso   1.00
C650   C     0.00726   0.15783   0.76189   0.00000  Uiso   1.00
C651   C     0.09191   0.20682   0.92094   0.00000  Uiso   1.00
C652   C     0.18120   0.32224   0.73806   0.00000  Uiso   1.00
C653   C     0.15166   0.01201   0.76203   0.00000  Uiso   1.00
C654   C     0.15601   0.05606   0.75883   0.00000  Uiso   1.00
C655   C     0.17696   0.27772   0.74130   0.00000  Uiso   1.00
C656   C     0.18803   0.14555   0.64378   0.00000  Uiso   1.00
C657   C     0.14505   0.18735   0.85644   0.00000  Uiso   1.00
C658   C     0.12995   0.18994   0.90018   0.00000  Uiso   1.00
C659   C     0.19650   0.13726   0.60081   0.00000  Uiso   1.00
C660   C     0.07457   0.20505   0.96200   0.00000  Uiso   1.00
C661   C     0.03210   0.18188   0.54843   0.00000  Uiso   1.00
C662   C     0.15164   0.17193   0.92081   0.00000  Uiso   1.00
C663   C     0.02665   0.19840   0.70317   0.00000  Uiso   1.00
C664   C     0.03771   0.23078   0.98186   0.00000  Uiso   1.00
C665   C     0.18727   0.09129   0.91955   0.00000  Uiso   1.00
C666   C     0.13309   0.16456   0.96079   0.00000  Uiso   1.00
C667   C     0.09418   0.18215   0.98260   0.00000  Uiso   1.00
C668   C     0.15464   0.14261   0.97999   0.00000  Uiso   1.00
C669   C     0.14404   0.14785   0.52190   0.00000  Uiso   1.00
C670   C     0.10410   0.16199   0.54284   0.00000  Uiso   1.00
C671   C     0.07775   0.17623   0.52375   0.00000  Uiso   1.00
Cl672  Cl    0.28736   0.08618   0.51106   0.00000  Uiso   1.00
H673   H     0.31765   0.14205   0.78589   0.00000  Uiso   1.00
H674   H     0.02380   0.16795   0.57699   0.00000  Uiso   1.00
H675   H     0.02772   0.21535   0.55639   0.00000  Uiso   1.00
H676   H     0.00870   0.16513   0.53270   0.00000  Uiso   1.00
H677   H     0.01070   0.21147   0.68462   0.00000  Uiso   1.00
H678   H     0.04618   0.22464   0.71591   0.00000  Uiso   1.00
H679   H     0.04848   0.17631   0.68346   0.00000  Uiso   1.00
H680   H     0.03164   0.25010   0.96102   0.00000  Uiso   1.00
H681   H     0.00708   0.21058   0.99273   0.00000  Uiso   1.00
H682   H     0.04591   0.25328   0.50586   0.00000  Uiso   1.00
H683   H     0.15736   0.09218   0.91097   0.00000  Uiso   1.00
H684   H     0.20855   0.00299   0.71603   0.00000  Uiso   1.00
H685   H     0.21609   0.10303   0.89629   0.00000  Uiso   1.00
H686   H     0.18906   0.05776   0.92113   0.00000  Uiso   1.00
H687   H     0.12385   0.33197   0.78402   0.00000  Uiso   1.00
H688   H     0.14012   0.16215   0.60163   0.00000  Uiso   1.00
H689   H     0.25651   0.11266   0.59240   0.00000  Uiso   1.00
H690   H     0.24048   0.08718   0.96144   0.00000  Uiso   1.00
H691   H     0.07574   0.22193   0.90494   0.00000  Uiso   1.00
H692   H     0.18356   0.16390   0.90507   0.00000  Uiso   1.00
H693   H     0.09147   0.15992   0.57432   0.00000  Uiso   1.00
O694   O     0.16667   0.16667   0.75000   0.00000  Uiso   1.00
O695   O     0.15693   0.12393   0.66625   0.00000  Uiso   1.00
O696   O     0.12687   0.20646   0.83749   0.00000  Uiso   1.00
O697   O     0.21088   0.17493   0.65877   0.00000  Uiso   1.00
O698   O     0.17198   0.16135   0.83749   0.00000  Uiso   1.00
O699   O     0.17849   0.08101   0.77820   0.00000  Uiso   1.00
O700   O     0.14581   0.26136   0.76767   0.00000  Uiso   1.00
O701   O     0.07452   0.13251   0.73607   0.00000  Uiso   1.00
O702   O     0.26785   0.19179   0.71805   0.00000  Uiso   1.00
O703   O     0.06990   0.18960   0.77820   0.00000  Uiso   1.00
O704   O     0.25440   0.15277   0.76767   0.00000  Uiso   1.00
O705   O     0.13800   0.06903   0.73607   0.00000  Uiso   1.00
O706   O     0.20437   0.25527   0.71805   0.00000  Uiso   1.00
Zn707  Zn    0.19244   0.14090   0.78277   0.00000  Uiso   1.00
Zn708  Zn    0.13459   0.12378   0.72257   0.00000  Uiso   1.00
Zn709  Zn    0.21166   0.19664   0.71188   0.00000  Uiso   1.00
Zn710  Zn    0.12798   0.20535   0.78277   0.00000  Uiso   1.00
C711   C     0.38568   0.15941   0.75938   0.00000  Uiso   1.00
C712   C     0.51991   0.11575   0.95927   0.00000  Uiso   1.00
C713   C     0.54846   0.10589   0.97836   0.00000  Uiso   1.00
C714   C     0.61461   0.17353   0.74091   0.00000  Uiso   1.00
C715   C     0.54334   0.11790   0.51878   0.00000  Uiso   1.00
C716   C     0.50622   0.13716   0.54146   0.00000  Uiso   1.00
C717   C     0.57359   0.10938   0.53742   0.00000  Uiso   1.00
C718   C     0.56675   0.11947   0.57818   0.00000  Uiso   1.00
C719   C     0.50016   0.14646   0.58274   0.00000  Uiso   1.00
C720   C     0.66102   0.17597   0.73626   0.00000  Uiso   1.00
C721   C     0.34059   0.15783   0.76189   0.00000  Uiso   1.00
C722   C     0.42525   0.20682   0.92094   0.00000  Uiso   1.00
C723   C     0.51453   0.32224   0.73806   0.00000  Uiso   1.00
C724   C     0.48499   0.01201   0.76203   0.00000  Uiso   1.00
C725   C     0.48935   0.05606   0.75883   0.00000  Uiso   1.00
C726   C     0.51029   0.27772   0.74130   0.00000  Uiso   1.00
C727   C     0.52136   0.14555   0.64378   0.00000  Uiso   1.00
C728   C     0.47838   0.18735   0.85644   0.00000  Uiso   1.00
C729   C     0.46329   0.18994   0.90018   0.00000  Uiso   1.00
C730   C     0.52983   0.13726   0.60081   0.00000  Uiso   1.00
C731   C     0.40790   0.20505   0.96200   0.00000  Uiso   1.00
C732   C     0.36543   0.18188   0.54843   0.00000  Uiso   1.00
C733   C     0.48497   0.17193   0.92081   0.00000  Uiso   1.00
C734   C     0.35998   0.19840   0.70317   0.00000  Uiso   1.00
C735   C     0.37105   0.23078   0.98186   0.00000  Uiso   1.00
C736   C     0.52061   0.09129   0.91955   0.00000  Uiso   1.00
C737   C     0.46642   0.16456   0.96079   0.00000  Uiso   1.00
C738   C     0.42752   0.18215   0.98260   0.00000  Uiso   1.00
C739   C     0.48797   0.14261   0.97999   0.00000  Uiso   1.00
C740   C     0.47737   0.14785   0.52190   0.00000  Uiso   1.00
C741   C     0.43744   0.16199   0.54284   0.00000  Uiso   1.00
C742   C     0.41108   0.17623   0.52375   0.00000  Uiso   1.00
Cl743  Cl    0.62069   0.08618   0.51106   0.00000  Uiso   1.00
H744   H     0.65098   0.14205   0.78589   0.00000  Uiso   1.00
H745   H     0.35713   0.16795   0.57699   0.00000  Uiso   1.00
H746   H     0.36105   0.21535   0.55639   0.00000  Uiso   1.00
H747   H     0.34203   0.16513   0.53270   0.00000  Uiso   1.00
H748   H     0.34403   0.21147   0.68462   0.00000  Uiso   1.00
H749   H     0.37951   0.22464   0.71591   0.00000  Uiso   1.00
H750   H     0.38182   0.17631   0.68346   0.00000  Uiso   1.00
H751   H     0.36497   0.25010   0.96102   0.00000  Uiso   1.00
H752   H     0.34041   0.21058   0.99273   0.00000  Uiso   1.00
H753   H     0.37924   0.25328   0.50586   0.00000  Uiso   1.00
H754   H     0.49069   0.09218   0.91097   0.00000  Uiso   1.00
H755   H     0.54189   0.00299   0.71603   0.00000  Uiso   1.00
H756   H     0.54942   0.10303   0.89629   0.00000  Uiso   1.00
H757   H     0.52239   0.05776   0.92113   0.00000  Uiso   1.00
H758   H     0.45718   0.33197   0.78402   0.00000  Uiso   1.00
H759   H     0.47345   0.16215   0.60163   0.00000  Uiso   1.00
H760   H     0.58985   0.11266   0.59240   0.00000  Uiso   1.00
H761   H     0.57382   0.08718   0.96144   0.00000  Uiso   1.00
H762   H     0.40907   0.22193   0.90494   0.00000  Uiso   1.00
H763   H     0.51689   0.16390   0.90507   0.00000  Uiso   1.00
H764   H     0.42481   0.15992   0.57432   0.00000  Uiso   1.00
O765   O     0.50000   0.16667   0.75000   0.00000  Uiso   1.00
O766   O     0.49027   0.12393   0.66625   0.00000  Uiso   1.00
O767   O     0.46020   0.20646   0.83749   0.00000  Uiso   1.00
O768   O     0.54421   0.17493   0.65877   0.00000  Uiso   1.00
O769   O     0.50532   0.16135   0.83749   0.00000  Uiso   1.00
O770   O     0.51182   0.08101   0.77820   0.00000  Uiso   1.00
O771   O     0.47914   0.26136   0.76767   0.00000  Uiso   1.00
O772   O     0.40785   0.13251   0.73607   0.00000  Uiso   1.00
O773   O     0.60119   0.19179   0.71805   0.00000  Uiso   1.00
O774   O     0.40323   0.18960   0.77820   0.00000  Uiso   1.00
O775   O     0.58773   0.15277   0.76767   0.00000  Uiso   1.00
O776   O     0.47133   0.06903   0.73607   0.00000  Uiso   1.00
O777   O     0.53771   0.25527   0.71805   0.00000  Uiso   1.00
Zn778  Zn    0.52577   0.14090   0.78277   0.00000  Uiso   1.00
Zn779  Zn    0.46792   0.12378   0.72257   0.00000  Uiso   1.00
Zn780  Zn    0.54500   0.19664   0.71188   0.00000  Uiso   1.00
Zn781  Zn    0.46131   0.20535   0.78277   0.00000  Uiso   1.00
C782   C     0.71901   0.15941   0.75938   0.00000  Uiso   1.00
C783   C     0.85324   0.11575   0.95927   0.00000  Uiso   1.00
C784   C     0.88179   0.10589   0.97836   0.00000  Uiso   1.00
C785   C     0.94794   0.17353   0.74091   0.00000  Uiso   1.00
C786   C     0.87667   0.11790   0.51878   0.00000  Uiso   1.00
C787   C     0.83955   0.13716   0.54146   0.00000  Uiso   1.00
C788   C     0.90693   0.10938   0.53742   0.00000  Uiso   1.00
C789   C     0.90009   0.11947   0.57818   0.00000  Uiso   1.00
C790   C     0.83349   0.14646   0.58274   0.00000  Uiso   1.00
C791   C     0.99436   0.17597   0.73626   0.00000  Uiso   1.00
C792   C     0.67392   0.15783   0.76189   0.00000  Uiso   1.00
C793   C     0.75858   0.20682   0.92094   0.00000  Uiso   1.00
C794   C     0.84786   0.32224   0.73806   0.00000  Uiso   1.00
C795   C     0.81832   0.01201   0.76203   0.00000  Uiso   1.00
C796   C     0.82268   0.05606   0.75883   0.00000  Uiso   1.00
C797   C     0.84362   0.27772   0.74130   0.00000  Uiso   1.00
C798   C     0.85469   0.14555   0.64378   0.00000  Uiso   1.00
C799   C     0.81171   0.18735   0.85644   0.00000  Uiso   1.00
C800   C     0.79662   0.18994   0.90018   0.00000  Uiso   1.00
C801   C     0.86317   0.13726   0.60081   0.00000  Uiso   1.00
C802   C     0.74124   0.20505   0.96200   0.00000  Uiso   1.00
C803   C     0.69877   0.18188   0.54843   0.00000  Uiso   1.00
C804   C     0.81830   0.17193   0.92081   0.00000  Uiso   1.00
C805   C     0.69331   0.19840   0.70317   0.00000  Uiso   1.00
C806   C     0.70438   0.23078   0.98186   0.00000  Uiso   1.00
C807   C     0.85394   0.09129   0.91955   0.00000  Uiso   1.00
C808   C     0.79976   0.16456   0.96079   0.00000  Uiso   1.00
C809   C     0.76085   0.18215   0.98260   0.00000  Uiso   1.00
C810   C     0.82131   0.14261   0.97999   0.00000  Uiso   1.00
C811   C     0.81071   0.14785   0.52190   0.00000  Uiso   1.00
C812   C     0.77077   0.16199   0.54284   0.00000  Uiso   1.00
C813   C     0.74441   0.17623   0.52375   0.00000  Uiso   1.00
Cl814  Cl    0.95402   0.08618   0.51106   0.00000  Uiso   1.00
H815   H     0.98431   0.14205   0.78589   0.00000  Uiso   1.00
H816   H     0.69047   0.16795   0.57699   0.00000  Uiso   1.00
H817   H     0.69439   0.21535   0.55639   0.00000  Uiso   1.00
H818   H     0.67537   0.16513   0.53270   0.00000  Uiso   1.00
H819   H     0.67736   0.21147   0.68462   0.00000  Uiso   1.00
H820   H     0.71284   0.22464   0.71591   0.00000  Uiso   1.00
H821   H     0.71515   0.17631   0.68346   0.00000  Uiso   1.00
H822   H     0.69830   0.25010   0.96102   0.00000  Uiso   1.00
H823   H     0.67374   0.21058   0.99273   0.00000  Uiso   1.00
H824   H     0.71257   0.25328   0.50586   0.00000  Uiso   1.00
H825   H     0.82402   0.09218   0.91097   0.00000  Uiso   1.00
H826   H     0.87522   0.00299   0.71603   0.00000  Uiso   1.00
H827   H     0.88276   0.10303   0.89629   0.00000  Uiso   1.00
H828   H     0.85572   0.05776   0.92113   0.00000  Uiso   1.00
H829   H     0.79052   0.33197   0.78402   0.00000  Uiso   1.00
H830   H     0.80679   0.16215   0.60163   0.00000  Uiso   1.00
H831   H     0.92318   0.11266   0.59240   0.00000  Uiso   1.00
H832   H     0.90715   0.08718   0.96144   0.00000  Uiso   1.00
H833   H     0.74240   0.22193   0.90494   0.00000  Uiso   1.00
H834   H     0.85023   0.16390   0.90507   0.00000  Uiso   1.00
H835   H     0.75814   0.15992   0.57432   0.00000  Uiso   1.00
O836   O     0.83333   0.16667   0.75000   0.00000  Uiso   1.00
O837   O     0.82360   0.12393   0.66625   0.00000  Uiso   1.00
O838   O     0.79354   0.20646   0.83749   0.00000  Uiso   1.00
O839   O     0.87755   0.17493   0.65877   0.00000  Uiso   1.00
O840   O     0.83865   0.16135   0.83749   0.00000  Uiso   1.00
O841   O     0.84515   0.08101   0.77820   0.00000  Uiso   1.00
O842   O     0.81247   0.26136   0.76767   0.00000  Uiso   1.00
O843   O     0.74119   0.13251   0.73607   0.00000  Uiso   1.00
O844   O     0.93452   0.19179   0.71805   0.00000  Uiso   1.00
O845   O     0.73656   0.18960   0.77820   0.00000  Uiso   1.00
O846   O     0.92106   0.15277   0.76767   0.00000  Uiso   1.00
O847   O     0.80467   0.06903   0.73607   0.00000  Uiso   1.00
O848   O     0.87104   0.25527   0.71805   0.00000  Uiso   1.00
Zn849  Zn    0.85910   0.14090   0.78277   0.00000  Uiso   1.00
Zn850  Zn    0.80125   0.12378   0.72257   0.00000  Uiso   1.00
Zn851  Zn    0.87833   0.19664   0.71188   0.00000  Uiso   1.00
Zn852  Zn    0.79465   0.20535   0.78277   0.00000  Uiso   1.00
C853   C     0.05235   0.49274   0.75938   0.00000  Uiso   1.00
C854   C     0.18658   0.44908   0.95927   0.00000  Uiso   1.00
C855   C     0.21513   0.43922   0.97836   0.00000  Uiso   1.00
C856   C     0.28128   0.50686   0.74091   0.00000  Uiso   1.00
C857   C     0.21001   0.45123   0.51878   0.00000  Uiso   1.00
C858   C     0.17288   0.47050   0.54146   0.00000  Uiso   1.00
C859   C     0.24026   0.44271   0.53742   0.00000  Uiso   1.00
C860   C     0.23342   0.45280   0.57818   0.00000  Uiso   1.00
C861   C     0.16682   0.47980   0.58274   0.00000  Uiso   1.00
C862   C     0.32769   0.50930   0.73626   0.00000  Uiso   1.00
C863   C     0.00726   0.49116   0.76189   0.00000  Uiso   1.00
C864   C     0.09191   0.54015   0.92094   0.00000  Uiso   1.00
C865   C     0.18120   0.65558   0.73806   0.00000  Uiso   1.00
C866   C     0.15166   0.34534   0.76203   0.00000  Uiso   1.00
C867   C     0.15601   0.38939   0.75883   0.00000  Uiso   1.00
C868   C     0.17696   0.61106   0.74130   0.00000  Uiso   1.00
C869   C     0.18803   0.47889   0.64378   0.00000  Uiso   1.00
C870   C     0.14505   0.52068   0.85644   0.00000  Uiso   1.00
C871   C     0.12995   0.52328   0.90018   0.00000  Uiso   1.00
C872   C     0.19650   0.47059   0.60081   0.00000  Uiso   1.00
C873   C     0.07457   0.53839   0.96200   0.00000  Uiso   1.00
C874   C     0.03210   0.51521   0.54843   0.00000  Uiso   1.00
C875   C     0.15164   0.50527   0.92081   0.00000  Uiso   1.00
C876   C     0.02665   0.53174   0.70317   0.00000  Uiso   1.00
C877   C     0.03771   0.56412   0.98186   0.00000  Uiso   1.00
C878   C     0.18727   0.42462   0.91955   0.00000  Uiso   1.00
C879   C     0.13309   0.49790   0.96079   0.00000  Uiso   1.00
C880   C     0.09418   0.51548   0.98260   0.00000  Uiso   1.00
C881   C     0.15464   0.47594   0.97999   0.00000  Uiso   1.00
C882   C     0.14404   0.48119   0.52190   0.00000  Uiso   1.00
C883   C     0.10410   0.49533   0.54284   0.00000  Uiso   1.00
C884   C     0.07775   0.50956   0.52375   0.00000  Uiso   1.00
Cl885  Cl    0.28736   0.41952   0.51106   0.00000  Uiso   1.00
H886   H     0.31765   0.47538   0.78589   0.00000  Uiso   1.00
H887   H     0.02380   0.50128   0.57699   0.00000  Uiso   1.00
H888   H     0.02772   0.54868   0.55639   0.00000  Uiso   1.00
H889   H     0.00870   0.49846   0.53270   0.00000  Uiso   1.00
H890   H     0.01070   0.54480   0.68462   0.00000  Uiso   1.00
H891   H     0.04618   0.55798   0.71591   0.00000  Uiso   1.00
H892   H     0.04848   0.50965   0.68346   0.00000  Uiso   1.00
H893   H     0.03164   0.58343   0.96102   0.00000  Uiso   1.00
H894   H     0.00708   0.54391   0.99273   0.00000  Uiso   1.00
H895   H     0.04591   0.58661   0.50586   0.00000  Uiso   1.00
H896   H     0.15736   0.42551   0.91097   0.00000  Uiso   1.00
H897   H     0.20855   0.33632   0.71603   0.00000  Uiso   1.00
H898   H     0.21609   0.43636   0.89629   0.00000  Uiso   1.00
H899   H     0.18906   0.39109   0.92113   0.00000  Uiso   1.00
H900   H     0.12385   0.66530   0.78402   0.00000  Uiso   1.00
H901   H     0.14012   0.49548   0.60163   0.00000  Uiso   1.00
H902   H     0.25651   0.44599   0.59240   0.00000  Uiso   1.00
H903   H     0.24048   0.42051   0.96144   0.00000  Uiso   1.00
H904   H     0.07574   0.55526   0.90494   0.00000  Uiso   1.00
H905   H     0.18356   0.49724   0.90507   0.00000  Uiso   1.00
H906   H     0.09147   0.49325   0.57432   0.00000  Uiso   1.00
O907   O     0.16667   0.50000   0.75000   0.00000  Uiso   1.00
O908   O     0.15693   0.45726   0.66625   0.00000  Uiso   1.00
O909   O     0.12687   0.53979   0.83749   0.00000  Uiso   1.00
O910   O     0.21088   0.50826   0.65877   0.00000  Uiso   1.00
O911   O     0.17198   0.49468   0.83749   0.00000  Uiso   1.00
O912   O     0.17849   0.41434   0.77820   0.00000  Uiso   1.00
O913   O     0.14581   0.59469   0.76767   0.00000  Uiso   1.00
O914   O     0.07452   0.46584   0.73607   0.00000  Uiso   1.00
O915   O     0.26785   0.52512   0.71805   0.00000  Uiso   1.00
O916   O     0.06990   0.52293   0.77820   0.00000  Uiso   1.00
O917   O     0.25440   0.48610   0.76767   0.00000  Uiso   1.00
O918   O     0.13800   0.40236   0.73607   0.00000  Uiso   1.00
O919   O     0.20437   0.58860   0.71805   0.00000  Uiso   1.00
Zn920  Zn    0.19244   0.47423   0.78277   0.00000  Uiso   1.00
Zn921  Zn    0.13459   0.45711   0.72257   0.00000  Uiso   1.00
Zn922  Zn    0.21166   0.52997   0.71188   0.00000  Uiso   1.00
Zn923  Zn    0.12798   0.53868   0.78277   0.00000  Uiso   1.00
C924   C     0.38568   0.49274   0.75938   0.00000  Uiso   1.00
C925   C     0.51991   0.44908   0.95927   0.00000  Uiso   1.00
C926   C     0.54846   0.43922   0.97836   0.00000  Uiso   1.00
C927   C     0.61461   0.50686   0.74091   0.00000  Uiso   1.00
C928   C     0.54334   0.45123   0.51878   0.00000  Uiso   1.00
C929   C     0.50622   0.47050   0.54146   0.00000  Uiso   1.00
C930   C     0.57359   0.44271   0.53742   0.00000  Uiso   1.00
C931   C     0.56675   0.45280   0.57818   0.00000  Uiso   1.00
C932   C     0.50016   0.47980   0.58274   0.00000  Uiso   1.00
C933   C     0.66102   0.50930   0.73626   0.00000  Uiso   1.00
C934   C     0.34059   0.49116   0.76189   0.00000  Uiso   1.00
C935   C     0.42525   0.54015   0.92094   0.00000  Uiso   1.00
C936   C     0.51453   0.65558   0.73806   0.00000  Uiso   1.00
C937   C     0.48499   0.34534   0.76203   0.00000  Uiso   1.00
C938   C     0.48935   0.38939   0.75883   0.00000  Uiso   1.00
C939   C     0.51029   0.61106   0.74130   0.00000  Uiso   1.00
C940   C     0.52136   0.47889   0.64378   0.00000  Uiso   1.00
C941   C     0.47838   0.52068   0.85644   0.00000  Uiso   1.00
C942   C     0.46329   0.52328   0.90018   0.00000  Uiso   1.00
C943   C     0.52983   0.47059   0.60081   0.00000  Uiso   1.00
C944   C     0.40790   0.53839   0.96200   0.00000  Uiso   1.00
C945   C     0.36543   0.51521   0.54843   0.00000  Uiso   1.00
C946   C     0.48497   0.50527   0.92081   0.00000  Uiso   1.00
C947   C     0.35998   0.53174   0.70317   0.00000  Uiso   1.00
C948   C     0.37105   0.56412   0.98186   0.00000  Uiso   1.00
C949   C     0.52061   0.42462   0.91955   0.00000  Uiso   1.00
C950   C     0.46642   0.49790   0.96079   0.00000  Uiso   1.00
C951   C     0.42752   0.51548   0.98260   0.00000  Uiso   1.00
C952   C     0.48797   0.47594   0.97999   0.00000  Uiso   1.00
C953   C     0.47737   0.48119   0.52190   0.00000  Uiso   1.00
C954   C     0.43744   0.49533   0.54284   0.00000  Uiso   1.00
C955   C     0.41108   0.50956   0.52375   0.00000  Uiso   1.00
Cl956  Cl    0.62069   0.41952   0.51106   0.00000  Uiso   1.00
H957   H     0.65098   0.47538   0.78589   0.00000  Uiso   1.00
H958   H     0.35713   0.50128   0.57699   0.00000  Uiso   1.00
H959   H     0.36105   0.54868   0.55639   0.00000  Uiso   1.00
H960   H     0.34203   0.49846   0.53270   0.00000  Uiso   1.00
H961   H     0.34403   0.54480   0.68462   0.00000  Uiso   1.00
H962   H     0.37951   0.55798   0.71591   0.00000  Uiso   1.00
H963   H     0.38182   0.50965   0.68346   0.00000  Uiso   1.00
H964   H     0.36497   0.58343   0.96102   0.00000  Uiso   1.00
H965   H     0.34041   0.54391   0.99273   0.00000  Uiso   1.00
H966   H     0.37924   0.58661   0.50586   0.00000  Uiso   1.00
H967   H     0.49069   0.42551   0.91097   0.00000  Uiso   1.00
H968   H     0.54189   0.33632   0.71603   0.00000  Uiso   1.00
H969   H     0.54942   0.43636   0.89629   0.00000  Uiso   1.00
H970   H     0.52239   0.39109   0.92113   0.00000  Uiso   1.00
H971   H     0.45718   0.66530   0.78402   0.00000  Uiso   1.00
H972   H     0.47345   0.49548   0.60163   0.00000  Uiso   1.00
H973   H     0.58985   0.44599   0.59240   0.00000  Uiso   1.00
H974   H     0.57382   0.42051   0.96144   0.00000  Uiso   1.00
H975   H     0.40907   0.55526   0.90494   0.00000  Uiso   1.00
H976   H     0.51689   0.49724   0.90507   0.00000  Uiso   1.00
H977   H     0.42481   0.49325   0.57432   0.00000  Uiso   1.00
O978   O     0.50000   0.50000   0.75000   0.00000  Uiso   1.00
O979   O     0.49027   0.45726   0.66625   0.00000  Uiso   1.00
O980   O     0.46020   0.53979   0.83749   0.00000  Uiso   1.00
O981   O     0.54421   0.50826   0.65877   0.00000  Uiso   1.00
O982   O     0.50532   0.49468   0.83749   0.00000  Uiso   1.00
O983   O     0.51182   0.41434   0.77820   0.00000  Uiso   1.00
O984   O     0.47914   0.59469   0.76767   0.00000  Uiso   1.00
O985   O     0.40785   0.46584   0.73607   0.00000  Uiso   1.00
O986   O     0.60119   0.52512   0.71805   0.00000  Uiso   1.00
O987   O     0.40323   0.52293   0.77820   0.00000  Uiso   1.00
O988   O     0.58773   0.48610   0.76767   0.00000  Uiso   1.00
O989   O     0.47133   0.40236   0.73607   0.00000  Uiso   1.00
O990   O     0.53771   0.58860   0.71805   0.00000  Uiso   1.00
Zn991  Zn    0.52577   0.47423   0.78277   0.00000  Uiso   1.00
Zn992  Zn    0.46792   0.45711   0.72257   0.00000  Uiso   1.00
Zn993  Zn    0.54500   0.52997   0.71188   0.00000  Uiso   1.00
Zn994  Zn    0.46131   0.53868   0.78277   0.00000  Uiso   1.00
C995   C     0.71901   0.49274   0.75938   0.00000  Uiso   1.00
C996   C     0.85324   0.44908   0.95927   0.00000  Uiso   1.00
C997   C     0.88179   0.43922   0.97836   0.00000  Uiso   1.00
C998   C     0.94794   0.50686   0.74091   0.00000  Uiso   1.00
C999   C     0.87667   0.45123   0.51878   0.00000  Uiso   1.00
C1000  C     0.83955   0.47050   0.54146   0.00000  Uiso   1.00
C1001  C     0.90693   0.44271   0.53742   0.00000  Uiso   1.00
C1002  C     0.90009   0.45280   0.57818   0.00000  Uiso   1.00
C1003  C     0.83349   0.47980   0.58274   0.00000  Uiso   1.00
C1004  C     0.99436   0.50930   0.73626   0.00000  Uiso   1.00
C1005  C     0.67392   0.49116   0.76189   0.00000  Uiso   1.00
C1006  C     0.75858   0.54015   0.92094   0.00000  Uiso   1.00
C1007  C     0.84786   0.65558   0.73806   0.00000  Uiso   1.00
C1008  C     0.81832   0.34534   0.76203   0.00000  Uiso   1.00
C1009  C     0.82268   0.38939   0.75883   0.00000  Uiso   1.00
C1010  C     0.84362   0.61106   0.74130   0.00000  Uiso   1.00
C1011  C     0.85469   0.47889   0.64378   0.00000  Uiso   1.00
C1012  C     0.81171   0.52068   0.85644   0.00000  Uiso   1.00
C1013  C     0.79662   0.52328   0.90018   0.00000  Uiso   1.00
C1014  C     0.86317   0.47059   0.60081   0.00000  Uiso   1.00
C1015  C     0.74124   0.53839   0.96200   0.00000  Uiso   1.00
C1016  C     0.69877   0.51521   0.54843   0.00000  Uiso   1.00
C1017  C     0.81830   0.50527   0.92081   0.00000  Uiso   1.00
C1018  C     0.69331   0.53174   0.70317   0.00000  Uiso   1.00
C1019  C     0.70438   0.56412   0.98186   0.00000  Uiso   1.00
C1020  C     0.85394   0.42462   0.91955   0.00000  Uiso   1.00
C1021  C     0.79976   0.49790   0.96079   0.00000  Uiso   1.00
C1022  C     0.76085   0.51548   0.98260   0.00000  Uiso   1.00
C1023  C     0.82131   0.47594   0.97999   0.00000  Uiso   1.00
C1024  C     0.81071   0.48119   0.52190   0.00000  Uiso   1.00
C1025  C     0.77077   0.49533   0.54284   0.00000  Uiso   1.00
C1026  C     0.74441   0.50956   0.52375   0.00000  Uiso   1.00
Cl1027 Cl    0.95402   0.41952   0.51106   0.00000  Uiso   1.00
H1028  H     0.98431   0.47538   0.78589   0.00000  Uiso   1.00
H1029  H     0.69047   0.50128   0.57699   0.00000  Uiso   1.00
H1030  H     0.69439   0.54868   0.55639   0.00000  Uiso   1.00
H1031  H     0.67537   0.49846   0.53270   0.00000  Uiso   1.00
H1032  H     0.67736   0.54480   0.68462   0.00000  Uiso   1.00
H1033  H     0.71284   0.55798   0.71591   0.00000  Uiso   1.00
H1034  H     0.71515   0.50965   0.68346   0.00000  Uiso   1.00
H1035  H     0.69830   0.58343   0.96102   0.00000  Uiso   1.00
H1036  H     0.67374   0.54391   0.99273   0.00000  Uiso   1.00
H1037  H     0.71257   0.58661   0.50586   0.00000  Uiso   1.00
H1038  H     0.82402   0.42551   0.91097   0.00000  Uiso   1.00
H1039  H     0.87522   0.33632   0.71603   0.00000  Uiso   1.00
H1040  H     0.88276   0.43636   0.89629   0.00000  Uiso   1.00
H1041  H     0.85572   0.39109   0.92113   0.00000  Uiso   1.00
H1042  H     0.79052   0.66530   0.78402   0.00000  Uiso   1.00
H1043  H     0.80679   0.49548   0.60163   0.00000  Uiso   1.00
H1044  H     0.92318   0.44599   0.59240   0.00000  Uiso   1.00
H1045  H     0.90715   0.42051   0.96144   0.00000  Uiso   1.00
H1046  H     0.74240   0.55526   0.90494   0.00000  Uiso   1.00
H1047  H     0.85023   0.49724   0.90507   0.00000  Uiso   1.00
H1048  H     0.75814   0.49325   0.57432   0.00000  Uiso   1.00
O1049  O     0.83333   0.50000   0.75000   0.00000  Uiso   1.00
O1050  O     0.82360   0.45726   0.66625   0.00000  Uiso   1.00
O1051  O     0.79354   0.53979   0.83749   0.00000  Uiso   1.00
O1052  O     0.87755   0.50826   0.65877   0.00000  Uiso   1.00
O1053  O     0.83865   0.49468   0.83749   0.00000  Uiso   1.00
O1054  O     0.84515   0.41434   0.77820   0.00000  Uiso   1.00
O1055  O     0.81247   0.59469   0.76767   0.00000  Uiso   1.00
O1056  O     0.74119   0.46584   0.73607   0.00000  Uiso   1.00
O1057  O     0.93452   0.52512   0.71805   0.00000  Uiso   1.00
O1058  O     0.73656   0.52293   0.77820   0.00000  Uiso   1.00
O1059  O     0.92106   0.48610   0.76767   0.00000  Uiso   1.00
O1060  O     0.80467   0.40236   0.73607   0.00000  Uiso   1.00
O1061  O     0.87104   0.58860   0.71805   0.00000  Uiso   1.00
Zn1062 Zn    0.85910   0.47423   0.78277   0.00000  Uiso   1.00
Zn1063 Zn    0.80125   0.45711   0.72257   0.00000  Uiso   1.00
Zn1064 Zn    0.87833   0.52997   0.71188   0.00000  Uiso   1.00
Zn1065 Zn    0.79465   0.53868   0.78277   0.00000  Uiso   1.00
C1066  C     0.05235   0.82607   0.75938   0.00000  Uiso   1.00
C1067  C     0.18658   0.78241   0.95927   0.00000  Uiso   1.00
C1068  C     0.21513   0.77256   0.97836   0.00000  Uiso   1.00
C1069  C     0.28128   0.84020   0.74091   0.00000  Uiso   1.00
C1070  C     0.21001   0.78456   0.51878   0.00000  Uiso   1.00
C1071  C     0.17288   0.80383   0.54146   0.00000  Uiso   1.00
C1072  C     0.24026   0.77605   0.53742   0.00000  Uiso   1.00
C1073  C     0.23342   0.78614   0.57818   0.00000  Uiso   1.00
C1074  C     0.16682   0.81313   0.58274   0.00000  Uiso   1.00
C1075  C     0.32769   0.84264   0.73626   0.00000  Uiso   1.00
C1076  C     0.00726   0.82449   0.76189   0.00000  Uiso   1.00
C1077  C     0.09191   0.87349   0.92094   0.00000  Uiso   1.00
C1078  C     0.18120   0.98891   0.73806   0.00000  Uiso   1.00
C1079  C     0.15166   0.67868   0.76203   0.00000  Uiso   1.00
C1080  C     0.15601   0.72272   0.75883   0.00000  Uiso   1.00
C1081  C     0.17696   0.94439   0.74130   0.00000  Uiso   1.00
C1082  C     0.18803   0.81222   0.64378   0.00000  Uiso   1.00
C1083  C     0.14505   0.85401   0.85644   0.00000  Uiso   1.00
C1084  C     0.12995   0.85661   0.90018   0.00000  Uiso   1.00
C1085  C     0.19650   0.80392   0.60081   0.00000  Uiso   1.00
C1086  C     0.07457   0.87172   0.96200   0.00000  Uiso   1.00
C1087  C     0.03210   0.84855   0.54843   0.00000  Uiso   1.00
C1088  C     0.15164   0.83860   0.92081   0.00000  Uiso   1.00
C1089  C     0.02665   0.86507   0.70317   0.00000  Uiso   1.00
C1090  C     0.03771   0.89745   0.98186   0.00000  Uiso   1.00
C1091  C     0.18727   0.75795   0.91955   0.00000  Uiso   1.00
C1092  C     0.13309   0.83123   0.96079   0.00000  Uiso   1.00
C1093  C     0.09418   0.84882   0.98260   0.00000  Uiso   1.00
C1094  C     0.15464   0.80927   0.97999   0.00000  Uiso   1.00
C1095  C     0.14404   0.81452   0.52190   0.00000  Uiso   1.00
C1096  C     0.10410   0.82866   0.54284   0.00000  Uiso   1.00
C1097  C     0.07775   0.84290   0.52375   0.00000  Uiso   1.00
Cl1098 Cl    0.28736   0.75285   0.51106   0.00000  Uiso   1.00
H1099  H     0.31765   0.80871   0.78589   0.00000  Uiso   1.00
H1100  H     0.02380   0.83462   0.57699   0.00000  Uiso   1.00
H1101  H     0.02772   0.88202   0.55639   0.00000  Uiso   1.00
H1102  H     0.00870   0.83179   0.53270   0.00000  Uiso   1.00
H1103  H     0.01070   0.87814   0.68462   0.00000  Uiso   1.00
H1104  H     0.04618   0.89131   0.71591   0.00000  Uiso   1.00
H1105  H     0.04848   0.84298   0.68346   0.00000  Uiso   1.00
H1106  H     0.03164   0.91676   0.96102   0.00000  Uiso   1.00
H1107  H     0.00708   0.87724   0.99273   0.00000  Uiso   1.00
H1108  H     0.04591   0.91994   0.50586   0.00000  Uiso   1.00
H1109  H     0.15736   0.75884   0.91097   0.00000  Uiso   1.00
H1110  H     0.20855   0.66965   0.71603   0.00000  Uiso   1.00
H1111  H     0.21609   0.76969   0.89629   0.00000  Uiso   1.00
H1112  H     0.18906   0.72442   0.92113   0.00000  Uiso   1.00
H1113  H     0.12385   0.99863   0.78402   0.00000  Uiso   1.00
H1114  H     0.14012   0.82882   0.60163   0.00000  Uiso   1.00
H1115  H     0.25651   0.77933   0.59240   0.00000  Uiso   1.00
H1116  H     0.24048   0.75384   0.96144   0.00000  Uiso   1.00
H1117  H     0.07574   0.88860   0.90494   0.00000  Uiso   1.00
H1118  H     0.18356   0.83057   0.90507   0.00000  Uiso   1.00
H1119  H     0.09147   0.82659   0.57432   0.00000  Uiso   1.00
O1120  O     0.16667   0.83333   0.75000   0.00000  Uiso   1.00
O1121  O     0.15693   0.79060   0.66625   0.00000  Uiso   1.00
O1122  O     0.12687   0.87313   0.83749   0.00000  Uiso   1.00
O1123  O     0.21088   0.84159   0.65877   0.00000  Uiso   1.00
O1124  O     0.17198   0.82802   0.83749   0.00000  Uiso   1.00
O1125  O     0.17849   0.74768   0.77820   0.00000  Uiso   1.00
O1126  O     0.14581   0.92803   0.76767   0.00000  Uiso   1.00
O1127  O     0.07452   0.79917   0.73607   0.00000  Uiso   1.00
O1128  O     0.26785   0.85845   0.71805   0.00000  Uiso   1.00
O1129  O     0.06990   0.85627   0.77820   0.00000  Uiso   1.00
O1130  O     0.25440   0.81944   0.76767   0.00000  Uiso   1.00
O1131  O     0.13800   0.73570   0.73607   0.00000  Uiso   1.00
O1132  O     0.20437   0.92193   0.71805   0.00000  Uiso   1.00
Zn1133 Zn    0.19244   0.80756   0.78277   0.00000  Uiso   1.00
Zn1134 Zn    0.13459   0.79044   0.72257   0.00000  Uiso   1.00
Zn1135 Zn    0.21166   0.86331   0.71188   0.00000  Uiso   1.00
Zn1136 Zn    0.12798   0.87202   0.78277   0.00000  Uiso   1.00
C1137  C     0.38568   0.82607   0.75938   0.00000  Uiso   1.00
C1138  C     0.51991   0.78241   0.95927   0.00000  Uiso   1.00
C1139  C     0.54846   0.77256   0.97836   0.00000  Uiso   1.00
C1140  C     0.61461   0.84020   0.74091   0.00000  Uiso   1.00
C1141  C     0.54334   0.78456   0.51878   0.00000  Uiso   1.00
C1142  C     0.50622   0.80383   0.54146   0.00000  Uiso   1.00
C1143  C     0.57359   0.77605   0.53742   0.00000  Uiso   1.00
C1144  C     0.56675   0.78614   0.57818   0.00000  Uiso   1.00
C1145  C     0.50016   0.81313   0.58274   0.00000  Uiso   1.00
C1146  C     0.66102   0.84264   0.73626   0.00000  Uiso   1.00
C1147  C     0.34059   0.82449   0.76189   0.00000  Uiso   1.00
C1148  C     0.42525   0.87349   0.92094   0.00000  Uiso   1.00
C1149  C     0.51453   0.98891   0.73806   0.00000  Uiso   1.00
C1150  C     0.48499   0.67868   0.76203   0.00000  Uiso   1.00
C1151  C     0.48935   0.72272   0.75883   0.00000  Uiso   1.00
C1152  C     0.51029   0.94439   0.74130   0.00000  Uiso   1.00
C1153  C     0.52136   0.81222   0.64378   0.00000  Uiso   1.00
C1154  C     0.47838   0.85401   0.85644   0.00000  Uiso   1.00
C1155  C     0.46329   0.85661   0.90018   0.00000  Uiso   1.00
C1156  C     0.52983   0.80392   0.60081   0.00000  Uiso   1.00
C1157  C     0.40790   0.87172   0.96200   0.00000  Uiso   1.00
C1158  C     0.36543   0.84855   0.54843   0.00000  Uiso   1.00
C1159  C     0.48497   0.83860   0.92081   0.00000  Uiso   1.00
C1160  C     0.35998   0.86507   0.70317   0.00000  Uiso   1.00
C1161  C     0.37105   0.89745   0.98186   0.00000  Uiso   1.00
C1162  C     0.52061   0.75795   0.91955   0.00000  Uiso   1.00
C1163  C     0.46642   0.83123   0.96079   0.00000  Uiso   1.00
C1164  C     0.42752   0.84882   0.98260   0.00000  Uiso   1.00
C1165  C     0.48797   0.80927   0.97999   0.00000  Uiso   1.00
C1166  C     0.47737   0.81452   0.52190   0.00000  Uiso   1.00
C1167  C     0.43744   0.82866   0.54284   0.00000  Uiso   1.00
C1168  C     0.41108   0.84290   0.52375   0.00000  Uiso   1.00
Cl1169 Cl    0.62069   0.75285   0.51106   0.00000  Uiso   1.00
H1170  H     0.65098   0.80871   0.78589   0.00000  Uiso   1.00
H1171  H     0.35713   0.83462   0.57699   0.00000  Uiso   1.00
H1172  H     0.36105   0.88202   0.55639   0.00000  Uiso   1.00
H1173  H     0.34203   0.83179   0.53270   0.00000  Uiso   1.00
H1174  H     0.34403   0.87814   0.68462   0.00000  Uiso   1.00
H1175  H     0.37951   0.89131   0.71591   0.00000  Uiso   1.00
H1176  H     0.38182   0.84298   0.68346   0.00000  Uiso   1.00
H1177  H     0.36497   0.91676   0.96102   0.00000  Uiso   1.00
H1178  H     0.34041   0.87724   0.99273   0.00000  Uiso   1.00
H1179  H     0.37924   0.91994   0.50586   0.00000  Uiso   1.00
H1180  H     0.49069   0.75884   0.91097   0.00000  Uiso   1.00
H1181  H     0.54189   0.66965   0.71603   0.00000  Uiso   1.00
H1182  H     0.54942   0.76969   0.89629   0.00000  Uiso   1.00
H1183  H     0.52239   0.72442   0.92113   0.00000  Uiso   1.00
H1184  H     0.45718   0.99863   0.78402   0.00000  Uiso   1.00
H1185  H     0.47345   0.82882   0.60163   0.00000  Uiso   1.00
H1186  H     0.58985   0.77933   0.59240   0.00000  Uiso   1.00
H1187  H     0.57382   0.75384   0.96144   0.00000  Uiso   1.00
H1188  H     0.40907   0.88860   0.90494   0.00000  Uiso   1.00
H1189  H     0.51689   0.83057   0.90507   0.00000  Uiso   1.00
H1190  H     0.42481   0.82659   0.57432   0.00000  Uiso   1.00
O1191  O     0.50000   0.83333   0.75000   0.00000  Uiso   1.00
O1192  O     0.49027   0.79060   0.66625   0.00000  Uiso   1.00
O1193  O     0.46020   0.87313   0.83749   0.00000  Uiso   1.00
O1194  O     0.54421   0.84159   0.65877   0.00000  Uiso   1.00
O1195  O     0.50532   0.82802   0.83749   0.00000  Uiso   1.00
O1196  O     0.51182   0.74768   0.77820   0.00000  Uiso   1.00
O1197  O     0.47914   0.92803   0.76767   0.00000  Uiso   1.00
O1198  O     0.40785   0.79917   0.73607   0.00000  Uiso   1.00
O1199  O     0.60119   0.85845   0.71805   0.00000  Uiso   1.00
O1200  O     0.40323   0.85627   0.77820   0.00000  Uiso   1.00
O1201  O     0.58773   0.81944   0.76767   0.00000  Uiso   1.00
O1202  O     0.47133   0.73570   0.73607   0.00000  Uiso   1.00
O1203  O     0.53771   0.92193   0.71805   0.00000  Uiso   1.00
Zn1204 Zn    0.52577   0.80756   0.78277   0.00000  Uiso   1.00
Zn1205 Zn    0.46792   0.79044   0.72257   0.00000  Uiso   1.00
Zn1206 Zn    0.54500   0.86331   0.71188   0.00000  Uiso   1.00
Zn1207 Zn    0.46131   0.87202   0.78277   0.00000  Uiso   1.00
C1208  C     0.71901   0.82607   0.75938   0.00000  Uiso   1.00
C1209  C     0.85324   0.78241   0.95927   0.00000  Uiso   1.00
C1210  C     0.88179   0.77256   0.97836   0.00000  Uiso   1.00
C1211  C     0.94794   0.84020   0.74091   0.00000  Uiso   1.00
C1212  C     0.87667   0.78456   0.51878   0.00000  Uiso   1.00
C1213  C     0.83955   0.80383   0.54146   0.00000  Uiso   1.00
C1214  C     0.90693   0.77605   0.53742   0.00000  Uiso   1.00
C1215  C     0.90009   0.78614   0.57818   0.00000  Uiso   1.00
C1216  C     0.83349   0.81313   0.58274   0.00000  Uiso   1.00
C1217  C     0.99436   0.84264   0.73626   0.00000  Uiso   1.00
C1218  C     0.67392   0.82449   0.76189   0.00000  Uiso   1.00
C1219  C     0.75858   0.87349   0.92094   0.00000  Uiso   1.00
C1220  C     0.84786   0.98891   0.73806   0.00000  Uiso   1.00
C1221  C     0.81832   0.67868   0.76203   0.00000  Uiso   1.00
C1222  C     0.82268   0.72272   0.75883   0.00000  Uiso   1.00
C1223  C     0.84362   0.94439   0.74130   0.00000  Uiso   1.00
C1224  C     0.85469   0.81222   0.64378   0.00000  Uiso   1.00
C1225  C     0.81171   0.85401   0.85644   0.00000  Uiso   1.00
C1226  C     0.79662   0.85661   0.90018   0.00000  Uiso   1.00
C1227  C     0.86317   0.80392   0.60081   0.00000  Uiso   1.00
C1228  C     0.74124   0.87172   0.96200   0.00000  Uiso   1.00
C1229  C     0.69877   0.84855   0.54843   0.00000  Uiso   1.00
C1230  C     0.81830   0.83860   0.92081   0.00000  Uiso   1.00
C1231  C     0.69331   0.86507   0.70317   0.00000  Uiso   1.00
C1232  C     0.70438   0.89745   0.98186   0.00000  Uiso   1.00
C1233  C     0.85394   0.75795   0.91955   0.00000  Uiso   1.00
C1234  C     0.79976   0.83123   0.96079   0.00000  Uiso   1.00
C1235  C     0.76085   0.84882   0.98260   0.00000  Uiso   1.00
C1236  C     0.82131   0.80927   0.97999   0.00000  Uiso   1.00
C1237  C     0.81071   0.81452   0.52190   0.00000  Uiso   1.00
C1238  C     0.77077   0.82866   0.54284   0.00000  Uiso   1.00
C1239  C     0.74441   0.84290   0.52375   0.00000  Uiso   1.00
Cl1240 Cl    0.95402   0.75285   0.51106   0.00000  Uiso   1.00
H1241  H     0.98431   0.80871   0.78589   0.00000  Uiso   1.00
H1242  H     0.69047   0.83462   0.57699   0.00000  Uiso   1.00
H1243  H     0.69439   0.88202   0.55639   0.00000  Uiso   1.00
H1244  H     0.67537   0.83179   0.53270   0.00000  Uiso   1.00
H1245  H     0.67736   0.87814   0.68462   0.00000  Uiso   1.00
H1246  H     0.71284   0.89131   0.71591   0.00000  Uiso   1.00
H1247  H     0.71515   0.84298   0.68346   0.00000  Uiso   1.00
H1248  H     0.69830   0.91676   0.96102   0.00000  Uiso   1.00
H1249  H     0.67374   0.87724   0.99273   0.00000  Uiso   1.00
H1250  H     0.71257   0.91994   0.50586   0.00000  Uiso   1.00
H1251  H     0.82402   0.75884   0.91097   0.00000  Uiso   1.00
H1252  H     0.87522   0.66965   0.71603   0.00000  Uiso   1.00
H1253  H     0.88276   0.76969   0.89629   0.00000  Uiso   1.00
H1254  H     0.85572   0.72442   0.92113   0.00000  Uiso   1.00
H1255  H     0.79052   0.99863   0.78402   0.00000  Uiso   1.00
H1256  H     0.80679   0.82882   0.60163   0.00000  Uiso   1.00
H1257  H     0.92318   0.77933   0.59240   0.00000  Uiso   1.00
H1258  H     0.90715   0.75384   0.96144   0.00000  Uiso   1.00
H1259  H     0.74240   0.88860   0.90494   0.00000  Uiso   1.00
H1260  H     0.85023   0.83057   0.90507   0.00000  Uiso   1.00
H1261  H     0.75814   0.82659   0.57432   0.00000  Uiso   1.00
O1262  O     0.83333   0.83333   0.75000   0.00000  Uiso   1.00
O1263  O     0.82360   0.79060   0.66625   0.00000  Uiso   1.00
O1264  O     0.79354   0.87313   0.83749   0.00000  Uiso   1.00
O1265  O     0.87755   0.84159   0.65877   0.00000  Uiso   1.00
O1266  O     0.83865   0.82802   0.83749   0.00000  Uiso   1.00
O1267  O     0.84515   0.74768   0.77820   0.00000  Uiso   1.00
O1268  O     0.81247   0.92803   0.76767   0.00000  Uiso   1.00
O1269  O     0.74119   0.79917   0.73607   0.00000  Uiso   1.00
O1270  O     0.93452   0.85845   0.71805   0.00000  Uiso   1.00
O1271  O     0.73656   0.85627   0.77820   0.00000  Uiso   1.00
O1272  O     0.92106   0.81944   0.76767   0.00000  Uiso   1.00
O1273  O     0.80467   0.73570   0.73607   0.00000  Uiso   1.00
O1274  O     0.87104   0.92193   0.71805   0.00000  Uiso   1.00
Zn1275 Zn    0.85910   0.80756   0.78277   0.00000  Uiso   1.00
Zn1276 Zn    0.80125   0.79044   0.72257   0.00000  Uiso   1.00
Zn1277 Zn    0.87833   0.86331   0.71188   0.00000  Uiso   1.00
Zn1278 Zn    0.79465   0.87202   0.78277   0.00000  Uiso   1.00
loop_
_geom_bond_atom_site_label_1
_geom_bond_atom_site_label_2
_geom_bond_distance
_geom_bond_site_symmetry_2
_ccdc_geom_bond_type
C1     O62     1.269   .     A
C1     O64     1.267   .     A
C1     C11     1.440   .     S
C2     C3      1.396   .     A
C2     C26     1.512   .     S
C2     C29     1.426   .     A
C3     H51     1.083   .     S
C3     C644    1.398   .     S
C4     O63     1.274   .     A
C4     O65     1.279   .     A
C4     C10     1.465   .     S
C5     C6      1.422   .     A
C5     C7      1.416   .     A
C5     C642    1.398   1_554 S
C6     C9      1.413   .     A
C6     C30     1.427   .     A
C7     C8      1.394   .     A
C7     Cl33    1.764   .     S
C8     C20     1.394   .     A
C8     H50     1.084   .     S
C9     H49     1.079   .     S
C9     C20     1.394   .     A
C10    C82     1.342   .     S
C10    C95     1.517   .     S
C11    C152    1.342   1_455 S
C11    H176    1.086   1_455 S
C12    C21     1.404   .     A
C12    C19     1.393   .     A
C12    H52     1.084   .     S
C13    C16     1.452   .     S
C13    C227    1.332   .     S
C13    H258    1.088   .     S
C14    C15     1.436   .     S
C14    C439    1.332   1_545 S
C14    H474    1.086   1_545 S
C15    O60     1.275   .     A
C15    O66     1.274   .     A
C16    O67     1.268   .     A
C16    O61     1.268   .     A
C17    O56     1.275   .     A
C17    O58     1.274   .     A
C17    C20     1.459   .     S
C18    O57     1.285   .     A
C18    O59     1.288   .     A
C18    C19     1.477   .     S
C19    C23     1.388   .     A
C21    C28     1.439   .     A
C21    C25     1.511   .     S
C22    H36     1.106   .     S
C22    H35     1.111   .     S
C22    C32     1.513   .     S
C22    H37     1.108   .     S
C23    C27     1.407   .     A
C23    H53     1.079   .     S
C24    H38     1.109   .     S
C24    H39     1.111   .     S
C24    H40     1.111   .     S
C24    C152    1.517   1_455 S
C25    H42     1.107   .     S
C25    H41     1.111   .     S
C25    H682    1.109   .     S
C26    H44     1.109   .     S
C26    H47     1.112   .     S
C26    H46     1.110   .     S
C27    C29     1.428   .     A
C27    C28     1.434   .     A
C28    C671    1.428   .     S
C29    C669    1.414   .     S
C30    C31     1.406   .     A
C30    C668    1.414   1_554 S
C31    C32     1.401   .     A
C31    H54     1.078   .     S
C32    C667    1.428   1_554 S
H34    C82     1.086   .     S
H43    C664    1.109   1_554 S
H45    C439    1.088   1_545 S
H48    C227    1.086   .     S
O55    Zn69    1.939   .     S
O55    Zn70    1.924   .     S
O55    Zn71    1.933   .     S
O55    Zn68    1.955   .     S
O56    Zn69    1.914   .     S
O57    Zn71    1.925   .     S
O58    Zn70    1.921   .     S
O59    Zn68    1.913   .     S
O60    Zn68    1.928   .     S
O61    Zn71    1.928   .     S
O62    Zn69    1.931   .     S
O63    Zn70    1.940   .     S
O64    Zn71    1.933   .     S
O65    Zn68    1.925   .     S
O66    Zn69    1.936   .     S
O67    Zn70    1.932   .     S
C72    O133    1.269   .     A
C72    O135    1.267   .     A
C72    C82     1.440   .     S
C73    C74     1.396   .     A
C73    C97     1.512   .     S
C73    C100    1.426   .     A
C74    H122    1.083   .     S
C74    C715    1.398   .     S
C75    O134    1.274   .     A
C75    O136    1.279   .     A
C75    C81     1.465   .     S
C76    C77     1.422   .     A
C76    C78     1.416   .     A
C76    C713    1.398   1_554 S
C77    C80     1.413   .     A
C77    C101    1.427   .     A
C78    C79     1.394   .     A
C78    Cl104   1.764   .     S
C79    C91     1.394   .     A
C79    H121    1.084   .     S
C80    H120    1.079   .     S
C80    C91     1.394   .     A
C81    C153    1.342   .     S
C81    C166    1.517   .     S
C83    C92     1.404   .     A
C83    C90     1.393   .     A
C83    H123    1.084   .     S
C84    C87     1.452   .     S
C84    C298    1.332   .     S
C84    H329    1.088   .     S
C85    C86     1.436   .     S
C85    C510    1.332   1_545 S
C85    H545    1.086   1_545 S
C86    O131    1.275   .     A
C86    O137    1.274   .     A
C87    O138    1.268   .     A
C87    O132    1.268   .     A
C88    O127    1.275   .     A
C88    O129    1.274   .     A
C88    C91     1.459   .     S
C89    O128    1.285   .     A
C89    O130    1.288   .     A
C89    C90     1.477   .     S
C90    C94     1.388   .     A
C92    C99     1.439   .     A
C92    C96     1.511   .     S
C93    H107    1.106   .     S
C93    H106    1.111   .     S
C93    C103    1.513   .     S
C93    H108    1.108   .     S
C94    C98     1.407   .     A
C94    H124    1.079   .     S
C95    H109    1.109   .     S
C95    H110    1.111   .     S
C95    H111    1.111   .     S
C96    H113    1.107   .     S
C96    H112    1.111   .     S
C96    H753    1.109   .     S
C97    H115    1.109   .     S
C97    H118    1.112   .     S
C97    H117    1.110   .     S
C98    C100    1.428   .     A
C98    C99     1.434   .     A
C99    C742    1.428   .     S
C100   C740    1.414   .     S
C101   C102    1.406   .     A
C101   C739    1.414   1_554 S
C102   C103    1.401   .     A
C102   H125    1.078   .     S
C103   C738    1.428   1_554 S
H105   C153    1.086   .     S
H114   C735    1.109   1_554 S
H116   C510    1.088   1_545 S
H119   C298    1.086   .     S
O126   Zn140   1.939   .     S
O126   Zn141   1.924   .     S
O126   Zn142   1.933   .     S
O126   Zn139   1.955   .     S
O127   Zn140   1.914   .     S
O128   Zn142   1.925   .     S
O129   Zn141   1.921   .     S
O130   Zn139   1.913   .     S
O131   Zn139   1.928   .     S
O132   Zn142   1.928   .     S
O133   Zn140   1.931   .     S
O134   Zn141   1.940   .     S
O135   Zn142   1.933   .     S
O136   Zn139   1.925   .     S
O137   Zn140   1.936   .     S
O138   Zn141   1.932   .     S
C143   O204    1.269   .     A
C143   O206    1.267   .     A
C143   C153    1.440   .     S
C144   C145    1.396   .     A
C144   C168    1.512   .     S
C144   C171    1.426   .     A
C145   H193    1.083   .     S
C145   C786    1.398   .     S
C146   O205    1.274   .     A
C146   O207    1.279   .     A
C146   C152    1.465   .     S
C147   C148    1.422   .     A
C147   C149    1.416   .     A
C147   C784    1.398   1_554 S
C148   C151    1.413   .     A
C148   C172    1.427   .     A
C149   C150    1.394   .     A
C149   Cl175   1.764   .     S
C150   C162    1.394   .     A
C150   H192    1.084   .     S
C151   H191    1.079   .     S
C151   C162    1.394   .     A
C152   C11     1.342   1_655 S
C152   C24     1.517   1_655 S
C154   C163    1.404   .     A
C154   C161    1.393   .     A
C154   H194    1.084   .     S
C155   C158    1.452   .     S
C155   C369    1.332   .     S
C155   H400    1.088   .     S
C156   C157    1.436   .     S
C156   C581    1.332   1_545 S
C156   H616    1.086   1_545 S
C157   O202    1.275   .     A
C157   O208    1.274   .     A
C158   O209    1.268   .     A
C158   O203    1.268   .     A
C159   O198    1.275   .     A
C159   O200    1.274   .     A
C159   C162    1.459   .     S
C160   O199    1.285   .     A
C160   O201    1.288   .     A
C160   C161    1.477   .     S
C161   C165    1.388   .     A
C163   C170    1.439   .     A
C163   C167    1.511   .     S
C164   H178    1.106   .     S
C164   H177    1.111   .     S
C164   C174    1.513   .     S
C164   H179    1.108   .     S
C165   C169    1.407   .     A
C165   H195    1.079   .     S
C166   H180    1.109   .     S
C166   H181    1.111   .     S
C166   H182    1.111   .     S
C167   H184    1.107   .     S
C167   H183    1.111   .     S
C167   H824    1.109   .     S
C168   H186    1.109   .     S
C168   H189    1.112   .     S
C168   H188    1.110   .     S
C169   C171    1.428   .     A
C169   C170    1.434   .     A
C170   C813    1.428   .     S
C171   C811    1.414   .     S
C172   C173    1.406   .     A
C172   C810    1.414   1_554 S
C173   C174    1.401   .     A
C173   H196    1.078   .     S
C174   C809    1.428   1_554 S
H176   C11     1.086   1_655 S
H185   C806    1.109   1_554 S
H187   C581    1.088   1_545 S
H190   C369    1.086   .     S
O197   Zn211   1.939   .     S
O197   Zn212   1.924   .     S
O197   Zn213   1.933   .     S
O197   Zn210   1.955   .     S
O198   Zn211   1.914   .     S
O199   Zn213   1.925   .     S
O200   Zn212   1.921   .     S
O201   Zn210   1.913   .     S
O202   Zn210   1.928   .     S
O203   Zn213   1.928   .     S
O204   Zn211   1.931   .     S
O205   Zn212   1.940   .     S
O206   Zn213   1.933   .     S
O207   Zn210   1.925   .     S
O208   Zn211   1.936   .     S
O209   Zn212   1.932   .     S
C214   O275    1.269   .     A
C214   O277    1.267   .     A
C214   C224    1.440   .     S
C215   C216    1.396   .     A
C215   C239    1.512   .     S
C215   C242    1.426   .     A
C216   H264    1.083   .     S
C216   C857    1.398   .     S
C217   O276    1.274   .     A
C217   O278    1.279   .     A
C217   C223    1.465   .     S
C218   C219    1.422   .     A
C218   C220    1.416   .     A
C218   C855    1.398   1_554 S
C219   C222    1.413   .     A
C219   C243    1.427   .     A
C220   C221    1.394   .     A
C220   Cl246   1.764   .     S
C221   C233    1.394   .     A
C221   H263    1.084   .     S
C222   H262    1.079   .     S
C222   C233    1.394   .     A
C223   C295    1.342   .     S
C223   C308    1.517   .     S
C224   C365    1.342   1_455 S
C224   H389    1.086   1_455 S
C225   C234    1.404   .     A
C225   C232    1.393   .     A
C225   H265    1.084   .     S
C226   C229    1.452   .     S
C226   C440    1.332   .     S
C226   H471    1.088   .     S
C227   C228    1.436   .     S
C228   O273    1.275   .     A
C228   O279    1.274   .     A
C229   O280    1.268   .     A
C229   O274    1.268   .     A
C230   O269    1.275   .     A
C230   O271    1.274   .     A
C230   C233    1.459   .     S
C231   O270    1.285   .     A
C231   O272    1.288   .     A
C231   C232    1.477   .     S
C232   C236    1.388   .     A
C234   C241    1.439   .     A
C234   C238    1.511   .     S
C235   H249    1.106   .     S
C235   H248    1.111   .     S
C235   C245    1.513   .     S
C235   H250    1.108   .     S
C236   C240    1.407   .     A
C236   H266    1.079   .     S
C237   H251    1.109   .     S
C237   H252    1.111   .     S
C237   H253    1.111   .     S
C237   C365    1.517   1_455 S
C238   H255    1.107   .     S
C238   H254    1.111   .     S
C238   H895    1.109   .     S
C239   H257    1.109   .     S
C239   H260    1.112   .     S
C239   H259    1.110   .     S
C240   C242    1.428   .     A
C240   C241    1.434   .     A
C241   C884    1.428   .     S
C242   C882    1.414   .     S
C243   C244    1.406   .     A
C243   C881    1.414   1_554 S
C244   C245    1.401   .     A
C244   H267    1.078   .     S
C245   C880    1.428   1_554 S
H247   C295    1.086   .     S
H256   C877    1.109   1_554 S
H261   C440    1.086   .     S
O268   Zn282   1.939   .     S
O268   Zn283   1.924   .     S
O268   Zn284   1.933   .     S
O268   Zn281   1.955   .     S
O269   Zn282   1.914   .     S
O270   Zn284   1.925   .     S
O271   Zn283   1.921   .     S
O272   Zn281   1.913   .     S
O273   Zn281   1.928   .     S
O274   Zn284   1.928   .     S
O275   Zn282   1.931   .     S
O276   Zn283   1.940   .     S
O277   Zn284   1.933   .     S
O278   Zn281   1.925   .     S
O279   Zn282   1.936   .     S
O280   Zn283   1.932   .     S
C285   O346    1.269   .     A
C285   O348    1.267   .     A
C285   C295    1.440   .     S
C286   C287    1.396   .     A
C286   C310    1.512   .     S
C286   C313    1.426   .     A
C287   H335    1.083   .     S
C287   C928    1.398   .     S
C288   O347    1.274   .     A
C288   O349    1.279   .     A
C288   C294    1.465   .     S
C289   C290    1.422   .     A
C289   C291    1.416   .     A
C289   C926    1.398   1_554 S
C290   C293    1.413   .     A
C290   C314    1.427   .     A
C291   C292    1.394   .     A
C291   Cl317   1.764   .     S
C292   C304    1.394   .     A
C292   H334    1.084   .     S
C293   H333    1.079   .     S
C293   C304    1.394   .     A
C294   C366    1.342   .     S
C294   C379    1.517   .     S
C296   C305    1.404   .     A
C296   C303    1.393   .     A
C296   H336    1.084   .     S
C297   C300    1.452   .     S
C297   C511    1.332   .     S
C297   H542    1.088   .     S
C298   C299    1.436   .     S
C299   O344    1.275   .     A
C299   O350    1.274   .     A
C300   O351    1.268   .     A
C300   O345    1.268   .     A
C301   O340    1.275   .     A
C301   O342    1.274   .     A
C301   C304    1.459   .     S
C302   O341    1.285   .     A
C302   O343    1.288   .     A
C302   C303    1.477   .     S
C303   C307    1.388   .     A
C305   C312    1.439   .     A
C305   C309    1.511   .     S
C306   H320    1.106   .     S
C306   H319    1.111   .     S
C306   C316    1.513   .     S
C306   H321    1.108   .     S
C307   C311    1.407   .     A
C307   H337    1.079   .     S
C308   H322    1.109   .     S
C308   H323    1.111   .     S
C308   H324    1.111   .     S
C309   H326    1.107   .     S
C309   H325    1.111   .     S
C309   H966    1.109   .     S
C310   H328    1.109   .     S
C310   H331    1.112   .     S
C310   H330    1.110   .     S
C311   C313    1.428   .     A
C311   C312    1.434   .     A
C312   C955    1.428   .     S
C313   C953    1.414   .     S
C314   C315    1.406   .     A
C314   C952    1.414   1_554 S
C315   C316    1.401   .     A
C315   H338    1.078   .     S
C316   C951    1.428   1_554 S
H318   C366    1.086   .     S
H327   C948    1.109   1_554 S
H332   C511    1.086   .     S
O339   Zn353   1.939   .     S
O339   Zn354   1.924   .     S
O339   Zn355   1.933   .     S
O339   Zn352   1.955   .     S
O340   Zn353   1.914   .     S
O341   Zn355   1.925   .     S
O342   Zn354   1.921   .     S
O343   Zn352   1.913   .     S
O344   Zn352   1.928   .     S
O345   Zn355   1.928   .     S
O346   Zn353   1.931   .     S
O347   Zn354   1.940   .     S
O348   Zn355   1.933   .     S
O349   Zn352   1.925   .     S
O350   Zn353   1.936   .     S
O351   Zn354   1.932   .     S
C356   O417    1.269   .     A
C356   O419    1.267   .     A
C356   C366    1.440   .     S
C357   C358    1.396   .     A
C357   C381    1.512   .     S
C357   C384    1.426   .     A
C358   H406    1.083   .     S
C358   C999    1.398   .     S
C359   O418    1.274   .     A
C359   O420    1.279   .     A
C359   C365    1.465   .     S
C360   C361    1.422   .     A
C360   C362    1.416   .     A
C360   C997    1.398   1_554 S
C361   C364    1.413   .     A
C361   C385    1.427   .     A
C362   C363    1.394   .     A
C362   Cl388   1.764   .     S
C363   C375    1.394   .     A
C363   H405    1.084   .     S
C364   H404    1.079   .     S
C364   C375    1.394   .     A
C365   C224    1.342   1_655 S
C365   C237    1.517   1_655 S
C367   C376    1.404   .     A
C367   C374    1.393   .     A
C367   H407    1.084   .     S
C368   C371    1.452   .     S
C368   C582    1.332   .     S
C368   H613    1.088   .     S
C369   C370    1.436   .     S
C370   O415    1.275   .     A
C370   O421    1.274   .     A
C371   O422    1.268   .     A
C371   O416    1.268   .     A
C372   O411    1.275   .     A
C372   O413    1.274   .     A
C372   C375    1.459   .     S
C373   O412    1.285   .     A
C373   O414    1.288   .     A
C373   C374    1.477   .     S
C374   C378    1.388   .     A
C376   C383    1.439   .     A
C376   C380    1.511   .     S
C377   H391    1.106   .     S
C377   H390    1.111   .     S
C377   C387    1.513   .     S
C377   H392    1.108   .     S
C378   C382    1.407   .     A
C378   H408    1.079   .     S
C379   H393    1.109   .     S
C379   H394    1.111   .     S
C379   H395    1.111   .     S
C380   H397    1.107   .     S
C380   H396    1.111   .     S
C380   H1037   1.109   .     S
C381   H399    1.109   .     S
C381   H402    1.112   .     S
C381   H401    1.110   .     S
C382   C384    1.428   .     A
C382   C383    1.434   .     A
C383   C1026   1.428   .     S
C384   C1024   1.414   .     S
C385   C386    1.406   .     A
C385   C1023   1.414   1_554 S
C386   C387    1.401   .     A
C386   H409    1.078   .     S
C387   C1022   1.428   1_554 S
H389   C224    1.086   1_655 S
H398   C1019   1.109   1_554 S
H403   C582    1.086   .     S
O410   Zn424   1.939   .     S
O410   Zn425   1.924   .     S
O410   Zn426   1.933   .     S
O410   Zn423   1.955   .     S
O411   Zn424   1.914   .     S
O412   Zn426   1.925   .     S
O413   Zn425   1.921   .     S
O414   Zn423   1.913   .     S
O415   Zn423   1.928   .     S
O416   Zn426   1.928   .     S
O417   Zn424   1.931   .     S
O418   Zn425   1.940   .     S
O419   Zn426   1.933   .     S
O420   Zn423   1.925   .     S
O421   Zn424   1.936   .     S
O422   Zn425   1.932   .     S
C427   O488    1.269   .     A
C427   O490    1.267   .     A
C427   C437    1.440   .     S
C428   C429    1.396   .     A
C428   C452    1.512   .     S
C428   C455    1.426   .     A
C429   H477    1.083   .     S
C429   C1070   1.398   .     S
C430   O489    1.274   .     A
C430   O491    1.279   .     A
C430   C436    1.465   .     S
C431   C432    1.422   .     A
C431   C433    1.416   .     A
C431   C1068   1.398   1_554 S
C432   C435    1.413   .     A
C432   C456    1.427   .     A
C433   C434    1.394   .     A
C433   Cl459   1.764   .     S
C434   C446    1.394   .     A
C434   H476    1.084   .     S
C435   H475    1.079   .     S
C435   C446    1.394   .     A
C436   C508    1.342   .     S
C436   C521    1.517   .     S
C437   C578    1.342   1_455 S
C437   H602    1.086   1_455 S
C438   C447    1.404   .     A
C438   C445    1.393   .     A
C438   H478    1.084   .     S
C439   C442    1.452   .     S
C439   C14     1.332   1_565 S
C439   H45     1.088   1_565 S
C440   C441    1.436   .     S
C441   O486    1.275   .     A
C441   O492    1.274   .     A
C442   O493    1.268   .     A
C442   O487    1.268   .     A
C443   O482    1.275   .     A
C443   O484    1.274   .     A
C443   C446    1.459   .     S
C444   O483    1.285   .     A
C444   O485    1.288   .     A
C444   C445    1.477   .     S
C445   C449    1.388   .     A
C447   C454    1.439   .     A
C447   C451    1.511   .     S
C448   H462    1.106   .     S
C448   H461    1.111   .     S
C448   C458    1.513   .     S
C448   H463    1.108   .     S
C449   C453    1.407   .     A
C449   H479    1.079   .     S
C450   H464    1.109   .     S
C450   H465    1.111   .     S
C450   H466    1.111   .     S
C450   C578    1.517   1_455 S
C451   H468    1.107   .     S
C451   H467    1.111   .     S
C451   H1108   1.109   .     S
C452   H470    1.109   .     S
C452   H473    1.112   .     S
C452   H472    1.110   .     S
C453   C455    1.428   .     A
C453   C454    1.434   .     A
C454   C1097   1.428   .     S
C455   C1095   1.414   .     S
C456   C457    1.406   .     A
C456   C1094   1.414   1_554 S
C457   C458    1.401   .     A
C457   H480    1.078   .     S
C458   C1093   1.428   1_554 S
H460   C508    1.086   .     S
H469   C1090   1.109   1_554 S
H474   C14     1.086   1_565 S
O481   Zn495   1.939   .     S
O481   Zn496   1.924   .     S
O481   Zn497   1.933   .     S
O481   Zn494   1.955   .     S
O482   Zn495   1.914   .     S
O483   Zn497   1.925   .     S
O484   Zn496   1.921   .     S
O485   Zn494   1.913   .     S
O486   Zn494   1.928   .     S
O487   Zn497   1.928   .     S
O488   Zn495   1.931   .     S
O489   Zn496   1.940   .     S
O490   Zn497   1.933   .     S
O491   Zn494   1.925   .     S
O492   Zn495   1.936   .     S
O493   Zn496   1.932   .     S
C498   O559    1.269   .     A
C498   O561    1.267   .     A
C498   C508    1.440   .     S
C499   C500    1.396   .     A
C499   C523    1.512   .     S
C499   C526    1.426   .     A
C500   H548    1.083   .     S
C500   C1141   1.398   .     S
C501   O560    1.274   .     A
C501   O562    1.279   .     A
C501   C507    1.465   .     S
C502   C503    1.422   .     A
C502   C504    1.416   .     A
C502   C1139   1.398   1_554 S
C503   C506    1.413   .     A
C503   C527    1.427   .     A
C504   C505    1.394   .     A
C504   Cl530   1.764   .     S
C505   C517    1.394   .     A
C505   H547    1.084   .     S
C506   H546    1.079   .     S
C506   C517    1.394   .     A
C507   C579    1.342   .     S
C507   C592    1.517   .     S
C509   C518    1.404   .     A
C509   C516    1.393   .     A
C509   H549    1.084   .     S
C510   C513    1.452   .     S
C510   C85     1.332   1_565 S
C510   H116    1.088   1_565 S
C511   C512    1.436   .     S
C512   O557    1.275   .     A
C512   O563    1.274   .     A
C513   O564    1.268   .     A
C513   O558    1.268   .     A
C514   O553    1.275   .     A
C514   O555    1.274   .     A
C514   C517    1.459   .     S
C515   O554    1.285   .     A
C515   O556    1.288   .     A
C515   C516    1.477   .     S
C516   C520    1.388   .     A
C518   C525    1.439   .     A
C518   C522    1.511   .     S
C519   H533    1.106   .     S
C519   H532    1.111   .     S
C519   C529    1.513   .     S
C519   H534    1.108   .     S
C520   C524    1.407   .     A
C520   H550    1.079   .     S
C521   H535    1.109   .     S
C521   H536    1.111   .     S
C521   H537    1.111   .     S
C522   H539    1.107   .     S
C522   H538    1.111   .     S
C522   H1179   1.109   .     S
C523   H541    1.109   .     S
C523   H544    1.112   .     S
C523   H543    1.110   .     S
C524   C526    1.428   .     A
C524   C525    1.434   .     A
C525   C1168   1.428   .     S
C526   C1166   1.414   .     S
C527   C528    1.406   .     A
C527   C1165   1.414   1_554 S
C528   C529    1.401   .     A
C528   H551    1.078   .     S
C529   C1164   1.428   1_554 S
H531   C579    1.086   .     S
H540   C1161   1.109   1_554 S
H545   C85     1.086   1_565 S
O552   Zn566   1.939   .     S
O552   Zn567   1.924   .     S
O552   Zn568   1.933   .     S
O552   Zn565   1.955   .     S
O553   Zn566   1.914   .     S
O554   Zn568   1.925   .     S
O555   Zn567   1.921   .     S
O556   Zn565   1.913   .     S
O557   Zn565   1.928   .     S
O558   Zn568   1.928   .     S
O559   Zn566   1.931   .     S
O560   Zn567   1.940   .     S
O561   Zn568   1.933   .     S
O562   Zn565   1.925   .     S
O563   Zn566   1.936   .     S
O564   Zn567   1.932   .     S
C569   O630    1.269   .     A
C569   O632    1.267   .     A
C569   C579    1.440   .     S
C570   C571    1.396   .     A
C570   C594    1.512   .     S
C570   C597    1.426   .     A
C571   H619    1.083   .     S
C571   C1212   1.398   .     S
C572   O631    1.274   .     A
C572   O633    1.279   .     A
C572   C578    1.465   .     S
C573   C574    1.422   .     A
C573   C575    1.416   .     A
C573   C1210   1.398   1_554 S
C574   C577    1.413   .     A
C574   C598    1.427   .     A
C575   C576    1.394   .     A
C575   Cl601   1.764   .     S
C576   C588    1.394   .     A
C576   H618    1.084   .     S
C577   H617    1.079   .     S
C577   C588    1.394   .     A
C578   C437    1.342   1_655 S
C578   C450    1.517   1_655 S
C580   C589    1.404   .     A
C580   C587    1.393   .     A
C580   H620    1.084   .     S
C581   C584    1.452   .     S
C581   C156    1.332   1_565 S
C581   H187    1.088   1_565 S
C582   C583    1.436   .     S
C583   O628    1.275   .     A
C583   O634    1.274   .     A
C584   O635    1.268   .     A
C584   O629    1.268   .     A
C585   O624    1.275   .     A
C585   O626    1.274   .     A
C585   C588    1.459   .     S
C586   O625    1.285   .     A
C586   O627    1.288   .     A
C586   C587    1.477   .     S
C587   C591    1.388   .     A
C589   C596    1.439   .     A
C589   C593    1.511   .     S
C590   H604    1.106   .     S
C590   H603    1.111   .     S
C590   C600    1.513   .     S
C590   H605    1.108   .     S
C591   C595    1.407   .     A
C591   H621    1.079   .     S
C592   H606    1.109   .     S
C592   H607    1.111   .     S
C592   H608    1.111   .     S
C593   H610    1.107   .     S
C593   H609    1.111   .     S
C593   H1250   1.109   .     S
C594   H612    1.109   .     S
C594   H615    1.112   .     S
C594   H614    1.110   .     S
C595   C597    1.428   .     A
C595   C596    1.434   .     A
C596   C1239   1.428   .     S
C597   C1237   1.414   .     S
C598   C599    1.406   .     A
C598   C1236   1.414   1_554 S
C599   C600    1.401   .     A
C599   H622    1.078   .     S
C600   C1235   1.428   1_554 S
H602   C437    1.086   1_655 S
H611   C1232   1.109   1_554 S
H616   C156    1.086   1_565 S
O623   Zn637   1.939   .     S
O623   Zn638   1.924   .     S
O623   Zn639   1.933   .     S
O623   Zn636   1.955   .     S
O624   Zn637   1.914   .     S
O625   Zn639   1.925   .     S
O626   Zn638   1.921   .     S
O627   Zn636   1.913   .     S
O628   Zn636   1.928   .     S
O629   Zn639   1.928   .     S
O630   Zn637   1.931   .     S
O631   Zn638   1.940   .     S
O632   Zn639   1.933   .     S
O633   Zn636   1.925   .     S
O634   Zn637   1.936   .     S
O635   Zn638   1.932   .     S
C640   O701    1.269   .     A
C640   O703    1.267   .     A
C640   C650    1.440   .     S
C641   C642    1.396   .     A
C641   C665    1.512   .     S
C641   C668    1.426   .     A
C642   H690    1.083   .     S
C642   C5      1.398   1_556 S
C643   O702    1.274   .     A
C643   O704    1.279   .     A
C643   C649    1.465   .     S
C644   C645    1.422   .     A
C644   C646    1.416   .     A
C645   C648    1.413   .     A
C645   C669    1.427   .     A
C646   C647    1.394   .     A
C646   Cl672   1.764   .     S
C647   C659    1.394   .     A
C647   H689    1.084   .     S
C648   H688    1.079   .     S
C648   C659    1.394   .     A
C649   C721    1.342   .     S
C649   C734    1.517   .     S
C650   C791    1.342   1_455 S
C650   H815    1.086   1_455 S
C651   C660    1.404   .     A
C651   C658    1.393   .     A
C651   H691    1.084   .     S
C652   C655    1.452   .     S
C652   C866    1.332   .     S
C652   H897    1.088   .     S
C653   C654    1.436   .     S
C653   C1078   1.332   1_545 S
C653   H1113   1.086   1_545 S
C654   O699    1.275   .     A
C654   O705    1.274   .     A
C655   O706    1.268   .     A
C655   O700    1.268   .     A
C656   O695    1.275   .     A
C656   O697    1.274   .     A
C656   C659    1.459   .     S
C657   O696    1.285   .     A
C657   O698    1.288   .     A
C657   C658    1.477   .     S
C658   C662    1.388   .     A
C660   C667    1.439   .     A
C660   C664    1.511   .     S
C661   H675    1.106   .     S
C661   H674    1.111   .     S
C661   C671    1.513   .     S
C661   H676    1.108   .     S
C662   C666    1.407   .     A
C662   H692    1.079   .     S
C663   H677    1.109   .     S
C663   H678    1.111   .     S
C663   H679    1.111   .     S
C663   C791    1.517   1_455 S
C664   H681    1.107   .     S
C664   H680    1.111   .     S
C664   H43     1.109   1_556 S
C665   H683    1.109   .     S
C665   H686    1.112   .     S
C665   H685    1.110   .     S
C666   C668    1.428   .     A
C666   C667    1.434   .     A
C667   C32     1.428   1_556 S
C668   C30     1.414   1_556 S
C669   C670    1.406   .     A
C670   C671    1.401   .     A
C670   H693    1.078   .     S
H673   C721    1.086   .     S
H684   C1078   1.088   1_545 S
H687   C866    1.086   .     S
O694   Zn708   1.939   .     S
O694   Zn709   1.924   .     S
O694   Zn710   1.933   .     S
O694   Zn707   1.955   .     S
O695   Zn708   1.914   .     S
O696   Zn710   1.925   .     S
O697   Zn709   1.921   .     S
O698   Zn707   1.913   .     S
O699   Zn707   1.928   .     S
O700   Zn710   1.928   .     S
O701   Zn708   1.931   .     S
O702   Zn709   1.940   .     S
O703   Zn710   1.933   .     S
O704   Zn707   1.925   .     S
O705   Zn708   1.936   .     S
O706   Zn709   1.932   .     S
C711   O772    1.269   .     A
C711   O774    1.267   .     A
C711   C721    1.440   .     S
C712   C713    1.396   .     A
C712   C736    1.512   .     S
C712   C739    1.426   .     A
C713   H761    1.083   .     S
C713   C76     1.398   1_556 S
C714   O773    1.274   .     A
C714   O775    1.279   .     A
C714   C720    1.465   .     S
C715   C716    1.422   .     A
C715   C717    1.416   .     A
C716   C719    1.413   .     A
C716   C740    1.427   .     A
C717   C718    1.394   .     A
C717   Cl743   1.764   .     S
C718   C730    1.394   .     A
C718   H760    1.084   .     S
C719   H759    1.079   .     S
C719   C730    1.394   .     A
C720   C792    1.342   .     S
C720   C805    1.517   .     S
C722   C731    1.404   .     A
C722   C729    1.393   .     A
C722   H762    1.084   .     S
C723   C726    1.452   .     S
C723   C937    1.332   .     S
C723   H968    1.088   .     S
C724   C725    1.436   .     S
C724   C1149   1.332   1_545 S
C724   H1184   1.086   1_545 S
C725   O770    1.275   .     A
C725   O776    1.274   .     A
C726   O777    1.268   .     A
C726   O771    1.268   .     A
C727   O766    1.275   .     A
C727   O768    1.274   .     A
C727   C730    1.459   .     S
C728   O767    1.285   .     A
C728   O769    1.288   .     A
C728   C729    1.477   .     S
C729   C733    1.388   .     A
C731   C738    1.439   .     A
C731   C735    1.511   .     S
C732   H746    1.106   .     S
C732   H745    1.111   .     S
C732   C742    1.513   .     S
C732   H747    1.108   .     S
C733   C737    1.407   .     A
C733   H763    1.079   .     S
C734   H748    1.109   .     S
C734   H749    1.111   .     S
C734   H750    1.111   .     S
C735   H752    1.107   .     S
C735   H751    1.111   .     S
C735   H114    1.109   1_556 S
C736   H754    1.109   .     S
C736   H757    1.112   .     S
C736   H756    1.110   .     S
C737   C739    1.428   .     A
C737   C738    1.434   .     A
C738   C103    1.428   1_556 S
C739   C101    1.414   1_556 S
C740   C741    1.406   .     A
C741   C742    1.401   .     A
C741   H764    1.078   .     S
H744   C792    1.086   .     S
H755   C1149   1.088   1_545 S
H758   C937    1.086   .     S
O765   Zn779   1.939   .     S
O765   Zn780   1.924   .     S
O765   Zn781   1.933   .     S
O765   Zn778   1.955   .     S
O766   Zn779   1.914   .     S
O767   Zn781   1.925   .     S
O768   Zn780   1.921   .     S
O769   Zn778   1.913   .     S
O770   Zn778   1.928   .     S
O771   Zn781   1.928   .     S
O772   Zn779   1.931   .     S
O773   Zn780   1.940   .     S
O774   Zn781   1.933   .     S
O775   Zn778   1.925   .     S
O776   Zn779   1.936   .     S
O777   Zn780   1.932   .     S
C782   O843    1.269   .     A
C782   O845    1.267   .     A
C782   C792    1.440   .     S
C783   C784    1.396   .     A
C783   C807    1.512   .     S
C783   C810    1.426   .     A
C784   H832    1.083   .     S
C784   C147    1.398   1_556 S
C785   O844    1.274   .     A
C785   O846    1.279   .     A
C785   C791    1.465   .     S
C786   C787    1.422   .     A
C786   C788    1.416   .     A
C787   C790    1.413   .     A
C787   C811    1.427   .     A
C788   C789    1.394   .     A
C788   Cl814   1.764   .     S
C789   C801    1.394   .     A
C789   H831    1.084   .     S
C790   H830    1.079   .     S
C790   C801    1.394   .     A
C791   C650    1.342   1_655 S
C791   C663    1.517   1_655 S
C793   C802    1.404   .     A
C793   C800    1.393   .     A
C793   H833    1.084   .     S
C794   C797    1.452   .     S
C794   C1008   1.332   .     S
C794   H1039   1.088   .     S
C795   C796    1.436   .     S
C795   C1220   1.332   1_545 S
C795   H1255   1.086   1_545 S
C796   O841    1.275   .     A
C796   O847    1.274   .     A
C797   O848    1.268   .     A
C797   O842    1.268   .     A
C798   O837    1.275   .     A
C798   O839    1.274   .     A
C798   C801    1.459   .     S
C799   O838    1.285   .     A
C799   O840    1.288   .     A
C799   C800    1.477   .     S
C800   C804    1.388   .     A
C802   C809    1.439   .     A
C802   C806    1.511   .     S
C803   H817    1.106   .     S
C803   H816    1.111   .     S
C803   C813    1.513   .     S
C803   H818    1.108   .     S
C804   C808    1.407   .     A
C804   H834    1.079   .     S
C805   H819    1.109   .     S
C805   H820    1.111   .     S
C805   H821    1.111   .     S
C806   H823    1.107   .     S
C806   H822    1.111   .     S
C806   H185    1.109   1_556 S
C807   H825    1.109   .     S
C807   H828    1.112   .     S
C807   H827    1.110   .     S
C808   C810    1.428   .     A
C808   C809    1.434   .     A
C809   C174    1.428   1_556 S
C810   C172    1.414   1_556 S
C811   C812    1.406   .     A
C812   C813    1.401   .     A
C812   H835    1.078   .     S
H815   C650    1.086   1_655 S
H826   C1220   1.088   1_545 S
H829   C1008   1.086   .     S
O836   Zn850   1.939   .     S
O836   Zn851   1.924   .     S
O836   Zn852   1.933   .     S
O836   Zn849   1.955   .     S
O837   Zn850   1.914   .     S
O838   Zn852   1.925   .     S
O839   Zn851   1.921   .     S
O840   Zn849   1.913   .     S
O841   Zn849   1.928   .     S
O842   Zn852   1.928   .     S
O843   Zn850   1.931   .     S
O844   Zn851   1.940   .     S
O845   Zn852   1.933   .     S
O846   Zn849   1.925   .     S
O847   Zn850   1.936   .     S
O848   Zn851   1.932   .     S
C853   O914    1.269   .     A
C853   O916    1.267   .     A
C853   C863    1.440   .     S
C854   C855    1.396   .     A
C854   C878    1.512   .     S
C854   C881    1.426   .     A
C855   H903    1.083   .     S
C855   C218    1.398   1_556 S
C856   O915    1.274   .     A
C856   O917    1.279   .     A
C856   C862    1.465   .     S
C857   C858    1.422   .     A
C857   C859    1.416   .     A
C858   C861    1.413   .     A
C858   C882    1.427   .     A
C859   C860    1.394   .     A
C859   Cl885   1.764   .     S
C860   C872    1.394   .     A
C860   H902    1.084   .     S
C861   H901    1.079   .     S
C861   C872    1.394   .     A
C862   C934    1.342   .     S
C862   C947    1.517   .     S
C863   C1004   1.342   1_455 S
C863   H1028   1.086   1_455 S
C864   C873    1.404   .     A
C864   C871    1.393   .     A
C864   H904    1.084   .     S
C865   C868    1.452   .     S
C865   C1079   1.332   .     S
C865   H1110   1.088   .     S
C866   C867    1.436   .     S
C867   O912    1.275   .     A
C867   O918    1.274   .     A
C868   O919    1.268   .     A
C868   O913    1.268   .     A
C869   O908    1.275   .     A
C869   O910    1.274   .     A
C869   C872    1.459   .     S
C870   O909    1.285   .     A
C870   O911    1.288   .     A
C870   C871    1.477   .     S
C871   C875    1.388   .     A
C873   C880    1.439   .     A
C873   C877    1.511   .     S
C874   H888    1.106   .     S
C874   H887    1.111   .     S
C874   C884    1.513   .     S
C874   H889    1.108   .     S
C875   C879    1.407   .     A
C875   H905    1.079   .     S
C876   H890    1.109   .     S
C876   H891    1.111   .     S
C876   H892    1.111   .     S
C876   C1004   1.517   1_455 S
C877   H894    1.107   .     S
C877   H893    1.111   .     S
C877   H256    1.109   1_556 S
C878   H896    1.109   .     S
C878   H899    1.112   .     S
C878   H898    1.110   .     S
C879   C881    1.428   .     A
C879   C880    1.434   .     A
C880   C245    1.428   1_556 S
C881   C243    1.414   1_556 S
C882   C883    1.406   .     A
C883   C884    1.401   .     A
C883   H906    1.078   .     S
H886   C934    1.086   .     S
H900   C1079   1.086   .     S
O907   Zn921   1.939   .     S
O907   Zn922   1.924   .     S
O907   Zn923   1.933   .     S
O907   Zn920   1.955   .     S
O908   Zn921   1.914   .     S
O909   Zn923   1.925   .     S
O910   Zn922   1.921   .     S
O911   Zn920   1.913   .     S
O912   Zn920   1.928   .     S
O913   Zn923   1.928   .     S
O914   Zn921   1.931   .     S
O915   Zn922   1.940   .     S
O916   Zn923   1.933   .     S
O917   Zn920   1.925   .     S
O918   Zn921   1.936   .     S
O919   Zn922   1.932   .     S
C924   O985    1.269   .     A
C924   O987    1.267   .     A
C924   C934    1.440   .     S
C925   C926    1.396   .     A
C925   C949    1.512   .     S
C925   C952    1.426   .     A
C926   H974    1.083   .     S
C926   C289    1.398   1_556 S
C927   O986    1.274   .     A
C927   O988    1.279   .     A
C927   C933    1.465   .     S
C928   C929    1.422   .     A
C928   C930    1.416   .     A
C929   C932    1.413   .     A
C929   C953    1.427   .     A
C930   C931    1.394   .     A
C930   Cl956   1.764   .     S
C931   C943    1.394   .     A
C931   H973    1.084   .     S
C932   H972    1.079   .     S
C932   C943    1.394   .     A
C933   C1005   1.342   .     S
C933   C1018   1.517   .     S
C935   C944    1.404   .     A
C935   C942    1.393   .     A
C935   H975    1.084   .     S
C936   C939    1.452   .     S
C936   C1150   1.332   .     S
C936   H1181   1.088   .     S
C937   C938    1.436   .     S
C938   O983    1.275   .     A
C938   O989    1.274   .     A
C939   O990    1.268   .     A
C939   O984    1.268   .     A
C940   O979    1.275   .     A
C940   O981    1.274   .     A
C940   C943    1.459   .     S
C941   O980    1.285   .     A
C941   O982    1.288   .     A
C941   C942    1.477   .     S
C942   C946    1.388   .     A
C944   C951    1.439   .     A
C944   C948    1.511   .     S
C945   H959    1.106   .     S
C945   H958    1.111   .     S
C945   C955    1.513   .     S
C945   H960    1.108   .     S
C946   C950    1.407   .     A
C946   H976    1.079   .     S
C947   H961    1.109   .     S
C947   H962    1.111   .     S
C947   H963    1.111   .     S
C948   H965    1.107   .     S
C948   H964    1.111   .     S
C948   H327    1.109   1_556 S
C949   H967    1.109   .     S
C949   H970    1.112   .     S
C949   H969    1.110   .     S
C950   C952    1.428   .     A
C950   C951    1.434   .     A
C951   C316    1.428   1_556 S
C952   C314    1.414   1_556 S
C953   C954    1.406   .     A
C954   C955    1.401   .     A
C954   H977    1.078   .     S
H957   C1005   1.086   .     S
H971   C1150   1.086   .     S
O978   Zn992   1.939   .     S
O978   Zn993   1.924   .     S
O978   Zn994   1.933   .     S
O978   Zn991   1.955   .     S
O979   Zn992   1.914   .     S
O980   Zn994   1.925   .     S
O981   Zn993   1.921   .     S
O982   Zn991   1.913   .     S
O983   Zn991   1.928   .     S
O984   Zn994   1.928   .     S
O985   Zn992   1.931   .     S
O986   Zn993   1.940   .     S
O987   Zn994   1.933   .     S
O988   Zn991   1.925   .     S
O989   Zn992   1.936   .     S
O990   Zn993   1.932   .     S
C995   O1056   1.269   .     A
C995   O1058   1.267   .     A
C995   C1005   1.440   .     S
C996   C997    1.396   .     A
C996   C1020   1.512   .     S
C996   C1023   1.426   .     A
C997   H1045   1.083   .     S
C997   C360    1.398   1_556 S
C998   O1057   1.274   .     A
C998   O1059   1.279   .     A
C998   C1004   1.465   .     S
C999   C1000   1.422   .     A
C999   C1001   1.416   .     A
C1000  C1003   1.413   .     A
C1000  C1024   1.427   .     A
C1001  C1002   1.394   .     A
C1001  Cl1027  1.764   .     S
C1002  C1014   1.394   .     A
C1002  H1044   1.084   .     S
C1003  H1043   1.079   .     S
C1003  C1014   1.394   .     A
C1004  C863    1.342   1_655 S
C1004  C876    1.517   1_655 S
C1006  C1015   1.404   .     A
C1006  C1013   1.393   .     A
C1006  H1046   1.084   .     S
C1007  C1010   1.452   .     S
C1007  C1221   1.332   .     S
C1007  H1252   1.088   .     S
C1008  C1009   1.436   .     S
C1009  O1054   1.275   .     A
C1009  O1060   1.274   .     A
C1010  O1061   1.268   .     A
C1010  O1055   1.268   .     A
C1011  O1050   1.275   .     A
C1011  O1052   1.274   .     A
C1011  C1014   1.459   .     S
C1012  O1051   1.285   .     A
C1012  O1053   1.288   .     A
C1012  C1013   1.477   .     S
C1013  C1017   1.388   .     A
C1015  C1022   1.439   .     A
C1015  C1019   1.511   .     S
C1016  H1030   1.106   .     S
C1016  H1029   1.111   .     S
C1016  C1026   1.513   .     S
C1016  H1031   1.108   .     S
C1017  C1021   1.407   .     A
C1017  H1047   1.079   .     S
C1018  H1032   1.109   .     S
C1018  H1033   1.111   .     S
C1018  H1034   1.111   .     S
C1019  H1036   1.107   .     S
C1019  H1035   1.111   .     S
C1019  H398    1.109   1_556 S
C1020  H1038   1.109   .     S
C1020  H1041   1.112   .     S
C1020  H1040   1.110   .     S
C1021  C1023   1.428   .     A
C1021  C1022   1.434   .     A
C1022  C387    1.428   1_556 S
C1023  C385    1.414   1_556 S
C1024  C1025   1.406   .     A
C1025  C1026   1.401   .     A
C1025  H1048   1.078   .     S
H1028  C863    1.086   1_655 S
H1042  C1221   1.086   .     S
O1049  Zn1063  1.939   .     S
O1049  Zn1064  1.924   .     S
O1049  Zn1065  1.933   .     S
O1049  Zn1062  1.955   .     S
O1050  Zn1063  1.914   .     S
O1051  Zn1065  1.925   .     S
O1052  Zn1064  1.921   .     S
O1053  Zn1062  1.913   .     S
O1054  Zn1062  1.928   .     S
O1055  Zn1065  1.928   .     S
O1056  Zn1063  1.931   .     S
O1057  Zn1064  1.940   .     S
O1058  Zn1065  1.933   .     S
O1059  Zn1062  1.925   .     S
O1060  Zn1063  1.936   .     S
O1061  Zn1064  1.932   .     S
C1066  O1127   1.269   .     A
C1066  O1129   1.267   .     A
C1066  C1076   1.440   .     S
C1067  C1068   1.396   .     A
C1067  C1091   1.512   .     S
C1067  C1094   1.426   .     A
C1068  H1116   1.083   .     S
C1068  C431    1.398   1_556 S
C1069  O1128   1.274   .     A
C1069  O1130   1.279   .     A
C1069  C1075   1.465   .     S
C1070  C1071   1.422   .     A
C1070  C1072   1.416   .     A
C1071  C1074   1.413   .     A
C1071  C1095   1.427   .     A
C1072  C1073   1.394   .     A
C1072  Cl1098  1.764   .     S
C1073  C1085   1.394   .     A
C1073  H1115   1.084   .     S
C1074  H1114   1.079   .     S
C1074  C1085   1.394   .     A
C1075  C1147   1.342   .     S
C1075  C1160   1.517   .     S
C1076  C1217   1.342   1_455 S
C1076  H1241   1.086   1_455 S
C1077  C1086   1.404   .     A
C1077  C1084   1.393   .     A
C1077  H1117   1.084   .     S
C1078  C1081   1.452   .     S
C1078  C653    1.332   1_565 S
C1078  H684    1.088   1_565 S
C1079  C1080   1.436   .     S
C1080  O1125   1.275   .     A
C1080  O1131   1.274   .     A
C1081  O1132   1.268   .     A
C1081  O1126   1.268   .     A
C1082  O1121   1.275   .     A
C1082  O1123   1.274   .     A
C1082  C1085   1.459   .     S
C1083  O1122   1.285   .     A
C1083  O1124   1.288   .     A
C1083  C1084   1.477   .     S
C1084  C1088   1.388   .     A
C1086  C1093   1.439   .     A
C1086  C1090   1.511   .     S
C1087  H1101   1.106   .     S
C1087  H1100   1.111   .     S
C1087  C1097   1.513   .     S
C1087  H1102   1.108   .     S
C1088  C1092   1.407   .     A
C1088  H1118   1.079   .     S
C1089  H1103   1.109   .     S
C1089  H1104   1.111   .     S
C1089  H1105   1.111   .     S
C1089  C1217   1.517   1_455 S
C1090  H1107   1.107   .     S
C1090  H1106   1.111   .     S
C1090  H469    1.109   1_556 S
C1091  H1109   1.109   .     S
C1091  H1112   1.112   .     S
C1091  H1111   1.110   .     S
C1092  C1094   1.428   .     A
C1092  C1093   1.434   .     A
C1093  C458    1.428   1_556 S
C1094  C456    1.414   1_556 S
C1095  C1096   1.406   .     A
C1096  C1097   1.401   .     A
C1096  H1119   1.078   .     S
H1099  C1147   1.086   .     S
H1113  C653    1.086   1_565 S
O1120  Zn1134  1.939   .     S
O1120  Zn1135  1.924   .     S
O1120  Zn1136  1.933   .     S
O1120  Zn1133  1.955   .     S
O1121  Zn1134  1.914   .     S
O1122  Zn1136  1.925   .     S
O1123  Zn1135  1.921   .     S
O1124  Zn1133  1.913   .     S
O1125  Zn1133  1.928   .     S
O1126  Zn1136  1.928   .     S
O1127  Zn1134  1.931   .     S
O1128  Zn1135  1.940   .     S
O1129  Zn1136  1.933   .     S
O1130  Zn1133  1.925   .     S
O1131  Zn1134  1.936   .     S
O1132  Zn1135  1.932   .     S
C1137  O1198   1.269   .     A
C1137  O1200   1.267   .     A
C1137  C1147   1.440   .     S
C1138  C1139   1.396   .     A
C1138  C1162   1.512   .     S
C1138  C1165   1.426   .     A
C1139  H1187   1.083   .     S
C1139  C502    1.398   1_556 S
C1140  O1199   1.274   .     A
C1140  O1201   1.279   .     A
C1140  C1146   1.465   .     S
C1141  C1142   1.422   .     A
C1141  C1143   1.416   .     A
C1142  C1145   1.413   .     A
C1142  C1166   1.427   .     A
C1143  C1144   1.394   .     A
C1143  Cl1169  1.764   .     S
C1144  C1156   1.394   .     A
C1144  H1186   1.084   .     S
C1145  H1185   1.079   .     S
C1145  C1156   1.394   .     A
C1146  C1218   1.342   .     S
C1146  C1231   1.517   .     S
C1148  C1157   1.404   .     A
C1148  C1155   1.393   .     A
C1148  H1188   1.084   .     S
C1149  C1152   1.452   .     S
C1149  C724    1.332   1_565 S
C1149  H755    1.088   1_565 S
C1150  C1151   1.436   .     S
C1151  O1196   1.275   .     A
C1151  O1202   1.274   .     A
C1152  O1203   1.268   .     A
C1152  O1197   1.268   .     A
C1153  O1192   1.275   .     A
C1153  O1194   1.274   .     A
C1153  C1156   1.459   .     S
C1154  O1193   1.285   .     A
C1154  O1195   1.288   .     A
C1154  C1155   1.477   .     S
C1155  C1159   1.388   .     A
C1157  C1164   1.439   .     A
C1157  C1161   1.511   .     S
C1158  H1172   1.106   .     S
C1158  H1171   1.111   .     S
C1158  C1168   1.513   .     S
C1158  H1173   1.108   .     S
C1159  C1163   1.407   .     A
C1159  H1189   1.079   .     S
C1160  H1174   1.109   .     S
C1160  H1175   1.111   .     S
C1160  H1176   1.111   .     S
C1161  H1178   1.107   .     S
C1161  H1177   1.111   .     S
C1161  H540    1.109   1_556 S
C1162  H1180   1.109   .     S
C1162  H1183   1.112   .     S
C1162  H1182   1.110   .     S
C1163  C1165   1.428   .     A
C1163  C1164   1.434   .     A
C1164  C529    1.428   1_556 S
C1165  C527    1.414   1_556 S
C1166  C1167   1.406   .     A
C1167  C1168   1.401   .     A
C1167  H1190   1.078   .     S
H1170  C1218   1.086   .     S
H1184  C724    1.086   1_565 S
O1191  Zn1205  1.939   .     S
O1191  Zn1206  1.924   .     S
O1191  Zn1207  1.933   .     S
O1191  Zn1204  1.955   .     S
O1192  Zn1205  1.914   .     S
O1193  Zn1207  1.925   .     S
O1194  Zn1206  1.921   .     S
O1195  Zn1204  1.913   .     S
O1196  Zn1204  1.928   .     S
O1197  Zn1207  1.928   .     S
O1198  Zn1205  1.931   .     S
O1199  Zn1206  1.940   .     S
O1200  Zn1207  1.933   .     S
O1201  Zn1204  1.925   .     S
O1202  Zn1205  1.936   .     S
O1203  Zn1206  1.932   .     S
C1208  O1269   1.269   .     A
C1208  O1271   1.267   .     A
C1208  C1218   1.440   .     S
C1209  C1210   1.396   .     A
C1209  C1233   1.512   .     S
C1209  C1236   1.426   .     A
C1210  H1258   1.083   .     S
C1210  C573    1.398   1_556 S
C1211  O1270   1.274   .     A
C1211  O1272   1.279   .     A
C1211  C1217   1.465   .     S
C1212  C1213   1.422   .     A
C1212  C1214   1.416   .     A
C1213  C1216   1.413   .     A
C1213  C1237   1.427   .     A
C1214  C1215   1.394   .     A
C1214  Cl1240  1.764   .     S
C1215  C1227   1.394   .     A
C1215  H1257   1.084   .     S
C1216  H1256   1.079   .     S
C1216  C1227   1.394   .     A
C1217  C1076   1.342   1_655 S
C1217  C1089   1.517   1_655 S
C1219  C1228   1.404   .     A
C1219  C1226   1.393   .     A
C1219  H1259   1.084   .     S
C1220  C1223   1.452   .     S
C1220  C795    1.332   1_565 S
C1220  H826    1.088   1_565 S
C1221  C1222   1.436   .     S
C1222  O1267   1.275   .     A
C1222  O1273   1.274   .     A
C1223  O1274   1.268   .     A
C1223  O1268   1.268   .     A
C1224  O1263   1.275   .     A
C1224  O1265   1.274   .     A
C1224  C1227   1.459   .     S
C1225  O1264   1.285   .     A
C1225  O1266   1.288   .     A
C1225  C1226   1.477   .     S
C1226  C1230   1.388   .     A
C1228  C1235   1.439   .     A
C1228  C1232   1.511   .     S
C1229  H1243   1.106   .     S
C1229  H1242   1.111   .     S
C1229  C1239   1.513   .     S
C1229  H1244   1.108   .     S
C1230  C1234   1.407   .     A
C1230  H1260   1.079   .     S
C1231  H1245   1.109   .     S
C1231  H1246   1.111   .     S
C1231  H1247   1.111   .     S
C1232  H1249   1.107   .     S
C1232  H1248   1.111   .     S
C1232  H611    1.109   1_556 S
C1233  H1251   1.109   .     S
C1233  H1254   1.112   .     S
C1233  H1253   1.110   .     S
C1234  C1236   1.428   .     A
C1234  C1235   1.434   .     A
C1235  C600    1.428   1_556 S
C1236  C598    1.414   1_556 S
C1237  C1238   1.406   .     A
C1238  C1239   1.401   .     A
C1238  H1261   1.078   .     S
H1241  C1076   1.086   1_655 S
H1255  C795    1.086   1_565 S
O1262  Zn1276  1.939   .     S
O1262  Zn1277  1.924   .     S
O1262  Zn1278  1.933   .     S
O1262  Zn1275  1.955   .     S
O1263  Zn1276  1.914   .     S
O1264  Zn1278  1.925   .     S
O1265  Zn1277  1.921   .     S
O1266  Zn1275  1.913   .     S
O1267  Zn1275  1.928   .     S
O1268  Zn1278  1.928   .     S
O1269  Zn1276  1.931   .     S
O1270  Zn1277  1.940   .     S
O1271  Zn1278  1.933   .     S
O1272  Zn1275  1.925   .     S
O1273  Zn1276  1.936   .     S
O1274  Zn1277  1.932   .     S
