data_str_m1_o5_o17_pcu_sym.70
_audit_creation_date              2020-01-03
_audit_creation_method            'Materials Studio'
_symmetry_space_group_name_H-M    'P1'
_symmetry_Int_Tables_number       1
_symmetry_cell_setting            triclinic
loop_
_symmetry_equiv_pos_as_xyz
  x,y,z
_cell_length_a                    31.7736
_cell_length_b                    31.7736
_cell_length_c                    34.5817
_cell_angle_alpha                 90.0001
_cell_angle_beta                  90.0000
_cell_angle_gamma                 89.9506
loop_
_atom_site_label
_atom_site_type_symbol
_atom_site_fract_x
_atom_site_fract_y
_atom_site_fract_z
_atom_site_U_iso_or_equiv
_atom_site_adp_type
_atom_site_occupancy
C1     C     0.25000  -0.00000   0.35590   0.00000  Uiso   1.00
C2     C     0.33001   0.41999   0.75000   0.00000  Uiso   1.00
C3     C     0.44300   0.30203   0.01967   0.00000  Uiso   1.00
C4     C     0.19503   0.05404   0.97965   0.00000  Uiso   1.00
C5     C     0.30215   0.44311   0.01967   0.00000  Uiso   1.00
C6     C     0.44588   0.30489   0.97965   0.00000  Uiso   1.00
C7     C     0.05701   0.19798   0.01967   0.00000  Uiso   1.00
C8     C     0.41999   0.16999   0.25000   0.00000  Uiso   1.00
C9     C     0.08001   0.33001   0.75000   0.00000  Uiso   1.00
C10    C     0.33001   0.41999   0.25000   0.00000  Uiso   1.00
C11    C     0.16999   0.08001   0.75000   0.00000  Uiso   1.00
C12    C     0.08001   0.33001   0.25000   0.00000  Uiso   1.00
C13    C     0.41999   0.16999   0.75000   0.00000  Uiso   1.00
C14    C     0.16999   0.41999   0.75000   0.00000  Uiso   1.00
C15    C     0.33001   0.08001   0.25000   0.00000  Uiso   1.00
C16    C     0.41999   0.33001   0.75000   0.00000  Uiso   1.00
C17    C     0.25000  -0.00000   0.64417   0.00000  Uiso   1.00
C18    C     0.08001   0.16999   0.25000   0.00000  Uiso   1.00
C19    C     0.33001   0.08001   0.75000   0.00000  Uiso   1.00
C20    C     0.16999   0.41999   0.25000   0.00000  Uiso   1.00
C21    C     0.08001   0.16999   0.75000   0.00000  Uiso   1.00
C22    C     0.41999   0.33001   0.25000   0.00000  Uiso   1.00
C23    C     0.13833   0.38833   0.25000   0.00000  Uiso   1.00
C24    C     0.36167   0.11167   0.75000   0.00000  Uiso   1.00
C25    C     0.11166   0.13834   0.25000   0.00000  Uiso   1.00
C26    C     0.38834   0.36166   0.75000   0.00000  Uiso   1.00
C27    C     0.36167   0.11167   0.25000   0.00000  Uiso   1.00
C28    C     0.00000   0.25000   0.35590   0.00000  Uiso   1.00
C29    C     0.13833   0.38833   0.75000   0.00000  Uiso   1.00
C30    C     0.38834   0.36166   0.25000   0.00000  Uiso   1.00
C31    C     0.11166   0.13834   0.75000   0.00000  Uiso   1.00
C32    C     0.13834   0.11166   0.75000   0.00000  Uiso   1.00
C33    C     0.36166   0.38834   0.25000   0.00000  Uiso   1.00
C34    C     0.11167   0.36167   0.75000   0.00000  Uiso   1.00
C35    C     0.38833   0.13833   0.25000   0.00000  Uiso   1.00
C36    C     0.36166   0.38834   0.75000   0.00000  Uiso   1.00
C37    C     0.13834   0.11166   0.25000   0.00000  Uiso   1.00
C38    C     0.38833   0.13833   0.75000   0.00000  Uiso   1.00
C39    C     0.00000   0.25000   0.64417   0.00000  Uiso   1.00
C40    C     0.11167   0.36167   0.25000   0.00000  Uiso   1.00
C41    C     0.47431   0.27885   0.41842   0.00000  Uiso   1.00
C42    C     0.02362   0.21948   0.58175   0.00000  Uiso   1.00
C43    C     0.22118   0.02573   0.41841   0.00000  Uiso   1.00
C44    C     0.28044   0.47629   0.58174   0.00000  Uiso   1.00
C45    C     0.02568   0.22114   0.41841   0.00000  Uiso   1.00
C46    C     0.47637   0.28050   0.58174   0.00000  Uiso   1.00
C47    C     0.27881   0.47426   0.41841   0.00000  Uiso   1.00
C48    C     0.21956   0.02371   0.58174   0.00000  Uiso   1.00
C49    C     0.22631   0.03046   0.91826   0.00000  Uiso   1.00
C50    C     0.00000   0.25000   0.85582   0.00000  Uiso   1.00
C51    C     0.27572   0.47117   0.08158   0.00000  Uiso   1.00
C52    C     0.46951   0.27364   0.91826   0.00000  Uiso   1.00
C53    C     0.02885   0.22431   0.08158   0.00000  Uiso   1.00
C54    C     0.27369   0.46954   0.91826   0.00000  Uiso   1.00
C55    C     0.22428   0.02883   0.08159   0.00000  Uiso   1.00
C56    C     0.03050   0.22636   0.91825   0.00000  Uiso   1.00
C57    C     0.47115   0.27570   0.08158   0.00000  Uiso   1.00
C58    C    -0.00000   0.24999   0.39829   0.00000  Uiso   1.00
C59    C    -0.00000   0.24999   0.60193   0.00000  Uiso   1.00
C60    C     0.25000  -0.00000   0.39829   0.00000  Uiso   1.00
C61    C     0.00000   0.25000   0.14410   0.00000  Uiso   1.00
C62    C     0.25000  -0.00000   0.60193   0.00000  Uiso   1.00
C63    C     0.25000   0.00000   0.89807   0.00000  Uiso   1.00
C64    C     0.25000   0.00000   0.10171   0.00000  Uiso   1.00
C65    C     0.00000   0.25000   0.89807   0.00000  Uiso   1.00
C66    C     0.00000   0.25000   0.10171   0.00000  Uiso   1.00
C67    C     0.02588   0.22100   0.45923   0.00000  Uiso   1.00
C68    C     0.47303   0.27778   0.54117   0.00000  Uiso   1.00
C69    C     0.27889   0.47401   0.45923   0.00000  Uiso   1.00
C70    C     0.22228   0.02705   0.54117   0.00000  Uiso   1.00
C71    C     0.47409   0.27896   0.45923   0.00000  Uiso   1.00
C72    C     0.25000  -0.00000   0.85583   0.00000  Uiso   1.00
C73    C     0.02695   0.22218   0.54117   0.00000  Uiso   1.00
C74    C     0.22110   0.02599   0.45923   0.00000  Uiso   1.00
C75    C     0.27771   0.47295   0.54117   0.00000  Uiso   1.00
C76    C     0.27703   0.47227   0.95883   0.00000  Uiso   1.00
C77    C     0.22404   0.02892   0.04077   0.00000  Uiso   1.00
C78    C     0.02779   0.22302   0.95883   0.00000  Uiso   1.00
C79    C     0.47105   0.27592   0.04077   0.00000  Uiso   1.00
C80    C     0.22298   0.02774   0.95883   0.00000  Uiso   1.00
C81    C     0.27598   0.47109   0.04077   0.00000  Uiso   1.00
C82    C     0.47222   0.27698   0.95883   0.00000  Uiso   1.00
C83    C     0.25000  -0.00000   0.14410   0.00000  Uiso   1.00
C84    C     0.02896   0.22408   0.04077   0.00000  Uiso   1.00
C85    C     0.49999   0.24998   0.47965   0.00000  Uiso   1.00
C86    C     0.49999   0.24998   0.52067   0.00000  Uiso   1.00
C87    C     0.25000  -0.00000   0.47965   0.00000  Uiso   1.00
C88    C     0.25000  -0.00000   0.52067   0.00000  Uiso   1.00
C89    C     0.25001   0.00001   0.97933   0.00000  Uiso   1.00
C90    C     0.25001   0.00001   0.02035   0.00000  Uiso   1.00
C91    C     0.00000   0.25000   0.97933   0.00000  Uiso   1.00
C92    C     0.00000   0.25000   0.02035   0.00000  Uiso   1.00
C93    C     0.05194   0.19291   0.48033   0.00000  Uiso   1.00
C94    C     0.16999   0.08001   0.25000   0.00000  Uiso   1.00
C95    C     0.44514   0.30415   0.52035   0.00000  Uiso   1.00
C96    C     0.30686   0.44781   0.48033   0.00000  Uiso   1.00
C97    C     0.19601   0.05502   0.52035   0.00000  Uiso   1.00
C98    C     0.44801   0.30703   0.48033   0.00000  Uiso   1.00
C99    C     0.05482   0.19580   0.52035   0.00000  Uiso   1.00
C100   C     0.19313   0.05218   0.48033   0.00000  Uiso   1.00
C101   C     0.30398   0.44497   0.52035   0.00000  Uiso   1.00
C102   C     0.30500   0.44599   0.97964   0.00000  Uiso   1.00
C103   C     0.19787   0.05691   0.01967   0.00000  Uiso   1.00
C104   C     0.05413   0.19512   0.97965   0.00000  Uiso   1.00
H105   H     0.46361   0.31662   0.37525   0.00000  Uiso   1.00
H106   H     0.28638   0.43337   0.12474   0.00000  Uiso   1.00
H107   H     0.43034   0.27742   0.87458   0.00000  Uiso   1.00
H108   H     0.06663   0.21362   0.12475   0.00000  Uiso   1.00
H109   H     0.27751   0.43036   0.87459   0.00000  Uiso   1.00
H110   H     0.21361   0.06662   0.12474   0.00000  Uiso   1.00
H111   H     0.06967   0.22258   0.87457   0.00000  Uiso   1.00
H112   H     0.43337   0.28638   0.12475   0.00000  Uiso   1.00
H113   H     0.05644   0.14341   0.44952   0.00000  Uiso   1.00
H114   H     0.40042   0.30952   0.55746   0.00000  Uiso   1.00
H115   H     0.35642   0.44301   0.44966   0.00000  Uiso   1.00
H116   H     0.02741   0.18033   0.62545   0.00000  Uiso   1.00
H117   H     0.19080   0.09975   0.55748   0.00000  Uiso   1.00
H118   H     0.44346   0.35655   0.44956   0.00000  Uiso   1.00
H119   H     0.09955   0.19041   0.55744   0.00000  Uiso   1.00
H120   H     0.14357   0.05697   0.44965   0.00000  Uiso   1.00
H121   H     0.30919   0.40025   0.55748   0.00000  Uiso   1.00
H122   H     0.34972   0.44074   0.94252   0.00000  Uiso   1.00
H123   H     0.19313   0.10647   0.05036   0.00000  Uiso   1.00
H124   H     0.05947   0.15039   0.94254   0.00000  Uiso   1.00
H125   H     0.39346   0.30665   0.05041   0.00000  Uiso   1.00
H126   H     0.15030   0.05929   0.94253   0.00000  Uiso   1.00
H127   H     0.18338   0.03640   0.37526   0.00000  Uiso   1.00
H128   H     0.30693   0.39354   0.05034   0.00000  Uiso   1.00
H129   H     0.44055   0.34961   0.94254   0.00000  Uiso   1.00
H130   H     0.10654   0.19337   0.05042   0.00000  Uiso   1.00
H131   H     0.31963   0.47245   0.62540   0.00000  Uiso   1.00
H132   H     0.03641   0.18338   0.37524   0.00000  Uiso   1.00
H133   H     0.47261   0.31967   0.62542   0.00000  Uiso   1.00
H134   H     0.31662   0.46360   0.37526   0.00000  Uiso   1.00
H135   H     0.18037   0.02755   0.62541   0.00000  Uiso   1.00
H136   H     0.22249   0.06964   0.87458   0.00000  Uiso   1.00
O137   O     0.25000  -0.00000   0.25000   0.00000  Uiso   1.00
O138   O     0.25000   0.46538   0.66251   0.00000  Uiso   1.00
O139   O     0.46539   0.25000   0.33749   0.00000  Uiso   1.00
O140   O     0.03462   0.25000   0.66251   0.00000  Uiso   1.00
O141   O     0.00000   0.21538   0.83749   0.00000  Uiso   1.00
O142   O     0.00000   0.28461   0.16251   0.00000  Uiso   1.00
O143   O     0.28462  -0.00000   0.83749   0.00000  Uiso   1.00
O144   O     0.21539  -0.00000   0.16251   0.00000  Uiso   1.00
O145   O     0.00000   0.28461   0.83749   0.00000  Uiso   1.00
O146   O     0.00000   0.21538   0.16251   0.00000  Uiso   1.00
O147   O     0.21539  -0.00000   0.83749   0.00000  Uiso   1.00
O148   O     0.25000  -0.00000   0.75000   0.00000  Uiso   1.00
O149   O     0.28462  -0.00000   0.16251   0.00000  Uiso   1.00
O150   O     0.20127   0.08332   0.27298   0.00000  Uiso   1.00
O151   O     0.29874   0.41668   0.72702   0.00000  Uiso   1.00
O152   O     0.41668   0.20126   0.27298   0.00000  Uiso   1.00
O153   O     0.08332   0.29873   0.72702   0.00000  Uiso   1.00
O154   O     0.29874   0.41668   0.27298   0.00000  Uiso   1.00
O155   O     0.20127   0.08332   0.72702   0.00000  Uiso   1.00
O156   O     0.08332   0.29873   0.27298   0.00000  Uiso   1.00
O157   O     0.41668   0.20126   0.72702   0.00000  Uiso   1.00
O158   O     0.20127   0.41668   0.72702   0.00000  Uiso   1.00
O159   O     0.00000   0.25000   0.25000   0.00000  Uiso   1.00
O160   O     0.29874   0.08332   0.27298   0.00000  Uiso   1.00
O161   O     0.41668   0.29873   0.72702   0.00000  Uiso   1.00
O162   O     0.08332   0.20126   0.27298   0.00000  Uiso   1.00
O163   O     0.29874   0.08332   0.72702   0.00000  Uiso   1.00
O164   O     0.20127   0.41668   0.27298   0.00000  Uiso   1.00
O165   O     0.08332   0.20126   0.72702   0.00000  Uiso   1.00
O166   O     0.41668   0.29873   0.27298   0.00000  Uiso   1.00
O167   O     0.45127   0.33332   0.77298   0.00000  Uiso   1.00
O168   O     0.04874   0.16668   0.22702   0.00000  Uiso   1.00
O169   O     0.16668   0.45126   0.77298   0.00000  Uiso   1.00
O170   O     0.00000   0.25000   0.75000   0.00000  Uiso   1.00
O171   O     0.33332   0.04873   0.22702   0.00000  Uiso   1.00
O172   O     0.04874   0.16668   0.77298   0.00000  Uiso   1.00
O173   O     0.45127   0.33332   0.22702   0.00000  Uiso   1.00
O174   O     0.33332   0.04873   0.77298   0.00000  Uiso   1.00
O175   O     0.16668   0.45126   0.22702   0.00000  Uiso   1.00
O176   O     0.45127   0.16668   0.22702   0.00000  Uiso   1.00
O177   O     0.04874   0.33332   0.77298   0.00000  Uiso   1.00
O178   O     0.16668   0.04873   0.22702   0.00000  Uiso   1.00
O179   O     0.33332   0.45126   0.77298   0.00000  Uiso   1.00
O180   O     0.04874   0.33332   0.22702   0.00000  Uiso   1.00
O181   O     0.25000   0.46538   0.33749   0.00000  Uiso   1.00
O182   O     0.45127   0.16668   0.77298   0.00000  Uiso   1.00
O183   O     0.33332   0.45126   0.22702   0.00000  Uiso   1.00
O184   O     0.16668   0.04873   0.77298   0.00000  Uiso   1.00
O185   O     0.44859   0.30651   0.39855   0.00000  Uiso   1.00
O186   O     0.04205   0.18574   0.60069   0.00000  Uiso   1.00
O187   O     0.19351   0.05145   0.39855   0.00000  Uiso   1.00
O188   O     0.31413   0.45777   0.60068   0.00000  Uiso   1.00
O189   O     0.05143   0.19349   0.39855   0.00000  Uiso   1.00
O190   O     0.45795   0.31424   0.60069   0.00000  Uiso   1.00
O191   O     0.30649   0.44855   0.39855   0.00000  Uiso   1.00
O192   O     0.25000   0.03461   0.66251   0.00000  Uiso   1.00
O193   O     0.18587   0.04222   0.60068   0.00000  Uiso   1.00
O194   O     0.20782   0.06416   0.89931   0.00000  Uiso   1.00
O195   O     0.30142   0.44348   0.10145   0.00000  Uiso   1.00
O196   O     0.43578   0.29209   0.89931   0.00000  Uiso   1.00
O197   O     0.05652   0.19859   0.10145   0.00000  Uiso   1.00
O198   O     0.29218   0.43584   0.89932   0.00000  Uiso   1.00
O199   O     0.19857   0.05651   0.10145   0.00000  Uiso   1.00
O200   O     0.06422   0.20791   0.89931   0.00000  Uiso   1.00
O201   O     0.44348   0.30141   0.10145   0.00000  Uiso   1.00
O202   O     0.07635   0.16277   0.46262   0.00000  Uiso   1.00
O203   O     0.03462   0.25000   0.33749   0.00000  Uiso   1.00
O204   O     0.41435   0.32786   0.53812   0.00000  Uiso   1.00
O205   O     0.33683   0.42321   0.46261   0.00000  Uiso   1.00
O206   O     0.17241   0.08590   0.53812   0.00000  Uiso   1.00
O207   O     0.42357   0.33714   0.46262   0.00000  Uiso   1.00
O208   O     0.08560   0.17207   0.53812   0.00000  Uiso   1.00
O209   O     0.16315   0.07677   0.46261   0.00000  Uiso   1.00
O210   O     0.32758   0.41409   0.53812   0.00000  Uiso   1.00
O211   O     0.33586   0.42237   0.96188   0.00000  Uiso   1.00
O212   O     0.17331   0.08692   0.03739   0.00000  Uiso   1.00
O213   O     0.07782   0.16430   0.96188   0.00000  Uiso   1.00
O214   O     0.46539   0.25000   0.66251   0.00000  Uiso   1.00
O215   O     0.41293   0.32652   0.03739   0.00000  Uiso   1.00
O216   O     0.16417   0.07767   0.96188   0.00000  Uiso   1.00
O217   O     0.32674   0.41312   0.03739   0.00000  Uiso   1.00
O218   O     0.42219   0.33571   0.96188   0.00000  Uiso   1.00
O219   O     0.08710   0.17350   0.03739   0.00000  Uiso   1.00
O220   O     0.25000   0.03461   0.33749   0.00000  Uiso   1.00
Zn221  Zn    0.20053  -0.00000   0.21730   0.00000  Uiso   1.00
Zn222  Zn    0.04948   0.25000   0.28270   0.00000  Uiso   1.00
Zn223  Zn    0.25000   0.45052   0.71730   0.00000  Uiso   1.00
Zn224  Zn    0.25000   0.04947   0.28270   0.00000  Uiso   1.00
Zn225  Zn    0.04948   0.25000   0.71730   0.00000  Uiso   1.00
Zn226  Zn    0.45053   0.25000   0.28270   0.00000  Uiso   1.00
Zn227  Zn    0.25000   0.04947   0.71730   0.00000  Uiso   1.00
Zn228  Zn    0.25000   0.45052   0.28270   0.00000  Uiso   1.00
Zn229  Zn    0.29948  -0.00000   0.78270   0.00000  Uiso   1.00
Zn230  Zn    0.00000   0.20052   0.21730   0.00000  Uiso   1.00
Zn231  Zn    0.00000   0.29947   0.78270   0.00000  Uiso   1.00
Zn232  Zn    0.29948  -0.00000   0.21730   0.00000  Uiso   1.00
Zn233  Zn    0.20053  -0.00000   0.78270   0.00000  Uiso   1.00
Zn234  Zn    0.00000   0.29947   0.21730   0.00000  Uiso   1.00
Zn235  Zn    0.00000   0.20052   0.78270   0.00000  Uiso   1.00
Zn236  Zn    0.45053   0.25000   0.71730   0.00000  Uiso   1.00
C237   C     0.75000  -0.00000   0.35590   0.00000  Uiso   1.00
C238   C     0.83001   0.41999   0.75000   0.00000  Uiso   1.00
C239   C     0.94300   0.30203   0.01967   0.00000  Uiso   1.00
C240   C     0.69503   0.05404   0.97965   0.00000  Uiso   1.00
C241   C     0.80215   0.44311   0.01967   0.00000  Uiso   1.00
C242   C     0.94588   0.30489   0.97965   0.00000  Uiso   1.00
C243   C     0.55701   0.19798   0.01967   0.00000  Uiso   1.00
C244   C     0.91999   0.16999   0.25000   0.00000  Uiso   1.00
C245   C     0.58001   0.33001   0.75000   0.00000  Uiso   1.00
C246   C     0.83001   0.41999   0.25000   0.00000  Uiso   1.00
C247   C     0.66999   0.08001   0.75000   0.00000  Uiso   1.00
C248   C     0.58001   0.33001   0.25000   0.00000  Uiso   1.00
C249   C     0.91999   0.16999   0.75000   0.00000  Uiso   1.00
C250   C     0.66999   0.41999   0.75000   0.00000  Uiso   1.00
C251   C     0.83001   0.08001   0.25000   0.00000  Uiso   1.00
C252   C     0.91999   0.33001   0.75000   0.00000  Uiso   1.00
C253   C     0.75000  -0.00000   0.64417   0.00000  Uiso   1.00
C254   C     0.58001   0.16999   0.25000   0.00000  Uiso   1.00
C255   C     0.83001   0.08001   0.75000   0.00000  Uiso   1.00
C256   C     0.66999   0.41999   0.25000   0.00000  Uiso   1.00
C257   C     0.58001   0.16999   0.75000   0.00000  Uiso   1.00
C258   C     0.91999   0.33001   0.25000   0.00000  Uiso   1.00
C259   C     0.63833   0.38833   0.25000   0.00000  Uiso   1.00
C260   C     0.86167   0.11167   0.75000   0.00000  Uiso   1.00
C261   C     0.61166   0.13834   0.25000   0.00000  Uiso   1.00
C262   C     0.88834   0.36166   0.75000   0.00000  Uiso   1.00
C263   C     0.86167   0.11167   0.25000   0.00000  Uiso   1.00
C264   C     0.50000   0.25000   0.35590   0.00000  Uiso   1.00
C265   C     0.63833   0.38833   0.75000   0.00000  Uiso   1.00
C266   C     0.88834   0.36166   0.25000   0.00000  Uiso   1.00
C267   C     0.61166   0.13834   0.75000   0.00000  Uiso   1.00
C268   C     0.63834   0.11166   0.75000   0.00000  Uiso   1.00
C269   C     0.86166   0.38834   0.25000   0.00000  Uiso   1.00
C270   C     0.61167   0.36167   0.75000   0.00000  Uiso   1.00
C271   C     0.88833   0.13833   0.25000   0.00000  Uiso   1.00
C272   C     0.86166   0.38834   0.75000   0.00000  Uiso   1.00
C273   C     0.63834   0.11166   0.25000   0.00000  Uiso   1.00
C274   C     0.88833   0.13833   0.75000   0.00000  Uiso   1.00
C275   C     0.50000   0.25000   0.64417   0.00000  Uiso   1.00
C276   C     0.61167   0.36167   0.25000   0.00000  Uiso   1.00
C277   C     0.97431   0.27885   0.41842   0.00000  Uiso   1.00
C278   C     0.52362   0.21948   0.58175   0.00000  Uiso   1.00
C279   C     0.72118   0.02573   0.41841   0.00000  Uiso   1.00
C280   C     0.78044   0.47629   0.58174   0.00000  Uiso   1.00
C281   C     0.52568   0.22114   0.41841   0.00000  Uiso   1.00
C282   C     0.97637   0.28050   0.58174   0.00000  Uiso   1.00
C283   C     0.77881   0.47426   0.41841   0.00000  Uiso   1.00
C284   C     0.71956   0.02371   0.58174   0.00000  Uiso   1.00
C285   C     0.72631   0.03046   0.91826   0.00000  Uiso   1.00
C286   C     0.50000   0.25000   0.85582   0.00000  Uiso   1.00
C287   C     0.77572   0.47117   0.08158   0.00000  Uiso   1.00
C288   C     0.96951   0.27364   0.91826   0.00000  Uiso   1.00
C289   C     0.52885   0.22431   0.08158   0.00000  Uiso   1.00
C290   C     0.77369   0.46954   0.91826   0.00000  Uiso   1.00
C291   C     0.72428   0.02883   0.08159   0.00000  Uiso   1.00
C292   C     0.53050   0.22636   0.91825   0.00000  Uiso   1.00
C293   C     0.97115   0.27570   0.08158   0.00000  Uiso   1.00
C294   C     0.50000   0.24999   0.39829   0.00000  Uiso   1.00
C295   C     0.50000   0.24999   0.60193   0.00000  Uiso   1.00
C296   C     0.75000  -0.00000   0.39829   0.00000  Uiso   1.00
C297   C     0.50000   0.25000   0.14410   0.00000  Uiso   1.00
C298   C     0.75000  -0.00000   0.60193   0.00000  Uiso   1.00
C299   C     0.75000   0.00000   0.89807   0.00000  Uiso   1.00
C300   C     0.75000   0.00000   0.10171   0.00000  Uiso   1.00
C301   C     0.50000   0.25000   0.89807   0.00000  Uiso   1.00
C302   C     0.50000   0.25000   0.10171   0.00000  Uiso   1.00
C303   C     0.52588   0.22100   0.45923   0.00000  Uiso   1.00
C304   C     0.97303   0.27778   0.54117   0.00000  Uiso   1.00
C305   C     0.77889   0.47401   0.45923   0.00000  Uiso   1.00
C306   C     0.72228   0.02705   0.54117   0.00000  Uiso   1.00
C307   C     0.97409   0.27896   0.45923   0.00000  Uiso   1.00
C308   C     0.75000  -0.00000   0.85583   0.00000  Uiso   1.00
C309   C     0.52695   0.22218   0.54117   0.00000  Uiso   1.00
C310   C     0.72110   0.02599   0.45923   0.00000  Uiso   1.00
C311   C     0.77771   0.47295   0.54117   0.00000  Uiso   1.00
C312   C     0.77703   0.47227   0.95883   0.00000  Uiso   1.00
C313   C     0.72404   0.02892   0.04077   0.00000  Uiso   1.00
C314   C     0.52779   0.22302   0.95883   0.00000  Uiso   1.00
C315   C     0.97105   0.27592   0.04077   0.00000  Uiso   1.00
C316   C     0.72298   0.02774   0.95883   0.00000  Uiso   1.00
C317   C     0.77598   0.47109   0.04077   0.00000  Uiso   1.00
C318   C     0.97222   0.27698   0.95883   0.00000  Uiso   1.00
C319   C     0.75000  -0.00000   0.14410   0.00000  Uiso   1.00
C320   C     0.52896   0.22408   0.04077   0.00000  Uiso   1.00
C321   C     0.99999   0.24998   0.47965   0.00000  Uiso   1.00
C322   C     0.99999   0.24998   0.52067   0.00000  Uiso   1.00
C323   C     0.75000  -0.00000   0.47965   0.00000  Uiso   1.00
C324   C     0.75000  -0.00000   0.52067   0.00000  Uiso   1.00
C325   C     0.75001   0.00001   0.97933   0.00000  Uiso   1.00
C326   C     0.75001   0.00001   0.02035   0.00000  Uiso   1.00
C327   C     0.50000   0.25000   0.97933   0.00000  Uiso   1.00
C328   C     0.50000   0.25000   0.02035   0.00000  Uiso   1.00
C329   C     0.55194   0.19291   0.48033   0.00000  Uiso   1.00
C330   C     0.66999   0.08001   0.25000   0.00000  Uiso   1.00
C331   C     0.94514   0.30415   0.52035   0.00000  Uiso   1.00
C332   C     0.80686   0.44781   0.48033   0.00000  Uiso   1.00
C333   C     0.69601   0.05502   0.52035   0.00000  Uiso   1.00
C334   C     0.94801   0.30703   0.48033   0.00000  Uiso   1.00
C335   C     0.55482   0.19580   0.52035   0.00000  Uiso   1.00
C336   C     0.69313   0.05218   0.48033   0.00000  Uiso   1.00
C337   C     0.80398   0.44497   0.52035   0.00000  Uiso   1.00
C338   C     0.80500   0.44599   0.97964   0.00000  Uiso   1.00
C339   C     0.69787   0.05691   0.01967   0.00000  Uiso   1.00
C340   C     0.55413   0.19512   0.97965   0.00000  Uiso   1.00
H341   H     0.96361   0.31662   0.37525   0.00000  Uiso   1.00
H342   H     0.78638   0.43337   0.12474   0.00000  Uiso   1.00
H343   H     0.93034   0.27742   0.87458   0.00000  Uiso   1.00
H344   H     0.56663   0.21362   0.12475   0.00000  Uiso   1.00
H345   H     0.77751   0.43036   0.87459   0.00000  Uiso   1.00
H346   H     0.71361   0.06662   0.12474   0.00000  Uiso   1.00
H347   H     0.56967   0.22258   0.87457   0.00000  Uiso   1.00
H348   H     0.93337   0.28638   0.12475   0.00000  Uiso   1.00
H349   H     0.55644   0.14341   0.44952   0.00000  Uiso   1.00
H350   H     0.90042   0.30952   0.55746   0.00000  Uiso   1.00
H351   H     0.85642   0.44301   0.44966   0.00000  Uiso   1.00
H352   H     0.52741   0.18033   0.62545   0.00000  Uiso   1.00
H353   H     0.69080   0.09975   0.55748   0.00000  Uiso   1.00
H354   H     0.94346   0.35655   0.44956   0.00000  Uiso   1.00
H355   H     0.59955   0.19041   0.55744   0.00000  Uiso   1.00
H356   H     0.64357   0.05697   0.44965   0.00000  Uiso   1.00
H357   H     0.80919   0.40025   0.55748   0.00000  Uiso   1.00
H358   H     0.84972   0.44074   0.94252   0.00000  Uiso   1.00
H359   H     0.69313   0.10647   0.05036   0.00000  Uiso   1.00
H360   H     0.55947   0.15039   0.94254   0.00000  Uiso   1.00
H361   H     0.89346   0.30665   0.05041   0.00000  Uiso   1.00
H362   H     0.65030   0.05929   0.94253   0.00000  Uiso   1.00
H363   H     0.68338   0.03640   0.37526   0.00000  Uiso   1.00
H364   H     0.80693   0.39354   0.05034   0.00000  Uiso   1.00
H365   H     0.94055   0.34961   0.94254   0.00000  Uiso   1.00
H366   H     0.60654   0.19337   0.05042   0.00000  Uiso   1.00
H367   H     0.81963   0.47245   0.62540   0.00000  Uiso   1.00
H368   H     0.53641   0.18338   0.37524   0.00000  Uiso   1.00
H369   H     0.97261   0.31967   0.62542   0.00000  Uiso   1.00
H370   H     0.81662   0.46360   0.37526   0.00000  Uiso   1.00
H371   H     0.68037   0.02755   0.62541   0.00000  Uiso   1.00
H372   H     0.72249   0.06964   0.87458   0.00000  Uiso   1.00
O373   O     0.75000  -0.00000   0.25000   0.00000  Uiso   1.00
O374   O     0.75000   0.46538   0.66251   0.00000  Uiso   1.00
O375   O     0.96539   0.25000   0.33749   0.00000  Uiso   1.00
O376   O     0.53462   0.25000   0.66251   0.00000  Uiso   1.00
O377   O     0.50000   0.21538   0.83749   0.00000  Uiso   1.00
O378   O     0.50000   0.28461   0.16251   0.00000  Uiso   1.00
O379   O     0.78462  -0.00000   0.83749   0.00000  Uiso   1.00
O380   O     0.71539  -0.00000   0.16251   0.00000  Uiso   1.00
O381   O     0.50000   0.28461   0.83749   0.00000  Uiso   1.00
O382   O     0.50000   0.21538   0.16251   0.00000  Uiso   1.00
O383   O     0.71539  -0.00000   0.83749   0.00000  Uiso   1.00
O384   O     0.75000  -0.00000   0.75000   0.00000  Uiso   1.00
O385   O     0.78462  -0.00000   0.16251   0.00000  Uiso   1.00
O386   O     0.70127   0.08332   0.27298   0.00000  Uiso   1.00
O387   O     0.79874   0.41668   0.72702   0.00000  Uiso   1.00
O388   O     0.91668   0.20126   0.27298   0.00000  Uiso   1.00
O389   O     0.58332   0.29873   0.72702   0.00000  Uiso   1.00
O390   O     0.79874   0.41668   0.27298   0.00000  Uiso   1.00
O391   O     0.70127   0.08332   0.72702   0.00000  Uiso   1.00
O392   O     0.58332   0.29873   0.27298   0.00000  Uiso   1.00
O393   O     0.91668   0.20126   0.72702   0.00000  Uiso   1.00
O394   O     0.70127   0.41668   0.72702   0.00000  Uiso   1.00
O395   O     0.50000   0.25000   0.25000   0.00000  Uiso   1.00
O396   O     0.79874   0.08332   0.27298   0.00000  Uiso   1.00
O397   O     0.91668   0.29873   0.72702   0.00000  Uiso   1.00
O398   O     0.58332   0.20126   0.27298   0.00000  Uiso   1.00
O399   O     0.79874   0.08332   0.72702   0.00000  Uiso   1.00
O400   O     0.70127   0.41668   0.27298   0.00000  Uiso   1.00
O401   O     0.58332   0.20126   0.72702   0.00000  Uiso   1.00
O402   O     0.91668   0.29873   0.27298   0.00000  Uiso   1.00
O403   O     0.95127   0.33332   0.77298   0.00000  Uiso   1.00
O404   O     0.54874   0.16668   0.22702   0.00000  Uiso   1.00
O405   O     0.66668   0.45126   0.77298   0.00000  Uiso   1.00
O406   O     0.50000   0.25000   0.75000   0.00000  Uiso   1.00
O407   O     0.83332   0.04873   0.22702   0.00000  Uiso   1.00
O408   O     0.54874   0.16668   0.77298   0.00000  Uiso   1.00
O409   O     0.95127   0.33332   0.22702   0.00000  Uiso   1.00
O410   O     0.83332   0.04873   0.77298   0.00000  Uiso   1.00
O411   O     0.66668   0.45126   0.22702   0.00000  Uiso   1.00
O412   O     0.95127   0.16668   0.22702   0.00000  Uiso   1.00
O413   O     0.54874   0.33332   0.77298   0.00000  Uiso   1.00
O414   O     0.66668   0.04873   0.22702   0.00000  Uiso   1.00
O415   O     0.83332   0.45126   0.77298   0.00000  Uiso   1.00
O416   O     0.54874   0.33332   0.22702   0.00000  Uiso   1.00
O417   O     0.75000   0.46538   0.33749   0.00000  Uiso   1.00
O418   O     0.95127   0.16668   0.77298   0.00000  Uiso   1.00
O419   O     0.83332   0.45126   0.22702   0.00000  Uiso   1.00
O420   O     0.66668   0.04873   0.77298   0.00000  Uiso   1.00
O421   O     0.94859   0.30651   0.39855   0.00000  Uiso   1.00
O422   O     0.54205   0.18574   0.60069   0.00000  Uiso   1.00
O423   O     0.69351   0.05145   0.39855   0.00000  Uiso   1.00
O424   O     0.81413   0.45777   0.60068   0.00000  Uiso   1.00
O425   O     0.55143   0.19349   0.39855   0.00000  Uiso   1.00
O426   O     0.95795   0.31424   0.60069   0.00000  Uiso   1.00
O427   O     0.80649   0.44855   0.39855   0.00000  Uiso   1.00
O428   O     0.75000   0.03461   0.66251   0.00000  Uiso   1.00
O429   O     0.68587   0.04222   0.60068   0.00000  Uiso   1.00
O430   O     0.70782   0.06416   0.89931   0.00000  Uiso   1.00
O431   O     0.80142   0.44348   0.10145   0.00000  Uiso   1.00
O432   O     0.93578   0.29209   0.89931   0.00000  Uiso   1.00
O433   O     0.55652   0.19859   0.10145   0.00000  Uiso   1.00
O434   O     0.79218   0.43584   0.89932   0.00000  Uiso   1.00
O435   O     0.69857   0.05651   0.10145   0.00000  Uiso   1.00
O436   O     0.56422   0.20791   0.89931   0.00000  Uiso   1.00
O437   O     0.94348   0.30141   0.10145   0.00000  Uiso   1.00
O438   O     0.57635   0.16277   0.46262   0.00000  Uiso   1.00
O439   O     0.53462   0.25000   0.33749   0.00000  Uiso   1.00
O440   O     0.91435   0.32786   0.53812   0.00000  Uiso   1.00
O441   O     0.83683   0.42321   0.46261   0.00000  Uiso   1.00
O442   O     0.67241   0.08590   0.53812   0.00000  Uiso   1.00
O443   O     0.92357   0.33714   0.46262   0.00000  Uiso   1.00
O444   O     0.58560   0.17207   0.53812   0.00000  Uiso   1.00
O445   O     0.66315   0.07677   0.46261   0.00000  Uiso   1.00
O446   O     0.82758   0.41409   0.53812   0.00000  Uiso   1.00
O447   O     0.83586   0.42237   0.96188   0.00000  Uiso   1.00
O448   O     0.67331   0.08692   0.03739   0.00000  Uiso   1.00
O449   O     0.57782   0.16430   0.96188   0.00000  Uiso   1.00
O450   O     0.96539   0.25000   0.66251   0.00000  Uiso   1.00
O451   O     0.91293   0.32652   0.03739   0.00000  Uiso   1.00
O452   O     0.66417   0.07767   0.96188   0.00000  Uiso   1.00
O453   O     0.82674   0.41312   0.03739   0.00000  Uiso   1.00
O454   O     0.92219   0.33571   0.96188   0.00000  Uiso   1.00
O455   O     0.58710   0.17350   0.03739   0.00000  Uiso   1.00
O456   O     0.75000   0.03461   0.33749   0.00000  Uiso   1.00
Zn457  Zn    0.70053  -0.00000   0.21730   0.00000  Uiso   1.00
Zn458  Zn    0.54948   0.25000   0.28270   0.00000  Uiso   1.00
Zn459  Zn    0.75000   0.45052   0.71730   0.00000  Uiso   1.00
Zn460  Zn    0.75000   0.04947   0.28270   0.00000  Uiso   1.00
Zn461  Zn    0.54948   0.25000   0.71730   0.00000  Uiso   1.00
Zn462  Zn    0.95053   0.25000   0.28270   0.00000  Uiso   1.00
Zn463  Zn    0.75000   0.04947   0.71730   0.00000  Uiso   1.00
Zn464  Zn    0.75000   0.45052   0.28270   0.00000  Uiso   1.00
Zn465  Zn    0.79948  -0.00000   0.78270   0.00000  Uiso   1.00
Zn466  Zn    0.50000   0.20052   0.21730   0.00000  Uiso   1.00
Zn467  Zn    0.50000   0.29947   0.78270   0.00000  Uiso   1.00
Zn468  Zn    0.79948  -0.00000   0.21730   0.00000  Uiso   1.00
Zn469  Zn    0.70053  -0.00000   0.78270   0.00000  Uiso   1.00
Zn470  Zn    0.50000   0.29947   0.21730   0.00000  Uiso   1.00
Zn471  Zn    0.50000   0.20052   0.78270   0.00000  Uiso   1.00
Zn472  Zn    0.95053   0.25000   0.71730   0.00000  Uiso   1.00
C473   C     0.25000   0.50000   0.35590   0.00000  Uiso   1.00
C474   C     0.33001   0.91999   0.75000   0.00000  Uiso   1.00
C475   C     0.44300   0.80203   0.01967   0.00000  Uiso   1.00
C476   C     0.19503   0.55404   0.97965   0.00000  Uiso   1.00
C477   C     0.30215   0.94311   0.01967   0.00000  Uiso   1.00
C478   C     0.44588   0.80489   0.97965   0.00000  Uiso   1.00
C479   C     0.05701   0.69798   0.01967   0.00000  Uiso   1.00
C480   C     0.41999   0.66999   0.25000   0.00000  Uiso   1.00
C481   C     0.08001   0.83001   0.75000   0.00000  Uiso   1.00
C482   C     0.33001   0.91999   0.25000   0.00000  Uiso   1.00
C483   C     0.16999   0.58001   0.75000   0.00000  Uiso   1.00
C484   C     0.08001   0.83001   0.25000   0.00000  Uiso   1.00
C485   C     0.41999   0.66999   0.75000   0.00000  Uiso   1.00
C486   C     0.16999   0.91999   0.75000   0.00000  Uiso   1.00
C487   C     0.33001   0.58001   0.25000   0.00000  Uiso   1.00
C488   C     0.41999   0.83001   0.75000   0.00000  Uiso   1.00
C489   C     0.25000   0.50000   0.64417   0.00000  Uiso   1.00
C490   C     0.08001   0.66999   0.25000   0.00000  Uiso   1.00
C491   C     0.33001   0.58001   0.75000   0.00000  Uiso   1.00
C492   C     0.16999   0.91999   0.25000   0.00000  Uiso   1.00
C493   C     0.08001   0.66999   0.75000   0.00000  Uiso   1.00
C494   C     0.41999   0.83001   0.25000   0.00000  Uiso   1.00
C495   C     0.13833   0.88833   0.25000   0.00000  Uiso   1.00
C496   C     0.36167   0.61167   0.75000   0.00000  Uiso   1.00
C497   C     0.11166   0.63834   0.25000   0.00000  Uiso   1.00
C498   C     0.38834   0.86166   0.75000   0.00000  Uiso   1.00
C499   C     0.36167   0.61167   0.25000   0.00000  Uiso   1.00
C500   C     0.00000   0.75000   0.35590   0.00000  Uiso   1.00
C501   C     0.13833   0.88833   0.75000   0.00000  Uiso   1.00
C502   C     0.38834   0.86166   0.25000   0.00000  Uiso   1.00
C503   C     0.11166   0.63834   0.75000   0.00000  Uiso   1.00
C504   C     0.13834   0.61166   0.75000   0.00000  Uiso   1.00
C505   C     0.36166   0.88834   0.25000   0.00000  Uiso   1.00
C506   C     0.11167   0.86167   0.75000   0.00000  Uiso   1.00
C507   C     0.38833   0.63833   0.25000   0.00000  Uiso   1.00
C508   C     0.36166   0.88834   0.75000   0.00000  Uiso   1.00
C509   C     0.13834   0.61166   0.25000   0.00000  Uiso   1.00
C510   C     0.38833   0.63833   0.75000   0.00000  Uiso   1.00
C511   C     0.00000   0.75000   0.64417   0.00000  Uiso   1.00
C512   C     0.11167   0.86167   0.25000   0.00000  Uiso   1.00
C513   C     0.47431   0.77885   0.41842   0.00000  Uiso   1.00
C514   C     0.02362   0.71948   0.58175   0.00000  Uiso   1.00
C515   C     0.22118   0.52573   0.41841   0.00000  Uiso   1.00
C516   C     0.28044   0.97629   0.58174   0.00000  Uiso   1.00
C517   C     0.02568   0.72114   0.41841   0.00000  Uiso   1.00
C518   C     0.47637   0.78050   0.58174   0.00000  Uiso   1.00
C519   C     0.27881   0.97426   0.41841   0.00000  Uiso   1.00
C520   C     0.21956   0.52371   0.58174   0.00000  Uiso   1.00
C521   C     0.22631   0.53046   0.91826   0.00000  Uiso   1.00
C522   C     0.00000   0.75000   0.85582   0.00000  Uiso   1.00
C523   C     0.27572   0.97117   0.08158   0.00000  Uiso   1.00
C524   C     0.46951   0.77364   0.91826   0.00000  Uiso   1.00
C525   C     0.02885   0.72431   0.08158   0.00000  Uiso   1.00
C526   C     0.27369   0.96954   0.91826   0.00000  Uiso   1.00
C527   C     0.22428   0.52883   0.08159   0.00000  Uiso   1.00
C528   C     0.03050   0.72636   0.91825   0.00000  Uiso   1.00
C529   C     0.47115   0.77570   0.08158   0.00000  Uiso   1.00
C530   C    -0.00000   0.74999   0.39829   0.00000  Uiso   1.00
C531   C    -0.00000   0.74999   0.60193   0.00000  Uiso   1.00
C532   C     0.25000   0.50000   0.39829   0.00000  Uiso   1.00
C533   C     0.00000   0.75000   0.14410   0.00000  Uiso   1.00
C534   C     0.25000   0.50000   0.60193   0.00000  Uiso   1.00
C535   C     0.25000   0.50000   0.89807   0.00000  Uiso   1.00
C536   C     0.25000   0.50000   0.10171   0.00000  Uiso   1.00
C537   C     0.00000   0.75000   0.89807   0.00000  Uiso   1.00
C538   C     0.00000   0.75000   0.10171   0.00000  Uiso   1.00
C539   C     0.02588   0.72100   0.45923   0.00000  Uiso   1.00
C540   C     0.47303   0.77778   0.54117   0.00000  Uiso   1.00
C541   C     0.27889   0.97401   0.45923   0.00000  Uiso   1.00
C542   C     0.22228   0.52705   0.54117   0.00000  Uiso   1.00
C543   C     0.47409   0.77896   0.45923   0.00000  Uiso   1.00
C544   C     0.25000   0.50000   0.85583   0.00000  Uiso   1.00
C545   C     0.02695   0.72218   0.54117   0.00000  Uiso   1.00
C546   C     0.22110   0.52599   0.45923   0.00000  Uiso   1.00
C547   C     0.27771   0.97295   0.54117   0.00000  Uiso   1.00
C548   C     0.27703   0.97227   0.95883   0.00000  Uiso   1.00
C549   C     0.22404   0.52892   0.04077   0.00000  Uiso   1.00
C550   C     0.02779   0.72302   0.95883   0.00000  Uiso   1.00
C551   C     0.47105   0.77592   0.04077   0.00000  Uiso   1.00
C552   C     0.22298   0.52774   0.95883   0.00000  Uiso   1.00
C553   C     0.27598   0.97109   0.04077   0.00000  Uiso   1.00
C554   C     0.47222   0.77698   0.95883   0.00000  Uiso   1.00
C555   C     0.25000   0.50000   0.14410   0.00000  Uiso   1.00
C556   C     0.02896   0.72408   0.04077   0.00000  Uiso   1.00
C557   C     0.49999   0.74998   0.47965   0.00000  Uiso   1.00
C558   C     0.49999   0.74998   0.52067   0.00000  Uiso   1.00
C559   C     0.25000   0.50000   0.47965   0.00000  Uiso   1.00
C560   C     0.25000   0.50000   0.52067   0.00000  Uiso   1.00
C561   C     0.25001   0.50001   0.97933   0.00000  Uiso   1.00
C562   C     0.25001   0.50001   0.02035   0.00000  Uiso   1.00
C563   C     0.00000   0.75000   0.97933   0.00000  Uiso   1.00
C564   C     0.00000   0.75000   0.02035   0.00000  Uiso   1.00
C565   C     0.05194   0.69291   0.48033   0.00000  Uiso   1.00
C566   C     0.16999   0.58001   0.25000   0.00000  Uiso   1.00
C567   C     0.44514   0.80415   0.52035   0.00000  Uiso   1.00
C568   C     0.30686   0.94781   0.48033   0.00000  Uiso   1.00
C569   C     0.19601   0.55502   0.52035   0.00000  Uiso   1.00
C570   C     0.44801   0.80703   0.48033   0.00000  Uiso   1.00
C571   C     0.05482   0.69580   0.52035   0.00000  Uiso   1.00
C572   C     0.19313   0.55218   0.48033   0.00000  Uiso   1.00
C573   C     0.30398   0.94497   0.52035   0.00000  Uiso   1.00
C574   C     0.30500   0.94599   0.97964   0.00000  Uiso   1.00
C575   C     0.19787   0.55691   0.01967   0.00000  Uiso   1.00
C576   C     0.05413   0.69512   0.97965   0.00000  Uiso   1.00
H577   H     0.46361   0.81662   0.37525   0.00000  Uiso   1.00
H578   H     0.28638   0.93337   0.12474   0.00000  Uiso   1.00
H579   H     0.43034   0.77742   0.87458   0.00000  Uiso   1.00
H580   H     0.06663   0.71362   0.12475   0.00000  Uiso   1.00
H581   H     0.27751   0.93036   0.87459   0.00000  Uiso   1.00
H582   H     0.21361   0.56662   0.12474   0.00000  Uiso   1.00
H583   H     0.06967   0.72258   0.87457   0.00000  Uiso   1.00
H584   H     0.43337   0.78638   0.12475   0.00000  Uiso   1.00
H585   H     0.05644   0.64341   0.44952   0.00000  Uiso   1.00
H586   H     0.40042   0.80952   0.55746   0.00000  Uiso   1.00
H587   H     0.35642   0.94301   0.44966   0.00000  Uiso   1.00
H588   H     0.02741   0.68033   0.62545   0.00000  Uiso   1.00
H589   H     0.19080   0.59975   0.55748   0.00000  Uiso   1.00
H590   H     0.44346   0.85655   0.44956   0.00000  Uiso   1.00
H591   H     0.09955   0.69041   0.55744   0.00000  Uiso   1.00
H592   H     0.14357   0.55697   0.44965   0.00000  Uiso   1.00
H593   H     0.30919   0.90025   0.55748   0.00000  Uiso   1.00
H594   H     0.34972   0.94074   0.94252   0.00000  Uiso   1.00
H595   H     0.19313   0.60647   0.05036   0.00000  Uiso   1.00
H596   H     0.05947   0.65039   0.94254   0.00000  Uiso   1.00
H597   H     0.39346   0.80665   0.05041   0.00000  Uiso   1.00
H598   H     0.15030   0.55929   0.94253   0.00000  Uiso   1.00
H599   H     0.18338   0.53640   0.37526   0.00000  Uiso   1.00
H600   H     0.30693   0.89354   0.05034   0.00000  Uiso   1.00
H601   H     0.44055   0.84961   0.94254   0.00000  Uiso   1.00
H602   H     0.10654   0.69337   0.05042   0.00000  Uiso   1.00
H603   H     0.31963   0.97245   0.62540   0.00000  Uiso   1.00
H604   H     0.03641   0.68338   0.37524   0.00000  Uiso   1.00
H605   H     0.47261   0.81967   0.62542   0.00000  Uiso   1.00
H606   H     0.31662   0.96360   0.37526   0.00000  Uiso   1.00
H607   H     0.18037   0.52755   0.62541   0.00000  Uiso   1.00
H608   H     0.22249   0.56964   0.87458   0.00000  Uiso   1.00
O609   O     0.25000   0.50000   0.25000   0.00000  Uiso   1.00
O610   O     0.25000   0.96538   0.66251   0.00000  Uiso   1.00
O611   O     0.46539   0.75000   0.33749   0.00000  Uiso   1.00
O612   O     0.03462   0.75000   0.66251   0.00000  Uiso   1.00
O613   O     0.00000   0.71538   0.83749   0.00000  Uiso   1.00
O614   O     0.00000   0.78461   0.16251   0.00000  Uiso   1.00
O615   O     0.28462   0.50000   0.83749   0.00000  Uiso   1.00
O616   O     0.21539   0.50000   0.16251   0.00000  Uiso   1.00
O617   O     0.00000   0.78461   0.83749   0.00000  Uiso   1.00
O618   O     0.00000   0.71538   0.16251   0.00000  Uiso   1.00
O619   O     0.21539   0.50000   0.83749   0.00000  Uiso   1.00
O620   O     0.25000   0.50000   0.75000   0.00000  Uiso   1.00
O621   O     0.28462   0.50000   0.16251   0.00000  Uiso   1.00
O622   O     0.20127   0.58332   0.27298   0.00000  Uiso   1.00
O623   O     0.29874   0.91668   0.72702   0.00000  Uiso   1.00
O624   O     0.41668   0.70126   0.27298   0.00000  Uiso   1.00
O625   O     0.08332   0.79873   0.72702   0.00000  Uiso   1.00
O626   O     0.29874   0.91668   0.27298   0.00000  Uiso   1.00
O627   O     0.20127   0.58332   0.72702   0.00000  Uiso   1.00
O628   O     0.08332   0.79873   0.27298   0.00000  Uiso   1.00
O629   O     0.41668   0.70126   0.72702   0.00000  Uiso   1.00
O630   O     0.20127   0.91668   0.72702   0.00000  Uiso   1.00
O631   O     0.00000   0.75000   0.25000   0.00000  Uiso   1.00
O632   O     0.29874   0.58332   0.27298   0.00000  Uiso   1.00
O633   O     0.41668   0.79873   0.72702   0.00000  Uiso   1.00
O634   O     0.08332   0.70126   0.27298   0.00000  Uiso   1.00
O635   O     0.29874   0.58332   0.72702   0.00000  Uiso   1.00
O636   O     0.20127   0.91668   0.27298   0.00000  Uiso   1.00
O637   O     0.08332   0.70126   0.72702   0.00000  Uiso   1.00
O638   O     0.41668   0.79873   0.27298   0.00000  Uiso   1.00
O639   O     0.45127   0.83332   0.77298   0.00000  Uiso   1.00
O640   O     0.04874   0.66668   0.22702   0.00000  Uiso   1.00
O641   O     0.16668   0.95126   0.77298   0.00000  Uiso   1.00
O642   O     0.00000   0.75000   0.75000   0.00000  Uiso   1.00
O643   O     0.33332   0.54873   0.22702   0.00000  Uiso   1.00
O644   O     0.04874   0.66668   0.77298   0.00000  Uiso   1.00
O645   O     0.45127   0.83332   0.22702   0.00000  Uiso   1.00
O646   O     0.33332   0.54873   0.77298   0.00000  Uiso   1.00
O647   O     0.16668   0.95126   0.22702   0.00000  Uiso   1.00
O648   O     0.45127   0.66668   0.22702   0.00000  Uiso   1.00
O649   O     0.04874   0.83332   0.77298   0.00000  Uiso   1.00
O650   O     0.16668   0.54873   0.22702   0.00000  Uiso   1.00
O651   O     0.33332   0.95126   0.77298   0.00000  Uiso   1.00
O652   O     0.04874   0.83332   0.22702   0.00000  Uiso   1.00
O653   O     0.25000   0.96538   0.33749   0.00000  Uiso   1.00
O654   O     0.45127   0.66668   0.77298   0.00000  Uiso   1.00
O655   O     0.33332   0.95126   0.22702   0.00000  Uiso   1.00
O656   O     0.16668   0.54873   0.77298   0.00000  Uiso   1.00
O657   O     0.44859   0.80651   0.39855   0.00000  Uiso   1.00
O658   O     0.04205   0.68574   0.60069   0.00000  Uiso   1.00
O659   O     0.19351   0.55145   0.39855   0.00000  Uiso   1.00
O660   O     0.31413   0.95777   0.60068   0.00000  Uiso   1.00
O661   O     0.05143   0.69349   0.39855   0.00000  Uiso   1.00
O662   O     0.45795   0.81424   0.60069   0.00000  Uiso   1.00
O663   O     0.30649   0.94855   0.39855   0.00000  Uiso   1.00
O664   O     0.25000   0.53461   0.66251   0.00000  Uiso   1.00
O665   O     0.18587   0.54222   0.60068   0.00000  Uiso   1.00
O666   O     0.20782   0.56416   0.89931   0.00000  Uiso   1.00
O667   O     0.30142   0.94348   0.10145   0.00000  Uiso   1.00
O668   O     0.43578   0.79209   0.89931   0.00000  Uiso   1.00
O669   O     0.05652   0.69859   0.10145   0.00000  Uiso   1.00
O670   O     0.29218   0.93584   0.89932   0.00000  Uiso   1.00
O671   O     0.19857   0.55651   0.10145   0.00000  Uiso   1.00
O672   O     0.06422   0.70791   0.89931   0.00000  Uiso   1.00
O673   O     0.44348   0.80141   0.10145   0.00000  Uiso   1.00
O674   O     0.07635   0.66277   0.46262   0.00000  Uiso   1.00
O675   O     0.03462   0.75000   0.33749   0.00000  Uiso   1.00
O676   O     0.41435   0.82786   0.53812   0.00000  Uiso   1.00
O677   O     0.33683   0.92321   0.46261   0.00000  Uiso   1.00
O678   O     0.17241   0.58590   0.53812   0.00000  Uiso   1.00
O679   O     0.42357   0.83714   0.46262   0.00000  Uiso   1.00
O680   O     0.08560   0.67207   0.53812   0.00000  Uiso   1.00
O681   O     0.16315   0.57677   0.46261   0.00000  Uiso   1.00
O682   O     0.32758   0.91409   0.53812   0.00000  Uiso   1.00
O683   O     0.33586   0.92237   0.96188   0.00000  Uiso   1.00
O684   O     0.17331   0.58692   0.03739   0.00000  Uiso   1.00
O685   O     0.07782   0.66430   0.96188   0.00000  Uiso   1.00
O686   O     0.46539   0.75000   0.66251   0.00000  Uiso   1.00
O687   O     0.41293   0.82652   0.03739   0.00000  Uiso   1.00
O688   O     0.16417   0.57767   0.96188   0.00000  Uiso   1.00
O689   O     0.32674   0.91312   0.03739   0.00000  Uiso   1.00
O690   O     0.42219   0.83571   0.96188   0.00000  Uiso   1.00
O691   O     0.08710   0.67350   0.03739   0.00000  Uiso   1.00
O692   O     0.25000   0.53461   0.33749   0.00000  Uiso   1.00
Zn693  Zn    0.20053   0.50000   0.21730   0.00000  Uiso   1.00
Zn694  Zn    0.04948   0.75000   0.28270   0.00000  Uiso   1.00
Zn695  Zn    0.25000   0.95052   0.71730   0.00000  Uiso   1.00
Zn696  Zn    0.25000   0.54947   0.28270   0.00000  Uiso   1.00
Zn697  Zn    0.04948   0.75000   0.71730   0.00000  Uiso   1.00
Zn698  Zn    0.45053   0.75000   0.28270   0.00000  Uiso   1.00
Zn699  Zn    0.25000   0.54947   0.71730   0.00000  Uiso   1.00
Zn700  Zn    0.25000   0.95052   0.28270   0.00000  Uiso   1.00
Zn701  Zn    0.29948   0.50000   0.78270   0.00000  Uiso   1.00
Zn702  Zn    0.00000   0.70052   0.21730   0.00000  Uiso   1.00
Zn703  Zn    0.00000   0.79947   0.78270   0.00000  Uiso   1.00
Zn704  Zn    0.29948   0.50000   0.21730   0.00000  Uiso   1.00
Zn705  Zn    0.20053   0.50000   0.78270   0.00000  Uiso   1.00
Zn706  Zn    0.00000   0.79947   0.21730   0.00000  Uiso   1.00
Zn707  Zn    0.00000   0.70052   0.78270   0.00000  Uiso   1.00
Zn708  Zn    0.45053   0.75000   0.71730   0.00000  Uiso   1.00
C709   C     0.75000   0.50000   0.35590   0.00000  Uiso   1.00
C710   C     0.83001   0.91999   0.75000   0.00000  Uiso   1.00
C711   C     0.94300   0.80203   0.01967   0.00000  Uiso   1.00
C712   C     0.69503   0.55404   0.97965   0.00000  Uiso   1.00
C713   C     0.80215   0.94311   0.01967   0.00000  Uiso   1.00
C714   C     0.94588   0.80489   0.97965   0.00000  Uiso   1.00
C715   C     0.55701   0.69798   0.01967   0.00000  Uiso   1.00
C716   C     0.91999   0.66999   0.25000   0.00000  Uiso   1.00
C717   C     0.58001   0.83001   0.75000   0.00000  Uiso   1.00
C718   C     0.83001   0.91999   0.25000   0.00000  Uiso   1.00
C719   C     0.66999   0.58001   0.75000   0.00000  Uiso   1.00
C720   C     0.58001   0.83001   0.25000   0.00000  Uiso   1.00
C721   C     0.91999   0.66999   0.75000   0.00000  Uiso   1.00
C722   C     0.66999   0.91999   0.75000   0.00000  Uiso   1.00
C723   C     0.83001   0.58001   0.25000   0.00000  Uiso   1.00
C724   C     0.91999   0.83001   0.75000   0.00000  Uiso   1.00
C725   C     0.75000   0.50000   0.64417   0.00000  Uiso   1.00
C726   C     0.58001   0.66999   0.25000   0.00000  Uiso   1.00
C727   C     0.83001   0.58001   0.75000   0.00000  Uiso   1.00
C728   C     0.66999   0.91999   0.25000   0.00000  Uiso   1.00
C729   C     0.58001   0.66999   0.75000   0.00000  Uiso   1.00
C730   C     0.91999   0.83001   0.25000   0.00000  Uiso   1.00
C731   C     0.63833   0.88833   0.25000   0.00000  Uiso   1.00
C732   C     0.86167   0.61167   0.75000   0.00000  Uiso   1.00
C733   C     0.61166   0.63834   0.25000   0.00000  Uiso   1.00
C734   C     0.88834   0.86166   0.75000   0.00000  Uiso   1.00
C735   C     0.86167   0.61167   0.25000   0.00000  Uiso   1.00
C736   C     0.50000   0.75000   0.35590   0.00000  Uiso   1.00
C737   C     0.63833   0.88833   0.75000   0.00000  Uiso   1.00
C738   C     0.88834   0.86166   0.25000   0.00000  Uiso   1.00
C739   C     0.61166   0.63834   0.75000   0.00000  Uiso   1.00
C740   C     0.63834   0.61166   0.75000   0.00000  Uiso   1.00
C741   C     0.86166   0.88834   0.25000   0.00000  Uiso   1.00
C742   C     0.61167   0.86167   0.75000   0.00000  Uiso   1.00
C743   C     0.88833   0.63833   0.25000   0.00000  Uiso   1.00
C744   C     0.86166   0.88834   0.75000   0.00000  Uiso   1.00
C745   C     0.63834   0.61166   0.25000   0.00000  Uiso   1.00
C746   C     0.88833   0.63833   0.75000   0.00000  Uiso   1.00
C747   C     0.50000   0.75000   0.64417   0.00000  Uiso   1.00
C748   C     0.61167   0.86167   0.25000   0.00000  Uiso   1.00
C749   C     0.97431   0.77885   0.41842   0.00000  Uiso   1.00
C750   C     0.52362   0.71948   0.58175   0.00000  Uiso   1.00
C751   C     0.72118   0.52573   0.41841   0.00000  Uiso   1.00
C752   C     0.78044   0.97629   0.58174   0.00000  Uiso   1.00
C753   C     0.52568   0.72114   0.41841   0.00000  Uiso   1.00
C754   C     0.97637   0.78050   0.58174   0.00000  Uiso   1.00
C755   C     0.77881   0.97426   0.41841   0.00000  Uiso   1.00
C756   C     0.71956   0.52371   0.58174   0.00000  Uiso   1.00
C757   C     0.72631   0.53046   0.91826   0.00000  Uiso   1.00
C758   C     0.50000   0.75000   0.85582   0.00000  Uiso   1.00
C759   C     0.77572   0.97117   0.08158   0.00000  Uiso   1.00
C760   C     0.96951   0.77364   0.91826   0.00000  Uiso   1.00
C761   C     0.52885   0.72431   0.08158   0.00000  Uiso   1.00
C762   C     0.77369   0.96954   0.91826   0.00000  Uiso   1.00
C763   C     0.72428   0.52883   0.08159   0.00000  Uiso   1.00
C764   C     0.53050   0.72636   0.91825   0.00000  Uiso   1.00
C765   C     0.97115   0.77570   0.08158   0.00000  Uiso   1.00
C766   C     0.50000   0.74999   0.39829   0.00000  Uiso   1.00
C767   C     0.50000   0.74999   0.60193   0.00000  Uiso   1.00
C768   C     0.75000   0.50000   0.39829   0.00000  Uiso   1.00
C769   C     0.50000   0.75000   0.14410   0.00000  Uiso   1.00
C770   C     0.75000   0.50000   0.60193   0.00000  Uiso   1.00
C771   C     0.75000   0.50000   0.89807   0.00000  Uiso   1.00
C772   C     0.75000   0.50000   0.10171   0.00000  Uiso   1.00
C773   C     0.50000   0.75000   0.89807   0.00000  Uiso   1.00
C774   C     0.50000   0.75000   0.10171   0.00000  Uiso   1.00
C775   C     0.52588   0.72100   0.45923   0.00000  Uiso   1.00
C776   C     0.97303   0.77778   0.54117   0.00000  Uiso   1.00
C777   C     0.77889   0.97401   0.45923   0.00000  Uiso   1.00
C778   C     0.72228   0.52705   0.54117   0.00000  Uiso   1.00
C779   C     0.97409   0.77896   0.45923   0.00000  Uiso   1.00
C780   C     0.75000   0.50000   0.85583   0.00000  Uiso   1.00
C781   C     0.52695   0.72218   0.54117   0.00000  Uiso   1.00
C782   C     0.72110   0.52599   0.45923   0.00000  Uiso   1.00
C783   C     0.77771   0.97295   0.54117   0.00000  Uiso   1.00
C784   C     0.77703   0.97227   0.95883   0.00000  Uiso   1.00
C785   C     0.72404   0.52892   0.04077   0.00000  Uiso   1.00
C786   C     0.52779   0.72302   0.95883   0.00000  Uiso   1.00
C787   C     0.97105   0.77592   0.04077   0.00000  Uiso   1.00
C788   C     0.72298   0.52774   0.95883   0.00000  Uiso   1.00
C789   C     0.77598   0.97109   0.04077   0.00000  Uiso   1.00
C790   C     0.97222   0.77698   0.95883   0.00000  Uiso   1.00
C791   C     0.75000   0.50000   0.14410   0.00000  Uiso   1.00
C792   C     0.52896   0.72408   0.04077   0.00000  Uiso   1.00
C793   C     0.99999   0.74998   0.47965   0.00000  Uiso   1.00
C794   C     0.99999   0.74998   0.52067   0.00000  Uiso   1.00
C795   C     0.75000   0.50000   0.47965   0.00000  Uiso   1.00
C796   C     0.75000   0.50000   0.52067   0.00000  Uiso   1.00
C797   C     0.75001   0.50001   0.97933   0.00000  Uiso   1.00
C798   C     0.75001   0.50001   0.02035   0.00000  Uiso   1.00
C799   C     0.50000   0.75000   0.97933   0.00000  Uiso   1.00
C800   C     0.50000   0.75000   0.02035   0.00000  Uiso   1.00
C801   C     0.55194   0.69291   0.48033   0.00000  Uiso   1.00
C802   C     0.66999   0.58001   0.25000   0.00000  Uiso   1.00
C803   C     0.94514   0.80415   0.52035   0.00000  Uiso   1.00
C804   C     0.80686   0.94781   0.48033   0.00000  Uiso   1.00
C805   C     0.69601   0.55502   0.52035   0.00000  Uiso   1.00
C806   C     0.94801   0.80703   0.48033   0.00000  Uiso   1.00
C807   C     0.55482   0.69580   0.52035   0.00000  Uiso   1.00
C808   C     0.69313   0.55218   0.48033   0.00000  Uiso   1.00
C809   C     0.80398   0.94497   0.52035   0.00000  Uiso   1.00
C810   C     0.80500   0.94599   0.97964   0.00000  Uiso   1.00
C811   C     0.69787   0.55691   0.01967   0.00000  Uiso   1.00
C812   C     0.55413   0.69512   0.97965   0.00000  Uiso   1.00
H813   H     0.96361   0.81662   0.37525   0.00000  Uiso   1.00
H814   H     0.78638   0.93337   0.12474   0.00000  Uiso   1.00
H815   H     0.93034   0.77742   0.87458   0.00000  Uiso   1.00
H816   H     0.56663   0.71362   0.12475   0.00000  Uiso   1.00
H817   H     0.77751   0.93036   0.87459   0.00000  Uiso   1.00
H818   H     0.71361   0.56662   0.12474   0.00000  Uiso   1.00
H819   H     0.56967   0.72258   0.87457   0.00000  Uiso   1.00
H820   H     0.93337   0.78638   0.12475   0.00000  Uiso   1.00
H821   H     0.55644   0.64341   0.44952   0.00000  Uiso   1.00
H822   H     0.90042   0.80952   0.55746   0.00000  Uiso   1.00
H823   H     0.85642   0.94301   0.44966   0.00000  Uiso   1.00
H824   H     0.52741   0.68033   0.62545   0.00000  Uiso   1.00
H825   H     0.69080   0.59975   0.55748   0.00000  Uiso   1.00
H826   H     0.94346   0.85655   0.44956   0.00000  Uiso   1.00
H827   H     0.59955   0.69041   0.55744   0.00000  Uiso   1.00
H828   H     0.64357   0.55697   0.44965   0.00000  Uiso   1.00
H829   H     0.80919   0.90025   0.55748   0.00000  Uiso   1.00
H830   H     0.84972   0.94074   0.94252   0.00000  Uiso   1.00
H831   H     0.69313   0.60647   0.05036   0.00000  Uiso   1.00
H832   H     0.55947   0.65039   0.94254   0.00000  Uiso   1.00
H833   H     0.89346   0.80665   0.05041   0.00000  Uiso   1.00
H834   H     0.65030   0.55929   0.94253   0.00000  Uiso   1.00
H835   H     0.68338   0.53640   0.37526   0.00000  Uiso   1.00
H836   H     0.80693   0.89354   0.05034   0.00000  Uiso   1.00
H837   H     0.94055   0.84961   0.94254   0.00000  Uiso   1.00
H838   H     0.60654   0.69337   0.05042   0.00000  Uiso   1.00
H839   H     0.81963   0.97245   0.62540   0.00000  Uiso   1.00
H840   H     0.53641   0.68338   0.37524   0.00000  Uiso   1.00
H841   H     0.97261   0.81967   0.62542   0.00000  Uiso   1.00
H842   H     0.81662   0.96360   0.37526   0.00000  Uiso   1.00
H843   H     0.68037   0.52755   0.62541   0.00000  Uiso   1.00
H844   H     0.72249   0.56964   0.87458   0.00000  Uiso   1.00
O845   O     0.75000   0.50000   0.25000   0.00000  Uiso   1.00
O846   O     0.75000   0.96538   0.66251   0.00000  Uiso   1.00
O847   O     0.96539   0.75000   0.33749   0.00000  Uiso   1.00
O848   O     0.53462   0.75000   0.66251   0.00000  Uiso   1.00
O849   O     0.50000   0.71538   0.83749   0.00000  Uiso   1.00
O850   O     0.50000   0.78461   0.16251   0.00000  Uiso   1.00
O851   O     0.78462   0.50000   0.83749   0.00000  Uiso   1.00
O852   O     0.71539   0.50000   0.16251   0.00000  Uiso   1.00
O853   O     0.50000   0.78461   0.83749   0.00000  Uiso   1.00
O854   O     0.50000   0.71538   0.16251   0.00000  Uiso   1.00
O855   O     0.71539   0.50000   0.83749   0.00000  Uiso   1.00
O856   O     0.75000   0.50000   0.75000   0.00000  Uiso   1.00
O857   O     0.78462   0.50000   0.16251   0.00000  Uiso   1.00
O858   O     0.70127   0.58332   0.27298   0.00000  Uiso   1.00
O859   O     0.79874   0.91668   0.72702   0.00000  Uiso   1.00
O860   O     0.91668   0.70126   0.27298   0.00000  Uiso   1.00
O861   O     0.58332   0.79873   0.72702   0.00000  Uiso   1.00
O862   O     0.79874   0.91668   0.27298   0.00000  Uiso   1.00
O863   O     0.70127   0.58332   0.72702   0.00000  Uiso   1.00
O864   O     0.58332   0.79873   0.27298   0.00000  Uiso   1.00
O865   O     0.91668   0.70126   0.72702   0.00000  Uiso   1.00
O866   O     0.70127   0.91668   0.72702   0.00000  Uiso   1.00
O867   O     0.50000   0.75000   0.25000   0.00000  Uiso   1.00
O868   O     0.79874   0.58332   0.27298   0.00000  Uiso   1.00
O869   O     0.91668   0.79873   0.72702   0.00000  Uiso   1.00
O870   O     0.58332   0.70126   0.27298   0.00000  Uiso   1.00
O871   O     0.79874   0.58332   0.72702   0.00000  Uiso   1.00
O872   O     0.70127   0.91668   0.27298   0.00000  Uiso   1.00
O873   O     0.58332   0.70126   0.72702   0.00000  Uiso   1.00
O874   O     0.91668   0.79873   0.27298   0.00000  Uiso   1.00
O875   O     0.95127   0.83332   0.77298   0.00000  Uiso   1.00
O876   O     0.54874   0.66668   0.22702   0.00000  Uiso   1.00
O877   O     0.66668   0.95126   0.77298   0.00000  Uiso   1.00
O878   O     0.50000   0.75000   0.75000   0.00000  Uiso   1.00
O879   O     0.83332   0.54873   0.22702   0.00000  Uiso   1.00
O880   O     0.54874   0.66668   0.77298   0.00000  Uiso   1.00
O881   O     0.95127   0.83332   0.22702   0.00000  Uiso   1.00
O882   O     0.83332   0.54873   0.77298   0.00000  Uiso   1.00
O883   O     0.66668   0.95126   0.22702   0.00000  Uiso   1.00
O884   O     0.95127   0.66668   0.22702   0.00000  Uiso   1.00
O885   O     0.54874   0.83332   0.77298   0.00000  Uiso   1.00
O886   O     0.66668   0.54873   0.22702   0.00000  Uiso   1.00
O887   O     0.83332   0.95126   0.77298   0.00000  Uiso   1.00
O888   O     0.54874   0.83332   0.22702   0.00000  Uiso   1.00
O889   O     0.75000   0.96538   0.33749   0.00000  Uiso   1.00
O890   O     0.95127   0.66668   0.77298   0.00000  Uiso   1.00
O891   O     0.83332   0.95126   0.22702   0.00000  Uiso   1.00
O892   O     0.66668   0.54873   0.77298   0.00000  Uiso   1.00
O893   O     0.94859   0.80651   0.39855   0.00000  Uiso   1.00
O894   O     0.54205   0.68574   0.60069   0.00000  Uiso   1.00
O895   O     0.69351   0.55145   0.39855   0.00000  Uiso   1.00
O896   O     0.81413   0.95777   0.60068   0.00000  Uiso   1.00
O897   O     0.55143   0.69349   0.39855   0.00000  Uiso   1.00
O898   O     0.95795   0.81424   0.60069   0.00000  Uiso   1.00
O899   O     0.80649   0.94855   0.39855   0.00000  Uiso   1.00
O900   O     0.75000   0.53461   0.66251   0.00000  Uiso   1.00
O901   O     0.68587   0.54222   0.60068   0.00000  Uiso   1.00
O902   O     0.70782   0.56416   0.89931   0.00000  Uiso   1.00
O903   O     0.80142   0.94348   0.10145   0.00000  Uiso   1.00
O904   O     0.93578   0.79209   0.89931   0.00000  Uiso   1.00
O905   O     0.55652   0.69859   0.10145   0.00000  Uiso   1.00
O906   O     0.79218   0.93584   0.89932   0.00000  Uiso   1.00
O907   O     0.69857   0.55651   0.10145   0.00000  Uiso   1.00
O908   O     0.56422   0.70791   0.89931   0.00000  Uiso   1.00
O909   O     0.94348   0.80141   0.10145   0.00000  Uiso   1.00
O910   O     0.57635   0.66277   0.46262   0.00000  Uiso   1.00
O911   O     0.53462   0.75000   0.33749   0.00000  Uiso   1.00
O912   O     0.91435   0.82786   0.53812   0.00000  Uiso   1.00
O913   O     0.83683   0.92321   0.46261   0.00000  Uiso   1.00
O914   O     0.67241   0.58590   0.53812   0.00000  Uiso   1.00
O915   O     0.92357   0.83714   0.46262   0.00000  Uiso   1.00
O916   O     0.58560   0.67207   0.53812   0.00000  Uiso   1.00
O917   O     0.66315   0.57677   0.46261   0.00000  Uiso   1.00
O918   O     0.82758   0.91409   0.53812   0.00000  Uiso   1.00
O919   O     0.83586   0.92237   0.96188   0.00000  Uiso   1.00
O920   O     0.67331   0.58692   0.03739   0.00000  Uiso   1.00
O921   O     0.57782   0.66430   0.96188   0.00000  Uiso   1.00
O922   O     0.96539   0.75000   0.66251   0.00000  Uiso   1.00
O923   O     0.91293   0.82652   0.03739   0.00000  Uiso   1.00
O924   O     0.66417   0.57767   0.96188   0.00000  Uiso   1.00
O925   O     0.82674   0.91312   0.03739   0.00000  Uiso   1.00
O926   O     0.92219   0.83571   0.96188   0.00000  Uiso   1.00
O927   O     0.58710   0.67350   0.03739   0.00000  Uiso   1.00
O928   O     0.75000   0.53461   0.33749   0.00000  Uiso   1.00
Zn929  Zn    0.70053   0.50000   0.21730   0.00000  Uiso   1.00
Zn930  Zn    0.54948   0.75000   0.28270   0.00000  Uiso   1.00
Zn931  Zn    0.75000   0.95052   0.71730   0.00000  Uiso   1.00
Zn932  Zn    0.75000   0.54947   0.28270   0.00000  Uiso   1.00
Zn933  Zn    0.54948   0.75000   0.71730   0.00000  Uiso   1.00
Zn934  Zn    0.95053   0.75000   0.28270   0.00000  Uiso   1.00
Zn935  Zn    0.75000   0.54947   0.71730   0.00000  Uiso   1.00
Zn936  Zn    0.75000   0.95052   0.28270   0.00000  Uiso   1.00
Zn937  Zn    0.79948   0.50000   0.78270   0.00000  Uiso   1.00
Zn938  Zn    0.50000   0.70052   0.21730   0.00000  Uiso   1.00
Zn939  Zn    0.50000   0.79947   0.78270   0.00000  Uiso   1.00
Zn940  Zn    0.79948   0.50000   0.21730   0.00000  Uiso   1.00
Zn941  Zn    0.70053   0.50000   0.78270   0.00000  Uiso   1.00
Zn942  Zn    0.50000   0.79947   0.21730   0.00000  Uiso   1.00
Zn943  Zn    0.50000   0.70052   0.78270   0.00000  Uiso   1.00
Zn944  Zn    0.95053   0.75000   0.71730   0.00000  Uiso   1.00
loop_
_geom_bond_atom_site_label_1
_geom_bond_atom_site_label_2
_geom_bond_distance
_geom_bond_site_symmetry_2
_ccdc_geom_bond_type
C1     O220    1.271   .     A
C1     C60     1.466   .     S
C1     O653    1.271   1_545 S
C2     O179    1.277   .     A
C2     C36     1.422   .     S
C2     O151    1.277   .     A
C3     O215    1.376   .     S
C3     C79     1.419   .     A
C3     C6      1.390   1_554 S
C4     C80     1.416   .     A
C4     O216    1.379   .     S
C4     C103    1.390   1_556 S
C5     O217    1.376   .     S
C5     C81     1.419   .     A
C5     C102    1.390   1_554 S
C6     C82     1.416   .     A
C6     O218    1.379   .     S
C6     C3      1.390   1_556 S
C7     O219    1.376   .     S
C7     C84     1.419   .     A
C7     C104    1.390   1_554 S
C8     O152    1.277   .     A
C8     O176    1.277   .     A
C8     C35     1.423   .     S
C9     O153    1.277   .     A
C9     C34     1.423   .     S
C9     O177    1.277   .     A
C10    O154    1.277   .     A
C10    O183    1.277   .     A
C10    C33     1.422   .     S
C11    O155    1.277   .     A
C11    C32     1.422   .     S
C11    O184    1.277   .     A
C12    O156    1.277   .     A
C12    C40     1.423   .     S
C12    O180    1.277   .     A
C13    O157    1.277   .     A
C13    C38     1.423   .     S
C13    O182    1.277   .     A
C14    O158    1.277   .     A
C14    O169    1.277   .     A
C14    C29     1.423   .     S
C15    C27     1.423   .     S
C15    O171    1.277   .     A
C15    O160    1.277   .     A
C16    O167    1.277   .     A
C16    C26     1.422   .     S
C16    O161    1.277   .     A
C17    O610    1.270   1_545 A
C17    C62     1.461   .     S
C17    O192    1.270   .     S
C18    O168    1.277   .     A
C18    C25     1.422   .     S
C18    O162    1.277   .     A
C19    O163    1.277   .     A
C19    C24     1.423   .     S
C19    O174    1.277   .     A
C20    O175    1.277   .     A
C20    O164    1.277   .     A
C20    C23     1.423   .     S
C21    O165    1.277   .     A
C21    C31     1.422   .     S
C21    O172    1.277   .     A
C22    O173    1.277   .     A
C22    C30     1.422   .     S
C22    O166    1.277   .     A
C23    C40     1.199   .     T
C24    C38     1.199   .     T
C25    C37     1.198   .     T
C26    C36     1.198   .     T
C27    C35     1.199   .     T
C28    O203    1.271   .     A
C28    C58     1.466   .     S
C28    O375    1.271   1_455 S
C29    C34     1.199   .     T
C30    C33     1.198   .     T
C31    C32     1.198   .     T
C37    C94     1.422   .     S
C39    O450    1.270   1_455 A
C39    C59     1.461   .     S
C39    O140    1.270   .     S
C41    C71     1.412   .     A
C41    O185    1.382   .     S
C41    C294    1.411   .     A
C42    O186    1.386   .     S
C42    C73     1.410   .     A
C42    C59     1.410   .     S
C43    C74     1.412   .     A
C43    O187    1.382   .     S
C43    C60     1.411   .     A
C44    C75     1.410   .     A
C44    O188    1.386   .     S
C44    C534    1.410   .     S
C45    C67     1.412   .     A
C45    O189    1.382   .     S
C45    C58     1.411   .     S
C46    C68     1.410   .     A
C46    O190    1.386   .     S
C46    C295    1.410   .     A
C47    C69     1.412   .     A
C47    O191    1.382   .     S
C47    C532    1.411   .     S
C48    O193    1.386   .     S
C48    C62     1.410   .     A
C48    C70     1.410   .     A
C49    C63     1.410   .     A
C49    O194    1.386   .     S
C49    C80     1.410   .     A
C50    O145    1.270   .     A
C50    C65     1.461   .     S
C50    O141    1.270   .     S
C51    C81     1.412   .     A
C51    O195    1.382   .     S
C51    C536    1.411   .     S
C52    O196    1.386   .     S
C52    C82     1.410   .     A
C52    C301    1.410   .     S
C53    C84     1.412   .     A
C53    C66     1.411   .     A
C53    O197    1.382   .     S
C54    C76     1.410   .     A
C54    O198    1.386   .     S
C54    C535    1.410   .     S
C55    C77     1.412   .     A
C55    O199    1.382   .     S
C55    C64     1.411   .     A
C56    C78     1.410   .     A
C56    C65     1.410   .     A
C56    O200    1.386   .     S
C57    C79     1.412   .     A
C57    O201    1.382   .     S
C57    C302    1.411   .     S
C58    C277    1.411   1_455 A
C59    C282    1.410   1_455 A
C60    C519    1.411   1_545 S
C61    C66     1.466   .     S
C61    O146    1.271   .     A
C61    O142    1.271   .     A
C62    C516    1.410   1_545 S
C63    C72     1.461   .     S
C63    C526    1.410   1_545 S
C64    C83     1.466   .     S
C64    C523    1.411   1_545 S
C65    C288    1.410   1_455 S
C66    C293    1.411   1_455 S
C67    C93     1.419   .     A
C67    C321    1.422   1_455 S
C68    C86     1.420   .     A
C68    C95     1.416   .     A
C69    C96     1.419   .     A
C69    C559    1.422   .     A
C70    C97     1.416   .     A
C70    C88     1.420   .     S
C71    C85     1.422   .     A
C71    C98     1.419   .     A
C72    O143    1.270   .     A
C72    O147    1.270   .     A
C73    C99     1.416   .     A
C73    C322    1.420   1_455 S
C74    C100    1.419   .     A
C74    C87     1.422   .     S
C75    C560    1.420   .     A
C75    C101    1.416   .     A
C76    C102    1.416   .     A
C76    C561    1.420   .     S
C77    C90     1.422   .     A
C77    C103    1.419   .     A
C78    C104    1.416   .     A
C78    C91     1.420   .     A
C79    C328    1.422   .     S
C80    C89     1.420   .     A
C81    C562    1.422   .     S
C82    C327    1.420   .     S
C83    O144    1.271   .     S
C83    O149    1.271   .     S
C84    C92     1.422   .     A
C85    C86     1.419   .     A
C85    C303    1.422   .     S
C86    C309    1.420   .     S
C87    C88     1.419   .     A
C87    C541    1.422   1_545 A
C88    C547    1.420   1_545 A
C89    C548    1.420   1_545 S
C89    C90     1.419   1_556 S
C90    C553    1.422   1_545 S
C90    C89     1.419   1_554 S
C91    C318    1.420   1_455 S
C91    C92     1.419   1_556 S
C92    C315    1.422   1_455 S
C92    C91     1.419   1_554 S
C93    C99     1.390   .     A
C93    O202    1.376   .     S
C94    O178    1.277   .     A
C94    O150    1.277   .     A
C95    C98     1.390   .     A
C95    O204    1.379   .     S
C96    C101    1.390   .     A
C96    O205    1.376   .     S
C97    O206    1.379   .     S
C97    C100    1.390   .     A
C98    O207    1.376   .     S
C99    O208    1.379   .     S
C100   O209    1.376   .     S
C101   O210    1.379   .     S
C102   O211    1.379   .     S
C102   C5      1.390   1_556 S
C103   O212    1.376   .     S
C103   C4      1.390   1_554 S
C104   O213    1.379   .     S
C104   C7      1.390   1_556 S
H105   O185    0.990   .     S
H106   O195    0.990   .     S
H107   O196    0.989   .     S
H108   O197    0.990   .     S
H109   O198    0.989   .     S
H110   O199    0.990   .     S
H111   O200    0.989   .     S
H112   O201    0.990   .     S
H113   O202    0.992   .     S
H114   O204    0.992   .     S
H115   O205    0.992   .     S
H116   O186    0.989   .     S
H117   O206    0.992   .     S
H118   O207    0.992   .     S
H119   O208    0.992   .     S
H120   O209    0.992   .     S
H121   O210    0.992   .     S
H122   O211    0.992   .     S
H123   O212    0.992   .     S
H124   O213    0.992   .     S
H125   O215    0.992   .     S
H126   O216    0.992   .     S
H127   O187    0.990   .     S
H128   O217    0.992   .     S
H129   O218    0.992   .     S
H130   O219    0.992   .     S
H131   O188    0.989   .     S
H132   O189    0.990   .     S
H133   O190    0.989   .     S
H134   O191    0.990   .     S
H135   O193    0.989   .     S
H136   O194    0.989   .     S
O137   Zn224   1.936   .     S
O137   Zn232   1.936   .     S
O137   Zn221   1.936   .     S
O137   Zn700   1.936   1_545 S
O138   C489    1.270   .     A
O138   Zn223   1.953   .     S
O139   Zn226   1.953   .     S
O139   C264    1.271   .     S
O140   Zn225   1.953   .     S
O141   Zn235   1.953   .     S
O142   Zn234   1.953   .     S
O143   Zn229   1.953   .     S
O144   Zn221   1.953   .     S
O145   Zn231   1.953   .     S
O146   Zn230   1.953   .     S
O147   Zn233   1.953   .     S
O148   Zn227   1.936   .     S
O148   Zn233   1.936   .     S
O148   Zn229   1.936   .     S
O148   Zn695   1.936   1_545 S
O149   Zn232   1.953   .     S
O150   Zn224   1.914   .     S
O151   Zn223   1.914   .     S
O152   Zn226   1.916   .     S
O153   Zn225   1.916   .     S
O154   Zn228   1.914   .     S
O155   Zn227   1.914   .     S
O156   Zn222   1.916   .     S
O157   Zn236   1.916   .     S
O158   Zn223   1.916   .     S
O159   Zn222   1.936   .     S
O159   Zn230   1.936   .     S
O159   Zn234   1.936   .     S
O159   Zn462   1.936   1_455 S
O160   Zn224   1.916   .     S
O161   Zn236   1.914   .     S
O162   Zn222   1.914   .     S
O163   Zn227   1.916   .     S
O164   Zn228   1.916   .     S
O165   Zn225   1.914   .     S
O166   Zn226   1.914   .     S
O167   Zn467   1.914   .     S
O168   Zn230   1.914   .     S
O169   Zn705   1.916   .     S
O170   Zn231   1.936   .     S
O170   Zn225   1.936   .     S
O170   Zn235   1.936   .     S
O170   Zn472   1.936   1_455 S
O171   Zn232   1.916   .     S
O172   Zn235   1.914   .     S
O173   Zn470   1.914   .     S
O174   Zn229   1.916   .     S
O175   Zn693   1.916   .     S
O176   Zn466   1.916   .     S
O177   Zn231   1.916   .     S
O178   Zn221   1.914   .     S
O179   Zn701   1.914   .     S
O180   Zn234   1.916   .     S
O181   Zn228   1.953   .     S
O181   C473    1.271   .     S
O182   Zn471   1.916   .     S
O183   Zn704   1.914   .     S
O184   Zn233   1.914   .     S
O192   Zn227   1.953   .     S
O203   Zn222   1.953   .     S
O214   C275    1.270   .     A
O214   Zn236   1.953   .     S
O220   Zn224   1.953   .     S
Zn221  O647    1.916   1_545 S
Zn223  O620    1.936   .     S
Zn226  O395    1.936   .     S
Zn228  O609    1.936   .     S
Zn229  O651    1.914   1_545 S
Zn230  O412    1.916   1_455 S
Zn231  O403    1.914   1_455 S
Zn232  O655    1.914   1_545 S
Zn233  O641    1.916   1_545 S
Zn234  O409    1.914   1_455 S
Zn235  O418    1.916   1_455 S
Zn236  O406    1.936   .     S
C237   O456    1.271   .     A
C237   C296    1.466   .     S
C237   O889    1.271   1_545 S
C238   O415    1.277   .     A
C238   C272    1.422   .     S
C238   O387    1.277   .     A
C239   O451    1.376   .     S
C239   C315    1.419   .     A
C239   C242    1.390   1_554 S
C240   C316    1.416   .     A
C240   O452    1.379   .     S
C240   C339    1.390   1_556 S
C241   O453    1.376   .     S
C241   C317    1.419   .     A
C241   C338    1.390   1_554 S
C242   C318    1.416   .     A
C242   O454    1.379   .     S
C242   C239    1.390   1_556 S
C243   O455    1.376   .     S
C243   C320    1.419   .     A
C243   C340    1.390   1_554 S
C244   O388    1.277   .     A
C244   O412    1.277   .     A
C244   C271    1.423   .     S
C245   O389    1.277   .     A
C245   C270    1.423   .     S
C245   O413    1.277   .     A
C246   O390    1.277   .     A
C246   O419    1.277   .     A
C246   C269    1.422   .     S
C247   O391    1.277   .     A
C247   C268    1.422   .     S
C247   O420    1.277   .     A
C248   O392    1.277   .     A
C248   C276    1.423   .     S
C248   O416    1.277   .     A
C249   O393    1.277   .     A
C249   C274    1.423   .     S
C249   O418    1.277   .     A
C250   O394    1.277   .     A
C250   O405    1.277   .     A
C250   C265    1.423   .     S
C251   C263    1.423   .     S
C251   O407    1.277   .     A
C251   O396    1.277   .     A
C252   O403    1.277   .     A
C252   C262    1.422   .     S
C252   O397    1.277   .     A
C253   O846    1.270   1_545 A
C253   C298    1.461   .     S
C253   O428    1.270   .     S
C254   O404    1.277   .     A
C254   C261    1.422   .     S
C254   O398    1.277   .     A
C255   O399    1.277   .     A
C255   C260    1.423   .     S
C255   O410    1.277   .     A
C256   O411    1.277   .     A
C256   O400    1.277   .     A
C256   C259    1.423   .     S
C257   O401    1.277   .     A
C257   C267    1.422   .     S
C257   O408    1.277   .     A
C258   O409    1.277   .     A
C258   C266    1.422   .     S
C258   O402    1.277   .     A
C259   C276    1.199   .     T
C260   C274    1.199   .     T
C261   C273    1.198   .     T
C262   C272    1.198   .     T
C263   C271    1.199   .     T
C264   O439    1.271   .     A
C264   C294    1.466   .     S
C265   C270    1.199   .     T
C266   C269    1.198   .     T
C267   C268    1.198   .     T
C273   C330    1.422   .     S
C275   C295    1.461   .     S
C275   O376    1.270   .     S
C277   C307    1.412   .     A
C277   O421    1.382   .     S
C277   C58     1.411   1_655 A
C278   O422    1.386   .     S
C278   C309    1.410   .     A
C278   C295    1.410   .     S
C279   C310    1.412   .     A
C279   O423    1.382   .     S
C279   C296    1.411   .     A
C280   C311    1.410   .     A
C280   O424    1.386   .     S
C280   C770    1.410   .     S
C281   C303    1.412   .     A
C281   O425    1.382   .     S
C281   C294    1.411   .     S
C282   C304    1.410   .     A
C282   O426    1.386   .     S
C282   C59     1.410   1_655 A
C283   C305    1.412   .     A
C283   O427    1.382   .     S
C283   C768    1.411   .     S
C284   O429    1.386   .     S
C284   C298    1.410   .     A
C284   C306    1.410   .     A
C285   C299    1.410   .     A
C285   O430    1.386   .     S
C285   C316    1.410   .     A
C286   O381    1.270   .     A
C286   C301    1.461   .     S
C286   O377    1.270   .     S
C287   C317    1.412   .     A
C287   O431    1.382   .     S
C287   C772    1.411   .     S
C288   O432    1.386   .     S
C288   C318    1.410   .     A
C288   C65     1.410   1_655 S
C289   C320    1.412   .     A
C289   C302    1.411   .     A
C289   O433    1.382   .     S
C290   C312    1.410   .     A
C290   O434    1.386   .     S
C290   C771    1.410   .     S
C291   C313    1.412   .     A
C291   O435    1.382   .     S
C291   C300    1.411   .     A
C292   C314    1.410   .     A
C292   C301    1.410   .     A
C292   O436    1.386   .     S
C293   C315    1.412   .     A
C293   O437    1.382   .     S
C293   C66     1.411   1_655 S
C296   C755    1.411   1_545 S
C297   C302    1.466   .     S
C297   O382    1.271   .     A
C297   O378    1.271   .     A
C298   C752    1.410   1_545 S
C299   C308    1.461   .     S
C299   C762    1.410   1_545 S
C300   C319    1.466   .     S
C300   C759    1.411   1_545 S
C303   C329    1.419   .     A
C304   C322    1.420   .     A
C304   C331    1.416   .     A
C305   C332    1.419   .     A
C305   C795    1.422   .     A
C306   C333    1.416   .     A
C306   C324    1.420   .     S
C307   C321    1.422   .     A
C307   C334    1.419   .     A
C308   O379    1.270   .     A
C308   O383    1.270   .     A
C309   C335    1.416   .     A
C310   C336    1.419   .     A
C310   C323    1.422   .     S
C311   C796    1.420   .     A
C311   C337    1.416   .     A
C312   C338    1.416   .     A
C312   C797    1.420   .     S
C313   C326    1.422   .     A
C313   C339    1.419   .     A
C314   C340    1.416   .     A
C314   C327    1.420   .     A
C315   C92     1.422   1_655 S
C316   C325    1.420   .     A
C317   C798    1.422   .     S
C318   C91     1.420   1_655 S
C319   O380    1.271   .     S
C319   O385    1.271   .     S
C320   C328    1.422   .     A
C321   C322    1.419   .     A
C321   C67     1.422   1_655 S
C322   C73     1.420   1_655 S
C323   C324    1.419   .     A
C323   C777    1.422   1_545 A
C324   C783    1.420   1_545 A
C325   C784    1.420   1_545 S
C325   C326    1.419   1_556 S
C326   C789    1.422   1_545 S
C326   C325    1.419   1_554 S
C327   C328    1.419   1_556 S
C328   C327    1.419   1_554 S
C329   C335    1.390   .     A
C329   O438    1.376   .     S
C330   O414    1.277   .     A
C330   O386    1.277   .     A
C331   C334    1.390   .     A
C331   O440    1.379   .     S
C332   C337    1.390   .     A
C332   O441    1.376   .     S
C333   O442    1.379   .     S
C333   C336    1.390   .     A
C334   O443    1.376   .     S
C335   O444    1.379   .     S
C336   O445    1.376   .     S
C337   O446    1.379   .     S
C338   O447    1.379   .     S
C338   C241    1.390   1_556 S
C339   O448    1.376   .     S
C339   C240    1.390   1_554 S
C340   O449    1.379   .     S
C340   C243    1.390   1_556 S
H341   O421    0.990   .     S
H342   O431    0.990   .     S
H343   O432    0.989   .     S
H344   O433    0.990   .     S
H345   O434    0.989   .     S
H346   O435    0.990   .     S
H347   O436    0.989   .     S
H348   O437    0.990   .     S
H349   O438    0.992   .     S
H350   O440    0.992   .     S
H351   O441    0.992   .     S
H352   O422    0.989   .     S
H353   O442    0.992   .     S
H354   O443    0.992   .     S
H355   O444    0.992   .     S
H356   O445    0.992   .     S
H357   O446    0.992   .     S
H358   O447    0.992   .     S
H359   O448    0.992   .     S
H360   O449    0.992   .     S
H361   O451    0.992   .     S
H362   O452    0.992   .     S
H363   O423    0.990   .     S
H364   O453    0.992   .     S
H365   O454    0.992   .     S
H366   O455    0.992   .     S
H367   O424    0.989   .     S
H368   O425    0.990   .     S
H369   O426    0.989   .     S
H370   O427    0.990   .     S
H371   O429    0.989   .     S
H372   O430    0.989   .     S
O373   Zn460   1.936   .     S
O373   Zn468   1.936   .     S
O373   Zn457   1.936   .     S
O373   Zn936   1.936   1_545 S
O374   C725    1.270   .     A
O374   Zn459   1.953   .     S
O375   Zn462   1.953   .     S
O375   C28     1.271   1_655 S
O376   Zn461   1.953   .     S
O377   Zn471   1.953   .     S
O378   Zn470   1.953   .     S
O379   Zn465   1.953   .     S
O380   Zn457   1.953   .     S
O381   Zn467   1.953   .     S
O382   Zn466   1.953   .     S
O383   Zn469   1.953   .     S
O384   Zn463   1.936   .     S
O384   Zn469   1.936   .     S
O384   Zn465   1.936   .     S
O384   Zn931   1.936   1_545 S
O385   Zn468   1.953   .     S
O386   Zn460   1.914   .     S
O387   Zn459   1.914   .     S
O388   Zn462   1.916   .     S
O389   Zn461   1.916   .     S
O390   Zn464   1.914   .     S
O391   Zn463   1.914   .     S
O392   Zn458   1.916   .     S
O393   Zn472   1.916   .     S
O394   Zn459   1.916   .     S
O395   Zn458   1.936   .     S
O395   Zn466   1.936   .     S
O395   Zn470   1.936   .     S
O396   Zn460   1.916   .     S
O397   Zn472   1.914   .     S
O398   Zn458   1.914   .     S
O399   Zn463   1.916   .     S
O400   Zn464   1.916   .     S
O401   Zn461   1.914   .     S
O402   Zn462   1.914   .     S
O403   Zn231   1.914   1_655 S
O404   Zn466   1.914   .     S
O405   Zn941   1.916   .     S
O406   Zn467   1.936   .     S
O406   Zn461   1.936   .     S
O406   Zn471   1.936   .     S
O407   Zn468   1.916   .     S
O408   Zn471   1.914   .     S
O409   Zn234   1.914   1_655 S
O410   Zn465   1.916   .     S
O411   Zn929   1.916   .     S
O412   Zn230   1.916   1_655 S
O413   Zn467   1.916   .     S
O414   Zn457   1.914   .     S
O415   Zn937   1.914   .     S
O416   Zn470   1.916   .     S
O417   Zn464   1.953   .     S
O417   C709    1.271   .     S
O418   Zn235   1.916   1_655 S
O419   Zn940   1.914   .     S
O420   Zn469   1.914   .     S
O428   Zn463   1.953   .     S
O439   Zn458   1.953   .     S
O450   C39     1.270   1_655 A
O450   Zn472   1.953   .     S
O456   Zn460   1.953   .     S
Zn457  O883    1.916   1_545 S
Zn459  O856    1.936   .     S
Zn462  O159    1.936   1_655 S
Zn464  O845    1.936   .     S
Zn465  O887    1.914   1_545 S
Zn468  O891    1.914   1_545 S
Zn469  O877    1.916   1_545 S
Zn472  O170    1.936   1_655 S
C473   O692    1.271   .     A
C473   C532    1.466   .     S
C474   O651    1.277   .     A
C474   C508    1.422   .     S
C474   O623    1.277   .     A
C475   O687    1.376   .     S
C475   C551    1.419   .     A
C475   C478    1.390   1_554 S
C476   C552    1.416   .     A
C476   O688    1.379   .     S
C476   C575    1.390   1_556 S
C477   O689    1.376   .     S
C477   C553    1.419   .     A
C477   C574    1.390   1_554 S
C478   C554    1.416   .     A
C478   O690    1.379   .     S
C478   C475    1.390   1_556 S
C479   O691    1.376   .     S
C479   C556    1.419   .     A
C479   C576    1.390   1_554 S
C480   O624    1.277   .     A
C480   O648    1.277   .     A
C480   C507    1.423   .     S
C481   O625    1.277   .     A
C481   C506    1.423   .     S
C481   O649    1.277   .     A
C482   O626    1.277   .     A
C482   O655    1.277   .     A
C482   C505    1.422   .     S
C483   O627    1.277   .     A
C483   C504    1.422   .     S
C483   O656    1.277   .     A
C484   O628    1.277   .     A
C484   C512    1.423   .     S
C484   O652    1.277   .     A
C485   O629    1.277   .     A
C485   C510    1.423   .     S
C485   O654    1.277   .     A
C486   O630    1.277   .     A
C486   O641    1.277   .     A
C486   C501    1.423   .     S
C487   C499    1.423   .     S
C487   O643    1.277   .     A
C487   O632    1.277   .     A
C488   O639    1.277   .     A
C488   C498    1.422   .     S
C488   O633    1.277   .     A
C489   C534    1.461   .     S
C489   O664    1.270   .     S
C490   O640    1.277   .     A
C490   C497    1.422   .     S
C490   O634    1.277   .     A
C491   O635    1.277   .     A
C491   C496    1.423   .     S
C491   O646    1.277   .     A
C492   O647    1.277   .     A
C492   O636    1.277   .     A
C492   C495    1.423   .     S
C493   O637    1.277   .     A
C493   C503    1.422   .     S
C493   O644    1.277   .     A
C494   O645    1.277   .     A
C494   C502    1.422   .     S
C494   O638    1.277   .     A
C495   C512    1.199   .     T
C496   C510    1.199   .     T
C497   C509    1.198   .     T
C498   C508    1.198   .     T
C499   C507    1.199   .     T
C500   O675    1.271   .     A
C500   C530    1.466   .     S
C500   O847    1.271   1_455 S
C501   C506    1.199   .     T
C502   C505    1.198   .     T
C503   C504    1.198   .     T
C509   C566    1.422   .     S
C511   O922    1.270   1_455 A
C511   C531    1.461   .     S
C511   O612    1.270   .     S
C513   C543    1.412   .     A
C513   O657    1.382   .     S
C513   C766    1.411   .     A
C514   O658    1.386   .     S
C514   C545    1.410   .     A
C514   C531    1.410   .     S
C515   C546    1.412   .     A
C515   O659    1.382   .     S
C515   C532    1.411   .     A
C516   C547    1.410   .     A
C516   O660    1.386   .     S
C516   C62     1.410   1_565 S
C517   C539    1.412   .     A
C517   O661    1.382   .     S
C517   C530    1.411   .     S
C518   C540    1.410   .     A
C518   O662    1.386   .     S
C518   C767    1.410   .     A
C519   C541    1.412   .     A
C519   O663    1.382   .     S
C519   C60     1.411   1_565 S
C520   O665    1.386   .     S
C520   C534    1.410   .     A
C520   C542    1.410   .     A
C521   C535    1.410   .     A
C521   O666    1.386   .     S
C521   C552    1.410   .     A
C522   O617    1.270   .     A
C522   C537    1.461   .     S
C522   O613    1.270   .     S
C523   C553    1.412   .     A
C523   O667    1.382   .     S
C523   C64     1.411   1_565 S
C524   O668    1.386   .     S
C524   C554    1.410   .     A
C524   C773    1.410   .     S
C525   C556    1.412   .     A
C525   C538    1.411   .     A
C525   O669    1.382   .     S
C526   C548    1.410   .     A
C526   O670    1.386   .     S
C526   C63     1.410   1_565 S
C527   C549    1.412   .     A
C527   O671    1.382   .     S
C527   C536    1.411   .     A
C528   C550    1.410   .     A
C528   C537    1.410   .     A
C528   O672    1.386   .     S
C529   C551    1.412   .     A
C529   O673    1.382   .     S
C529   C774    1.411   .     S
C530   C749    1.411   1_455 A
C531   C754    1.410   1_455 A
C533   C538    1.466   .     S
C533   O618    1.271   .     A
C533   O614    1.271   .     A
C535   C544    1.461   .     S
C536   C555    1.466   .     S
C537   C760    1.410   1_455 S
C538   C765    1.411   1_455 S
C539   C565    1.419   .     A
C539   C793    1.422   1_455 S
C540   C558    1.420   .     A
C540   C567    1.416   .     A
C541   C568    1.419   .     A
C541   C87     1.422   1_565 A
C542   C569    1.416   .     A
C542   C560    1.420   .     S
C543   C557    1.422   .     A
C543   C570    1.419   .     A
C544   O615    1.270   .     A
C544   O619    1.270   .     A
C545   C571    1.416   .     A
C545   C794    1.420   1_455 S
C546   C572    1.419   .     A
C546   C559    1.422   .     S
C547   C88     1.420   1_565 A
C547   C573    1.416   .     A
C548   C574    1.416   .     A
C548   C89     1.420   1_565 S
C549   C562    1.422   .     A
C549   C575    1.419   .     A
C550   C576    1.416   .     A
C550   C563    1.420   .     A
C551   C800    1.422   .     S
C552   C561    1.420   .     A
C553   C90     1.422   1_565 S
C554   C799    1.420   .     S
C555   O616    1.271   .     S
C555   O621    1.271   .     S
C556   C564    1.422   .     A
C557   C558    1.419   .     A
C557   C775    1.422   .     S
C558   C781    1.420   .     S
C559   C560    1.419   .     A
C561   C562    1.419   1_556 S
C562   C561    1.419   1_554 S
C563   C790    1.420   1_455 S
C563   C564    1.419   1_556 S
C564   C787    1.422   1_455 S
C564   C563    1.419   1_554 S
C565   C571    1.390   .     A
C565   O674    1.376   .     S
C566   O650    1.277   .     A
C566   O622    1.277   .     A
C567   C570    1.390   .     A
C567   O676    1.379   .     S
C568   C573    1.390   .     A
C568   O677    1.376   .     S
C569   O678    1.379   .     S
C569   C572    1.390   .     A
C570   O679    1.376   .     S
C571   O680    1.379   .     S
C572   O681    1.376   .     S
C573   O682    1.379   .     S
C574   O683    1.379   .     S
C574   C477    1.390   1_556 S
C575   O684    1.376   .     S
C575   C476    1.390   1_554 S
C576   O685    1.379   .     S
C576   C479    1.390   1_556 S
H577   O657    0.990   .     S
H578   O667    0.990   .     S
H579   O668    0.989   .     S
H580   O669    0.990   .     S
H581   O670    0.989   .     S
H582   O671    0.990   .     S
H583   O672    0.989   .     S
H584   O673    0.990   .     S
H585   O674    0.992   .     S
H586   O676    0.992   .     S
H587   O677    0.992   .     S
H588   O658    0.989   .     S
H589   O678    0.992   .     S
H590   O679    0.992   .     S
H591   O680    0.992   .     S
H592   O681    0.992   .     S
H593   O682    0.992   .     S
H594   O683    0.992   .     S
H595   O684    0.992   .     S
H596   O685    0.992   .     S
H597   O687    0.992   .     S
H598   O688    0.992   .     S
H599   O659    0.990   .     S
H600   O689    0.992   .     S
H601   O690    0.992   .     S
H602   O691    0.992   .     S
H603   O660    0.989   .     S
H604   O661    0.990   .     S
H605   O662    0.989   .     S
H606   O663    0.990   .     S
H607   O665    0.989   .     S
H608   O666    0.989   .     S
O609   Zn696   1.936   .     S
O609   Zn704   1.936   .     S
O609   Zn693   1.936   .     S
O610   C17     1.270   1_565 A
O610   Zn695   1.953   .     S
O611   Zn698   1.953   .     S
O611   C736    1.271   .     S
O612   Zn697   1.953   .     S
O613   Zn707   1.953   .     S
O614   Zn706   1.953   .     S
O615   Zn701   1.953   .     S
O616   Zn693   1.953   .     S
O617   Zn703   1.953   .     S
O618   Zn702   1.953   .     S
O619   Zn705   1.953   .     S
O620   Zn699   1.936   .     S
O620   Zn705   1.936   .     S
O620   Zn701   1.936   .     S
O621   Zn704   1.953   .     S
O622   Zn696   1.914   .     S
O623   Zn695   1.914   .     S
O624   Zn698   1.916   .     S
O625   Zn697   1.916   .     S
O626   Zn700   1.914   .     S
O627   Zn699   1.914   .     S
O628   Zn694   1.916   .     S
O629   Zn708   1.916   .     S
O630   Zn695   1.916   .     S
O631   Zn694   1.936   .     S
O631   Zn702   1.936   .     S
O631   Zn706   1.936   .     S
O631   Zn934   1.936   1_455 S
O632   Zn696   1.916   .     S
O633   Zn708   1.914   .     S
O634   Zn694   1.914   .     S
O635   Zn699   1.916   .     S
O636   Zn700   1.916   .     S
O637   Zn697   1.914   .     S
O638   Zn698   1.914   .     S
O639   Zn939   1.914   .     S
O640   Zn702   1.914   .     S
O641   Zn233   1.916   1_565 S
O642   Zn703   1.936   .     S
O642   Zn697   1.936   .     S
O642   Zn707   1.936   .     S
O642   Zn944   1.936   1_455 S
O643   Zn704   1.916   .     S
O644   Zn707   1.914   .     S
O645   Zn942   1.914   .     S
O646   Zn701   1.916   .     S
O647   Zn221   1.916   1_565 S
O648   Zn938   1.916   .     S
O649   Zn703   1.916   .     S
O650   Zn693   1.914   .     S
O651   Zn229   1.914   1_565 S
O652   Zn706   1.916   .     S
O653   Zn700   1.953   .     S
O653   C1      1.271   1_565 S
O654   Zn943   1.916   .     S
O655   Zn232   1.914   1_565 S
O656   Zn705   1.914   .     S
O664   Zn699   1.953   .     S
O675   Zn694   1.953   .     S
O686   C747    1.270   .     A
O686   Zn708   1.953   .     S
O692   Zn696   1.953   .     S
Zn695  O148    1.936   1_565 S
Zn698  O867    1.936   .     S
Zn700  O137    1.936   1_565 S
Zn702  O884    1.916   1_455 S
Zn703  O875    1.914   1_455 S
Zn706  O881    1.914   1_455 S
Zn707  O890    1.916   1_455 S
Zn708  O878    1.936   .     S
C709   O928    1.271   .     A
C709   C768    1.466   .     S
C710   O887    1.277   .     A
C710   C744    1.422   .     S
C710   O859    1.277   .     A
C711   O923    1.376   .     S
C711   C787    1.419   .     A
C711   C714    1.390   1_554 S
C712   C788    1.416   .     A
C712   O924    1.379   .     S
C712   C811    1.390   1_556 S
C713   O925    1.376   .     S
C713   C789    1.419   .     A
C713   C810    1.390   1_554 S
C714   C790    1.416   .     A
C714   O926    1.379   .     S
C714   C711    1.390   1_556 S
C715   O927    1.376   .     S
C715   C792    1.419   .     A
C715   C812    1.390   1_554 S
C716   O860    1.277   .     A
C716   O884    1.277   .     A
C716   C743    1.423   .     S
C717   O861    1.277   .     A
C717   C742    1.423   .     S
C717   O885    1.277   .     A
C718   O862    1.277   .     A
C718   O891    1.277   .     A
C718   C741    1.422   .     S
C719   O863    1.277   .     A
C719   C740    1.422   .     S
C719   O892    1.277   .     A
C720   O864    1.277   .     A
C720   C748    1.423   .     S
C720   O888    1.277   .     A
C721   O865    1.277   .     A
C721   C746    1.423   .     S
C721   O890    1.277   .     A
C722   O866    1.277   .     A
C722   O877    1.277   .     A
C722   C737    1.423   .     S
C723   C735    1.423   .     S
C723   O879    1.277   .     A
C723   O868    1.277   .     A
C724   O875    1.277   .     A
C724   C734    1.422   .     S
C724   O869    1.277   .     A
C725   C770    1.461   .     S
C725   O900    1.270   .     S
C726   O876    1.277   .     A
C726   C733    1.422   .     S
C726   O870    1.277   .     A
C727   O871    1.277   .     A
C727   C732    1.423   .     S
C727   O882    1.277   .     A
C728   O883    1.277   .     A
C728   O872    1.277   .     A
C728   C731    1.423   .     S
C729   O873    1.277   .     A
C729   C739    1.422   .     S
C729   O880    1.277   .     A
C730   O881    1.277   .     A
C730   C738    1.422   .     S
C730   O874    1.277   .     A
C731   C748    1.199   .     T
C732   C746    1.199   .     T
C733   C745    1.198   .     T
C734   C744    1.198   .     T
C735   C743    1.199   .     T
C736   O911    1.271   .     A
C736   C766    1.466   .     S
C737   C742    1.199   .     T
C738   C741    1.198   .     T
C739   C740    1.198   .     T
C745   C802    1.422   .     S
C747   C767    1.461   .     S
C747   O848    1.270   .     S
C749   C779    1.412   .     A
C749   O893    1.382   .     S
C749   C530    1.411   1_655 A
C750   O894    1.386   .     S
C750   C781    1.410   .     A
C750   C767    1.410   .     S
C751   C782    1.412   .     A
C751   O895    1.382   .     S
C751   C768    1.411   .     A
C752   C783    1.410   .     A
C752   O896    1.386   .     S
C752   C298    1.410   1_565 S
C753   C775    1.412   .     A
C753   O897    1.382   .     S
C753   C766    1.411   .     S
C754   C776    1.410   .     A
C754   O898    1.386   .     S
C754   C531    1.410   1_655 A
C755   C777    1.412   .     A
C755   O899    1.382   .     S
C755   C296    1.411   1_565 S
C756   O901    1.386   .     S
C756   C770    1.410   .     A
C756   C778    1.410   .     A
C757   C771    1.410   .     A
C757   O902    1.386   .     S
C757   C788    1.410   .     A
C758   O853    1.270   .     A
C758   C773    1.461   .     S
C758   O849    1.270   .     S
C759   C789    1.412   .     A
C759   O903    1.382   .     S
C759   C300    1.411   1_565 S
C760   O904    1.386   .     S
C760   C790    1.410   .     A
C760   C537    1.410   1_655 S
C761   C792    1.412   .     A
C761   C774    1.411   .     A
C761   O905    1.382   .     S
C762   C784    1.410   .     A
C762   O906    1.386   .     S
C762   C299    1.410   1_565 S
C763   C785    1.412   .     A
C763   O907    1.382   .     S
C763   C772    1.411   .     A
C764   C786    1.410   .     A
C764   C773    1.410   .     A
C764   O908    1.386   .     S
C765   C787    1.412   .     A
C765   O909    1.382   .     S
C765   C538    1.411   1_655 S
C769   C774    1.466   .     S
C769   O854    1.271   .     A
C769   O850    1.271   .     A
C771   C780    1.461   .     S
C772   C791    1.466   .     S
C775   C801    1.419   .     A
C776   C794    1.420   .     A
C776   C803    1.416   .     A
C777   C804    1.419   .     A
C777   C323    1.422   1_565 A
C778   C805    1.416   .     A
C778   C796    1.420   .     S
C779   C793    1.422   .     A
C779   C806    1.419   .     A
C780   O851    1.270   .     A
C780   O855    1.270   .     A
C781   C807    1.416   .     A
C782   C808    1.419   .     A
C782   C795    1.422   .     S
C783   C324    1.420   1_565 A
C783   C809    1.416   .     A
C784   C810    1.416   .     A
C784   C325    1.420   1_565 S
C785   C798    1.422   .     A
C785   C811    1.419   .     A
C786   C812    1.416   .     A
C786   C799    1.420   .     A
C787   C564    1.422   1_655 S
C788   C797    1.420   .     A
C789   C326    1.422   1_565 S
C790   C563    1.420   1_655 S
C791   O852    1.271   .     S
C791   O857    1.271   .     S
C792   C800    1.422   .     A
C793   C794    1.419   .     A
C793   C539    1.422   1_655 S
C794   C545    1.420   1_655 S
C795   C796    1.419   .     A
C797   C798    1.419   1_556 S
C798   C797    1.419   1_554 S
C799   C800    1.419   1_556 S
C800   C799    1.419   1_554 S
C801   C807    1.390   .     A
C801   O910    1.376   .     S
C802   O886    1.277   .     A
C802   O858    1.277   .     A
C803   C806    1.390   .     A
C803   O912    1.379   .     S
C804   C809    1.390   .     A
C804   O913    1.376   .     S
C805   O914    1.379   .     S
C805   C808    1.390   .     A
C806   O915    1.376   .     S
C807   O916    1.379   .     S
C808   O917    1.376   .     S
C809   O918    1.379   .     S
C810   O919    1.379   .     S
C810   C713    1.390   1_556 S
C811   O920    1.376   .     S
C811   C712    1.390   1_554 S
C812   O921    1.379   .     S
C812   C715    1.390   1_556 S
H813   O893    0.990   .     S
H814   O903    0.990   .     S
H815   O904    0.989   .     S
H816   O905    0.990   .     S
H817   O906    0.989   .     S
H818   O907    0.990   .     S
H819   O908    0.989   .     S
H820   O909    0.990   .     S
H821   O910    0.992   .     S
H822   O912    0.992   .     S
H823   O913    0.992   .     S
H824   O894    0.989   .     S
H825   O914    0.992   .     S
H826   O915    0.992   .     S
H827   O916    0.992   .     S
H828   O917    0.992   .     S
H829   O918    0.992   .     S
H830   O919    0.992   .     S
H831   O920    0.992   .     S
H832   O921    0.992   .     S
H833   O923    0.992   .     S
H834   O924    0.992   .     S
H835   O895    0.990   .     S
H836   O925    0.992   .     S
H837   O926    0.992   .     S
H838   O927    0.992   .     S
H839   O896    0.989   .     S
H840   O897    0.990   .     S
H841   O898    0.989   .     S
H842   O899    0.990   .     S
H843   O901    0.989   .     S
H844   O902    0.989   .     S
O845   Zn932   1.936   .     S
O845   Zn940   1.936   .     S
O845   Zn929   1.936   .     S
O846   C253    1.270   1_565 A
O846   Zn931   1.953   .     S
O847   Zn934   1.953   .     S
O847   C500    1.271   1_655 S
O848   Zn933   1.953   .     S
O849   Zn943   1.953   .     S
O850   Zn942   1.953   .     S
O851   Zn937   1.953   .     S
O852   Zn929   1.953   .     S
O853   Zn939   1.953   .     S
O854   Zn938   1.953   .     S
O855   Zn941   1.953   .     S
O856   Zn935   1.936   .     S
O856   Zn941   1.936   .     S
O856   Zn937   1.936   .     S
O857   Zn940   1.953   .     S
O858   Zn932   1.914   .     S
O859   Zn931   1.914   .     S
O860   Zn934   1.916   .     S
O861   Zn933   1.916   .     S
O862   Zn936   1.914   .     S
O863   Zn935   1.914   .     S
O864   Zn930   1.916   .     S
O865   Zn944   1.916   .     S
O866   Zn931   1.916   .     S
O867   Zn930   1.936   .     S
O867   Zn938   1.936   .     S
O867   Zn942   1.936   .     S
O868   Zn932   1.916   .     S
O869   Zn944   1.914   .     S
O870   Zn930   1.914   .     S
O871   Zn935   1.916   .     S
O872   Zn936   1.916   .     S
O873   Zn933   1.914   .     S
O874   Zn934   1.914   .     S
O875   Zn703   1.914   1_655 S
O876   Zn938   1.914   .     S
O877   Zn469   1.916   1_565 S
O878   Zn939   1.936   .     S
O878   Zn933   1.936   .     S
O878   Zn943   1.936   .     S
O879   Zn940   1.916   .     S
O880   Zn943   1.914   .     S
O881   Zn706   1.914   1_655 S
O882   Zn937   1.916   .     S
O883   Zn457   1.916   1_565 S
O884   Zn702   1.916   1_655 S
O885   Zn939   1.916   .     S
O886   Zn929   1.914   .     S
O887   Zn465   1.914   1_565 S
O888   Zn942   1.916   .     S
O889   Zn936   1.953   .     S
O889   C237    1.271   1_565 S
O890   Zn707   1.916   1_655 S
O891   Zn468   1.914   1_565 S
O892   Zn941   1.914   .     S
O900   Zn935   1.953   .     S
O911   Zn930   1.953   .     S
O922   C511    1.270   1_655 A
O922   Zn944   1.953   .     S
O928   Zn932   1.953   .     S
Zn931  O384    1.936   1_565 S
Zn934  O631    1.936   1_655 S
Zn936  O373    1.936   1_565 S
Zn944  O642    1.936   1_655 S
