data_str_m1_o1_o5_pcu_sym.14
_audit_creation_date              2020-01-03
_audit_creation_method            'Materials Studio'
_symmetry_space_group_name_H-M    'P1'
_symmetry_Int_Tables_number       1
_symmetry_cell_setting            triclinic
loop_
_symmetry_equiv_pos_as_xyz
  x,y,z
_cell_length_a                    36.8915
_cell_length_b                    36.7300
_cell_length_c                    22.3300
_cell_angle_alpha                 90.0046
_cell_angle_beta                  89.9961
_cell_angle_gamma                 90.1151
loop_
_atom_site_label
_atom_site_type_symbol
_atom_site_fract_x
_atom_site_fract_y
_atom_site_fract_z
_atom_site_U_iso_or_equiv
_atom_site_adp_type
_atom_site_occupancy
C1     C     0.00003   0.24994   0.02672   0.00000  Uiso   1.00
C2     C     0.49998   0.25000   0.58997   0.00000  Uiso   1.00
C3     C     0.20307   0.12558   0.07250   0.00000  Uiso   1.00
C4     C     0.18997   0.12208   0.00785   0.00000  Uiso   1.00
C5     C     0.28686   0.33395   0.73680   0.00000  Uiso   1.00
C6     C     0.26566   0.35664   0.69125   0.00000  Uiso   1.00
C7     C     0.24574   0.33229   0.64664   0.00000  Uiso   1.00
C8     C     0.10996   0.16465   0.89184   0.00000  Uiso   1.00
C9     C     0.11107   0.19408   0.94020   0.00000  Uiso   1.00
C10    C     0.09350   0.18109   0.99829   0.00000  Uiso   1.00
C11    C     0.33707   0.28832   0.27715   0.00000  Uiso   1.00
C12    C     0.36309   0.27168   0.32305   0.00000  Uiso   1.00
C13    C     0.24999   0.49999   0.40998   0.00000  Uiso   1.00
C14    C     0.34246   0.25390   0.37458   0.00000  Uiso   1.00
C15    C     0.30761   0.15528   0.85186   0.00000  Uiso   1.00
C16    C     0.29175   0.12687   0.89462   0.00000  Uiso   1.00
C17    C     0.29072   0.14109   0.95885   0.00000  Uiso   1.00
C18    C     0.20980   0.33813   0.27766   0.00000  Uiso   1.00
C19    C     0.22950   0.36482   0.31923   0.00000  Uiso   1.00
C20    C     0.24630   0.34518   0.37262   0.00000  Uiso   1.00
C21    C     0.35011   0.30404   0.85152   0.00000  Uiso   1.00
C22    C     0.33066   0.26856   0.86767   0.00000  Uiso   1.00
C23    C     0.31415   0.27038   0.93021   0.00000  Uiso   1.00
C24    C     0.24999   0.49996   0.59002   0.00000  Uiso   1.00
C25    C     0.16759   0.20881   0.23424   0.00000  Uiso   1.00
C26    C     0.15111   0.22852   0.28833   0.00000  Uiso   1.00
C27    C     0.18057   0.24491   0.32804   0.00000  Uiso   1.00
C28    C     0.15071   0.40535   0.89140   0.00000  Uiso   1.00
C29    C     0.17384   0.40982   0.94774   0.00000  Uiso   1.00
C30    C     0.15560   0.43465   0.99347   0.00000  Uiso   1.00
C31    C     0.28677   0.16039   0.28070   0.00000  Uiso   1.00
C32    C     0.26793   0.13159   0.31956   0.00000  Uiso   1.00
C33    C     0.24461   0.14892   0.36814   0.00000  Uiso   1.00
C34    C     0.39805   0.05436   0.65209   0.00000  Uiso   1.00
C35    C     0.24994   0.00000   0.91004   0.00000  Uiso   1.00
C36    C     0.40755   0.01582   0.63239   0.00000  Uiso   1.00
C37    C     0.41469   0.01400   0.56539   0.00000  Uiso   1.00
C38    C     0.09482   0.46228   0.21194   0.00000  Uiso   1.00
C39    C     0.10763   0.00175   0.20667   0.00000  Uiso   1.00
C40    C     0.09669   0.01865   0.14694   0.00000  Uiso   1.00
C41    C     0.07901   0.12647   0.61647   0.00000  Uiso   1.00
C42    C     0.04772   0.12592   0.57160   0.00000  Uiso   1.00
C43    C     0.06073   0.13547   0.50860   0.00000  Uiso   1.00
C44    C     0.46155   0.41170   0.21642   0.00000  Uiso   1.00
C45    C     0.48193   0.38428   0.17727   0.00000  Uiso   1.00
C46    C     0.24996   0.00000   0.08997   0.00000  Uiso   1.00
C47    C     0.00270   0.40325   0.12706   0.00000  Uiso   1.00
C48    C     0.16070   0.39957   0.61149   0.00000  Uiso   1.00
C49    C     0.16576   0.42113   0.55352   0.00000  Uiso   1.00
C50    C     0.19494   0.40429   0.51378   0.00000  Uiso   1.00
C51    C     0.41114   0.04047   0.21139   0.00000  Uiso   1.00
C52    C     0.38492   0.01996   0.16973   0.00000  Uiso   1.00
C53    C     0.37045   0.04408   0.11942   0.00000  Uiso   1.00
C54    C     0.42876   0.37996   0.62733   0.00000  Uiso   1.00
C55    C     0.46323   0.37651   0.58975   0.00000  Uiso   1.00
C56    C     0.45504   0.36072   0.52792   0.00000  Uiso   1.00
C57    C     0.00001   0.24995   0.90998   0.00000  Uiso   1.00
C58    C     0.04532   0.08372   0.30447   0.00000  Uiso   1.00
C59    C     0.02886   0.08719   0.24152   0.00000  Uiso   1.00
C60    C     0.00804   0.05277   0.22480   0.00000  Uiso   1.00
C61    C     0.40098   0.44908   0.33975   0.00000  Uiso   1.00
C62    C     0.40762   0.48888   0.35576   0.00000  Uiso   1.00
C63    C     0.41699   0.49329   0.42166   0.00000  Uiso   1.00
C64    C     0.08703   0.03680   0.71721   0.00000  Uiso   1.00
C65    C     0.10223   0.01886   0.77426   0.00000  Uiso   1.00
C66    C     0.07744   0.48875   0.79744   0.00000  Uiso   1.00
C67    C     0.05342   0.40121   0.34520   0.00000  Uiso   1.00
C68    C     0.00001   0.24998   0.09002   0.00000  Uiso   1.00
C69    C     0.01438   0.40835   0.36468   0.00000  Uiso   1.00
C70    C     0.01252   0.41983   0.43029   0.00000  Uiso   1.00
C71    C     0.46142   0.09126   0.78057   0.00000  Uiso   1.00
C72    C     0.00138   0.10171   0.78490   0.00000  Uiso   1.00
C73    C     0.01978   0.08399   0.83862   0.00000  Uiso   1.00
C74    C     0.14035   0.08479   0.38971   0.00000  Uiso   1.00
C75    C     0.13979   0.05582   0.43884   0.00000  Uiso   1.00
C76    C     0.16001   0.06859   0.49469   0.00000  Uiso   1.00
C77    C     0.41232   0.45970   0.76864   0.00000  Uiso   1.00
C78    C     0.38650   0.47853   0.81260   0.00000  Uiso   1.00
C79    C     0.07036   0.18016   0.25091   0.00000  Uiso   1.00
C80    C     0.40724   0.49887   0.86136   0.00000  Uiso   1.00
C81    C     0.44233   0.09360   0.34806   0.00000  Uiso   1.00
C82    C     0.45767   0.12176   0.39178   0.00000  Uiso   1.00
C83    C     0.45982   0.10646   0.45526   0.00000  Uiso   1.00
C84    C     0.05440   0.40658   0.65625   0.00000  Uiso   1.00
C85    C     0.02773   0.40926   0.70890   0.00000  Uiso   1.00
C86    C     0.00587   0.44448   0.70615   0.00000  Uiso   1.00
C87    C     0.42943   0.31964   0.74885   0.00000  Uiso   1.00
C88    C     0.17984   0.43019   0.24955   0.00000  Uiso   1.00
C89    C     0.00003   0.24992   0.97328   0.00000  Uiso   1.00
C90    C     0.32018   0.07006   0.75039   0.00000  Uiso   1.00
C91    C     0.42999   0.32002   0.24997   0.00000  Uiso   1.00
C92    C     0.06962   0.17946   0.75084   0.00000  Uiso   1.00
C93    C     0.31988   0.07008   0.24988   0.00000  Uiso   1.00
C94    C     0.18009   0.42994   0.75000   0.00000  Uiso   1.00
C95    C     0.07007   0.32020   0.75006   0.00000  Uiso   1.00
C96    C     0.42968   0.18007   0.25062   0.00000  Uiso   1.00
C97    C     0.17962   0.06979   0.75085   0.00000  Uiso   1.00
C98    C     0.32017   0.42995   0.24965   0.00000  Uiso   1.00
C99    C     0.43006   0.17998   0.75001   0.00000  Uiso   1.00
C100   C     0.24989   0.00000   0.02670   0.00000  Uiso   1.00
C101   C     0.06986   0.32037   0.24939   0.00000  Uiso   1.00
C102   C     0.31985   0.42980   0.74985   0.00000  Uiso   1.00
C103   C     0.18022   0.07033   0.25054   0.00000  Uiso   1.00
C104   C     0.13303   0.34072   0.22801   0.00000  Uiso   1.00
C105   C     0.36605   0.16154   0.76283   0.00000  Uiso   1.00
C106   C     0.33962   0.36589   0.23201   0.00000  Uiso   1.00
C107   C     0.15394   0.12782   0.79037   0.00000  Uiso   1.00
C108   C     0.36536   0.16135   0.23489   0.00000  Uiso   1.00
C109   C     0.12429   0.34931   0.79666   0.00000  Uiso   1.00
C110   C     0.15592   0.12962   0.21458   0.00000  Uiso   1.00
C111   C     0.24989   0.00000   0.97330   0.00000  Uiso   1.00
C112   C     0.33821   0.36540   0.76550   0.00000  Uiso   1.00
C113   C     0.12481   0.15182   0.79548   0.00000  Uiso   1.00
C114   C     0.36582   0.33848   0.23762   0.00000  Uiso   1.00
C115   C     0.34022   0.13387   0.77070   0.00000  Uiso   1.00
C116   C     0.16067   0.36631   0.23566   0.00000  Uiso   1.00
C117   C     0.36581   0.33912   0.77052   0.00000  Uiso   1.00
C118   C     0.13176   0.15851   0.22197   0.00000  Uiso   1.00
C119   C     0.14843   0.37867   0.79959   0.00000  Uiso   1.00
C120   C     0.33792   0.13484   0.23951   0.00000  Uiso   1.00
C121   C     0.38392   0.08964   0.73229   0.00000  Uiso   1.00
C122   C     0.24995   0.49994   0.52672   0.00000  Uiso   1.00
C123   C     0.11558   0.41199   0.26135   0.00000  Uiso   1.00
C124   C     0.09362   0.11971   0.71479   0.00000  Uiso   1.00
C125   C     0.41165   0.38459   0.25937   0.00000  Uiso   1.00
C126   C     0.12977   0.39756   0.69953   0.00000  Uiso   1.00
C127   C     0.38377   0.08870   0.25896   0.00000  Uiso   1.00
C128   C     0.40751   0.38163   0.72226   0.00000  Uiso   1.00
C129   C     0.09495   0.12103   0.28861   0.00000  Uiso   1.00
C130   C     0.38440   0.41100   0.26412   0.00000  Uiso   1.00
C131   C     0.11832   0.09112   0.72046   0.00000  Uiso   1.00
C132   C     0.08918   0.38470   0.26661   0.00000  Uiso   1.00
C133   C     0.24995   0.49996   0.47328   0.00000  Uiso   1.00
C134   C     0.41119   0.11596   0.73692   0.00000  Uiso   1.00
C135   C     0.12410   0.09695   0.29378   0.00000  Uiso   1.00
C136   C     0.38287   0.40974   0.73136   0.00000  Uiso   1.00
C137   C     0.40963   0.11611   0.26811   0.00000  Uiso   1.00
C138   C     0.10002   0.37404   0.70283   0.00000  Uiso   1.00
C139   C     0.15170   0.40240   0.24921   0.00000  Uiso   1.00
C140   C     0.34843   0.09821   0.75115   0.00000  Uiso   1.00
C141   C     0.40206   0.34809   0.24931   0.00000  Uiso   1.00
C142   C     0.09630   0.15001   0.75357   0.00000  Uiso   1.00
C143   C     0.34755   0.09833   0.24950   0.00000  Uiso   1.00
C144   C     0.49996   0.25000   0.52671   0.00000  Uiso   1.00
C145   C     0.15246   0.40166   0.74968   0.00000  Uiso   1.00
C146   C     0.09918   0.15275   0.25348   0.00000  Uiso   1.00
C147   C     0.40055   0.34705   0.74718   0.00000  Uiso   1.00
C148   C     0.15035   0.09665   0.75385   0.00000  Uiso   1.00
C149   C     0.34841   0.40191   0.24870   0.00000  Uiso   1.00
C150   C     0.40199   0.15215   0.74959   0.00000  Uiso   1.00
C151   C     0.09765   0.34892   0.24814   0.00000  Uiso   1.00
C152   C     0.34742   0.40135   0.74957   0.00000  Uiso   1.00
C153   C     0.15299   0.09916   0.25255   0.00000  Uiso   1.00
C154   C     0.09841   0.34828   0.74989   0.00000  Uiso   1.00
C155   C     0.49996   0.25000   0.47330   0.00000  Uiso   1.00
C156   C     0.40117   0.15218   0.25152   0.00000  Uiso   1.00
C157   C     0.14141   0.31167   0.13967   0.00000  Uiso   1.00
C158   C     0.15050   0.27537   0.10993   0.00000  Uiso   1.00
C159   C     0.14819   0.27802   0.04181   0.00000  Uiso   1.00
C160   C     0.33914   0.21167   0.72070   0.00000  Uiso   1.00
C161   C     0.36653   0.23043   0.67929   0.00000  Uiso   1.00
C162   C     0.34767   0.24939   0.62713   0.00000  Uiso   1.00
C163   C     0.30368   0.35147   0.15251   0.00000  Uiso   1.00
C164   C     0.26443   0.34568   0.13278   0.00000  Uiso   1.00
C165   C     0.26174   0.33900   0.06546   0.00000  Uiso   1.00
C166   C     0.49998   0.25000   0.41004   0.00000  Uiso   1.00
C167   C     0.20409   0.16454   0.80322   0.00000  Uiso   1.00
C168   C     0.22214   0.15795   0.74214   0.00000  Uiso   1.00
C169   C     0.24209   0.19195   0.72078   0.00000  Uiso   1.00
C170   C     0.34170   0.20038   0.16330   0.00000  Uiso   1.00
C171   C     0.36668   0.22361   0.12424   0.00000  Uiso   1.00
C172   C     0.34924   0.23245   0.06419   0.00000  Uiso   1.00
C173   C     0.15558   0.30495   0.84991   0.00000  Uiso   1.00
C174   C     0.15119   0.26553   0.82860   0.00000  Uiso   1.00
C175   C     0.15632   0.26196   0.76092   0.00000  Uiso   1.00
C176   C     0.17119   0.12892   0.11586   0.00000  Uiso   1.00
H177   H     0.16216   0.33204   0.12550   0.00000  Uiso   1.00
H178   H     0.38229   0.25090   0.70513   0.00000  Uiso   1.00
H179   H     0.14551   0.43277   0.87182   0.00000  Uiso   1.00
H180   H     0.17850   0.38267   0.96836   0.00000  Uiso   1.00
H181   H     0.20058   0.42162   0.93539   0.00000  Uiso   1.00
H182   H     0.15141   0.46220   0.97418   0.00000  Uiso   1.00
H183   H     0.17312   0.43721   0.03370   0.00000  Uiso   1.00
H184   H     0.12904   0.42309   0.00731   0.00000  Uiso   1.00
H185   H     0.26618   0.18033   0.26520   0.00000  Uiso   1.00
H186   H     0.30674   0.17602   0.30805   0.00000  Uiso   1.00
H187   H     0.25033   0.11419   0.29104   0.00000  Uiso   1.00
H188   H     0.28869   0.11411   0.34116   0.00000  Uiso   1.00
H189   H     0.38561   0.20993   0.66091   0.00000  Uiso   1.00
H190   H     0.26108   0.16776   0.39601   0.00000  Uiso   1.00
H191   H     0.23316   0.12731   0.39739   0.00000  Uiso   1.00
H192   H     0.22182   0.16404   0.34744   0.00000  Uiso   1.00
H193   H     0.42066   0.07275   0.63866   0.00000  Uiso   1.00
H194   H     0.37281   0.06297   0.62857   0.00000  Uiso   1.00
H195   H     0.43227   0.00665   0.65633   0.00000  Uiso   1.00
H196   H     0.38467   0.49732   0.64349   0.00000  Uiso   1.00
H197   H     0.39015   0.02254   0.54028   0.00000  Uiso   1.00
H198   H     0.42157   0.48557   0.55294   0.00000  Uiso   1.00
H199   H     0.43779   0.03196   0.55305   0.00000  Uiso   1.00
H200   H     0.33242   0.22926   0.59981   0.00000  Uiso   1.00
H201   H     0.06472   0.46144   0.20980   0.00000  Uiso   1.00
H202   H     0.10577   0.44694   0.17262   0.00000  Uiso   1.00
H203   H     0.09601   0.01803   0.24385   0.00000  Uiso   1.00
H204   H     0.13763   0.00258   0.21029   0.00000  Uiso   1.00
H205   H     0.11015   0.00414   0.10940   0.00000  Uiso   1.00
H206   H     0.10521   0.04767   0.14598   0.00000  Uiso   1.00
H207   H     0.06687   0.01723   0.14074   0.00000  Uiso   1.00
H208   H     0.10002   0.10676   0.60131   0.00000  Uiso   1.00
H209   H     0.09090   0.15442   0.61725   0.00000  Uiso   1.00
H210   H     0.03520   0.09837   0.57092   0.00000  Uiso   1.00
H211   H     0.36824   0.26280   0.59824   0.00000  Uiso   1.00
H212   H     0.02675   0.14586   0.58568   0.00000  Uiso   1.00
H213   H     0.07322   0.16302   0.50808   0.00000  Uiso   1.00
H214   H     0.03745   0.13530   0.47714   0.00000  Uiso   1.00
H215   H     0.08088   0.11517   0.49297   0.00000  Uiso   1.00
H216   H     0.48092   0.43293   0.23174   0.00000  Uiso   1.00
H217   H     0.44062   0.42609   0.18919   0.00000  Uiso   1.00
H218   H     0.00137   0.36871   0.20525   0.00000  Uiso   1.00
H219   H     0.46230   0.36480   0.15724   0.00000  Uiso   1.00
H220   H     0.48378   0.41883   0.09813   0.00000  Uiso   1.00
H221   H     0.01675   0.38258   0.09923   0.00000  Uiso   1.00
H222   H     0.32867   0.27043   0.64390   0.00000  Uiso   1.00
H223   H     0.02333   0.42205   0.14599   0.00000  Uiso   1.00
H224   H     0.15097   0.37166   0.60001   0.00000  Uiso   1.00
H225   H     0.18736   0.39767   0.63469   0.00000  Uiso   1.00
H226   H     0.13969   0.42181   0.52858   0.00000  Uiso   1.00
H227   H     0.17365   0.44959   0.56441   0.00000  Uiso   1.00
H228   H     0.22153   0.40456   0.53713   0.00000  Uiso   1.00
H229   H     0.19749   0.42032   0.47180   0.00000  Uiso   1.00
H230   H     0.18764   0.37582   0.50204   0.00000  Uiso   1.00
H231   H     0.43211   0.02066   0.22550   0.00000  Uiso   1.00
H232   H     0.42609   0.06238   0.18699   0.00000  Uiso   1.00
H233   H     0.31966   0.32701   0.13967   0.00000  Uiso   1.00
H234   H     0.39944   0.49669   0.14883   0.00000  Uiso   1.00
H235   H     0.36195   0.00842   0.19580   0.00000  Uiso   1.00
H236   H     0.35637   0.06829   0.13755   0.00000  Uiso   1.00
H237   H     0.35092   0.02832   0.09179   0.00000  Uiso   1.00
H238   H     0.39307   0.05326   0.09024   0.00000  Uiso   1.00
H239   H     0.41172   0.40216   0.60842   0.00000  Uiso   1.00
H240   H     0.41353   0.35371   0.62373   0.00000  Uiso   1.00
H241   H     0.47584   0.40376   0.58424   0.00000  Uiso   1.00
H242   H     0.48280   0.35834   0.61284   0.00000  Uiso   1.00
H243   H     0.44222   0.33344   0.53210   0.00000  Uiso   1.00
H244   H     0.31470   0.37573   0.12851   0.00000  Uiso   1.00
H245   H     0.48064   0.35756   0.50242   0.00000  Uiso   1.00
H246   H     0.43666   0.37912   0.50275   0.00000  Uiso   1.00
H247   H     0.02305   0.07910   0.33694   0.00000  Uiso   1.00
H248   H     0.06252   0.05907   0.30721   0.00000  Uiso   1.00
H249   H     0.01031   0.11096   0.24008   0.00000  Uiso   1.00
H250   H     0.05061   0.09144   0.20781   0.00000  Uiso   1.00
H251   H     0.02643   0.02890   0.22435   0.00000  Uiso   1.00
H252   H     0.49588   0.05596   0.17964   0.00000  Uiso   1.00
H253   H     0.48621   0.04761   0.25779   0.00000  Uiso   1.00
H254   H     0.42561   0.43325   0.35178   0.00000  Uiso   1.00
H255   H     0.25288   0.32181   0.15676   0.00000  Uiso   1.00
H256   H     0.37755   0.43889   0.36661   0.00000  Uiso   1.00
H257   H     0.43040   0.49969   0.32847   0.00000  Uiso   1.00
H258   H     0.38274   0.00478   0.34601   0.00000  Uiso   1.00
H259   H     0.39457   0.48245   0.44969   0.00000  Uiso   1.00
H260   H     0.42088   0.02262   0.43194   0.00000  Uiso   1.00
H261   H     0.44243   0.47857   0.43241   0.00000  Uiso   1.00
H262   H     0.07938   0.01498   0.68513   0.00000  Uiso   1.00
H263   H     0.06171   0.05181   0.72768   0.00000  Uiso   1.00
H264   H     0.12901   0.00653   0.76485   0.00000  Uiso   1.00
H265   H     0.10554   0.03975   0.80985   0.00000  Uiso   1.00
H266   H     0.24826   0.37018   0.14440   0.00000  Uiso   1.00
H267   H     0.04929   0.49884   0.80287   0.00000  Uiso   1.00
H268   H     0.08745   0.47901   0.84150   0.00000  Uiso   1.00
H269   H     0.07771   0.46546   0.76581   0.00000  Uiso   1.00
H270   H     0.06991   0.42575   0.35597   0.00000  Uiso   1.00
H271   H     0.06399   0.37756   0.37118   0.00000  Uiso   1.00
H272   H     0.00263   0.43040   0.33673   0.00000  Uiso   1.00
H273   H     0.49801   0.38321   0.35820   0.00000  Uiso   1.00
H274   H     0.02540   0.39898   0.45928   0.00000  Uiso   1.00
H275   H     0.48376   0.42300   0.44388   0.00000  Uiso   1.00
H276   H     0.02663   0.44629   0.43680   0.00000  Uiso   1.00
H277   H     0.27253   0.36277   0.04035   0.00000  Uiso   1.00
H278   H     0.45901   0.06113   0.77797   0.00000  Uiso   1.00
H279   H     0.44765   0.10087   0.82230   0.00000  Uiso   1.00
H280   H     0.01524   0.09307   0.74329   0.00000  Uiso   1.00
H281   H     0.00380   0.13176   0.78896   0.00000  Uiso   1.00
H282   H     0.00719   0.09362   0.88092   0.00000  Uiso   1.00
H283   H     0.04899   0.09141   0.83900   0.00000  Uiso   1.00
H284   H     0.01736   0.05391   0.83595   0.00000  Uiso   1.00
H285   H     0.12573   0.10936   0.40621   0.00000  Uiso   1.00
H286   H     0.16909   0.09217   0.37997   0.00000  Uiso   1.00
H287   H     0.11123   0.04948   0.45090   0.00000  Uiso   1.00
H288   H     0.11423   0.32069   0.12369   0.00000  Uiso   1.00
H289   H     0.23290   0.33491   0.05283   0.00000  Uiso   1.00
H290   H     0.15271   0.03052   0.42190   0.00000  Uiso   1.00
H291   H     0.18895   0.07391   0.48396   0.00000  Uiso   1.00
H292   H     0.15865   0.04713   0.52966   0.00000  Uiso   1.00
H293   H     0.14755   0.09383   0.51267   0.00000  Uiso   1.00
H294   H     0.43162   0.48036   0.75135   0.00000  Uiso   1.00
H295   H     0.42905   0.43904   0.79271   0.00000  Uiso   1.00
H296   H     0.36912   0.49815   0.78802   0.00000  Uiso   1.00
H297   H     0.36881   0.45789   0.83428   0.00000  Uiso   1.00
H298   H     0.42465   0.47974   0.88693   0.00000  Uiso   1.00
H299   H     0.38774   0.01176   0.89272   0.00000  Uiso   1.00
H300   H     0.27724   0.31425   0.05283   0.00000  Uiso   1.00
H301   H     0.42439   0.02052   0.84133   0.00000  Uiso   1.00
H302   H     0.45904   0.06856   0.35028   0.00000  Uiso   1.00
H303   H     0.41464   0.08561   0.36351   0.00000  Uiso   1.00
H304   H     0.48522   0.13025   0.37715   0.00000  Uiso   1.00
H305   H     0.43988   0.14615   0.39200   0.00000  Uiso   1.00
H306   H     0.43261   0.09743   0.47065   0.00000  Uiso   1.00
H307   H     0.46981   0.12787   0.48626   0.00000  Uiso   1.00
H308   H     0.47880   0.08302   0.45677   0.00000  Uiso   1.00
H309   H     0.03874   0.40712   0.61386   0.00000  Uiso   1.00
H310   H     0.07197   0.43116   0.65516   0.00000  Uiso   1.00
H311   H     0.22554   0.17088   0.83647   0.00000  Uiso   1.00
H312   H     0.00889   0.38570   0.70814   0.00000  Uiso   1.00
H313   H     0.04279   0.40864   0.75195   0.00000  Uiso   1.00
H314   H     0.02403   0.46848   0.70239   0.00000  Uiso   1.00
H315   H     0.48972   0.44722   0.74774   0.00000  Uiso   1.00
H316   H     0.48723   0.44424   0.66718   0.00000  Uiso   1.00
H317   H     0.18673   0.18910   0.80116   0.00000  Uiso   1.00
H318   H     0.24150   0.13497   0.74572   0.00000  Uiso   1.00
H319   H     0.20141   0.15077   0.70804   0.00000  Uiso   1.00
H320   H     0.22257   0.21437   0.71266   0.00000  Uiso   1.00
H321   H     0.25648   0.18596   0.67825   0.00000  Uiso   1.00
H322   H     0.26210   0.20088   0.75485   0.00000  Uiso   1.00
H323   H     0.31502   0.21414   0.16753   0.00000  Uiso   1.00
H324   H     0.17850   0.26734   0.12247   0.00000  Uiso   1.00
H325   H     0.33697   0.17393   0.13982   0.00000  Uiso   1.00
H326   H     0.37330   0.24944   0.14773   0.00000  Uiso   1.00
H327   H     0.39225   0.20855   0.11583   0.00000  Uiso   1.00
H328   H     0.34198   0.20704   0.03996   0.00000  Uiso   1.00
H329   H     0.36886   0.24806   0.03656   0.00000  Uiso   1.00
H330   H     0.32450   0.24916   0.07088   0.00000  Uiso   1.00
H331   H     0.16217   0.30437   0.89844   0.00000  Uiso   1.00
H332   H     0.17956   0.31738   0.82731   0.00000  Uiso   1.00
H333   H     0.17185   0.24835   0.85118   0.00000  Uiso   1.00
H334   H     0.12407   0.25506   0.84158   0.00000  Uiso   1.00
H335   H     0.13130   0.25409   0.12576   0.00000  Uiso   1.00
H336   H     0.13739   0.27992   0.73632   0.00000  Uiso   1.00
H337   H     0.15101   0.23345   0.74694   0.00000  Uiso   1.00
H338   H     0.18454   0.26929   0.74841   0.00000  Uiso   1.00
H339   H     0.15473   0.15303   0.10287   0.00000  Uiso   1.00
H340   H     0.15424   0.10381   0.11181   0.00000  Uiso   1.00
H341   H     0.22074   0.15001   0.07643   0.00000  Uiso   1.00
H342   H     0.21935   0.10117   0.08431   0.00000  Uiso   1.00
H343   H     0.17149   0.09835   0.00307   0.00000  Uiso   1.00
H344   H     0.21346   0.11809   0.97756   0.00000  Uiso   1.00
H345   H     0.17556   0.14721   0.99404   0.00000  Uiso   1.00
H346   H     0.12007   0.28457   0.02771   0.00000  Uiso   1.00
H347   H     0.26768   0.31537   0.76010   0.00000  Uiso   1.00
H348   H     0.30666   0.31622   0.71300   0.00000  Uiso   1.00
H349   H     0.24562   0.37397   0.71502   0.00000  Uiso   1.00
H350   H     0.28467   0.37465   0.66641   0.00000  Uiso   1.00
H351   H     0.26520   0.31428   0.62299   0.00000  Uiso   1.00
H352   H     0.23170   0.34936   0.61288   0.00000  Uiso   1.00
H353   H     0.22523   0.31533   0.67018   0.00000  Uiso   1.00
H354   H     0.12518   0.14042   0.90822   0.00000  Uiso   1.00
H355   H     0.08113   0.15690   0.88364   0.00000  Uiso   1.00
H356   H     0.13973   0.20171   0.94912   0.00000  Uiso   1.00
H357   H     0.15601   0.25155   0.02168   0.00000  Uiso   1.00
H358   H     0.09651   0.21866   0.92413   0.00000  Uiso   1.00
H359   H     0.06438   0.17484   0.99075   0.00000  Uiso   1.00
H360   H     0.09559   0.20282   0.03273   0.00000  Uiso   1.00
H361   H     0.10737   0.15635   0.01527   0.00000  Uiso   1.00
H362   H     0.31885   0.26652   0.26016   0.00000  Uiso   1.00
H363   H     0.31928   0.30879   0.29928   0.00000  Uiso   1.00
H364   H     0.38034   0.25091   0.30083   0.00000  Uiso   1.00
H365   H     0.38097   0.29327   0.34160   0.00000  Uiso   1.00
H366   H     0.32591   0.27451   0.39857   0.00000  Uiso   1.00
H367   H     0.36200   0.24176   0.40665   0.00000  Uiso   1.00
H368   H     0.16694   0.29938   0.02489   0.00000  Uiso   1.00
H369   H     0.32440   0.23205   0.35750   0.00000  Uiso   1.00
H370   H     0.29116   0.18053   0.85458   0.00000  Uiso   1.00
H371   H     0.33538   0.16261   0.86774   0.00000  Uiso   1.00
H372   H     0.26381   0.11956   0.88029   0.00000  Uiso   1.00
H373   H     0.30873   0.10193   0.89323   0.00000  Uiso   1.00
H374   H     0.31836   0.14892   0.97389   0.00000  Uiso   1.00
H375   H     0.28038   0.11945   0.98911   0.00000  Uiso   1.00
H376   H     0.27255   0.16510   0.96204   0.00000  Uiso   1.00
H377   H     0.22952   0.31733   0.26225   0.00000  Uiso   1.00
H378   H     0.18843   0.32332   0.30336   0.00000  Uiso   1.00
H379   H     0.31931   0.23237   0.73602   0.00000  Uiso   1.00
H380   H     0.25114   0.37920   0.29394   0.00000  Uiso   1.00
H381   H     0.21003   0.38533   0.33643   0.00000  Uiso   1.00
H382   H     0.22484   0.33180   0.39977   0.00000  Uiso   1.00
H383   H     0.26082   0.36514   0.40131   0.00000  Uiso   1.00
H384   H     0.26589   0.32430   0.35719   0.00000  Uiso   1.00
H385   H     0.33274   0.32723   0.86578   0.00000  Uiso   1.00
H386   H     0.37603   0.30564   0.87686   0.00000  Uiso   1.00
H387   H     0.30858   0.26322   0.83493   0.00000  Uiso   1.00
H388   H     0.35026   0.24566   0.86556   0.00000  Uiso   1.00
H389   H     0.33481   0.27939   0.96311   0.00000  Uiso   1.00
H390   H     0.32343   0.19079   0.69521   0.00000  Uiso   1.00
H391   H     0.30381   0.24309   0.94327   0.00000  Uiso   1.00
H392   H     0.29123   0.28995   0.93085   0.00000  Uiso   1.00
H393   H     0.18197   0.22914   0.20625   0.00000  Uiso   1.00
H394   H     0.18884   0.18930   0.24936   0.00000  Uiso   1.00
H395   H     0.13280   0.25043   0.27239   0.00000  Uiso   1.00
H396   H     0.13489   0.20924   0.31574   0.00000  Uiso   1.00
H397   H     0.19519   0.22305   0.35225   0.00000  Uiso   1.00
H398   H     0.16812   0.26343   0.36149   0.00000  Uiso   1.00
H399   H     0.20039   0.26042   0.30073   0.00000  Uiso   1.00
H400   H     0.12442   0.39251   0.90423   0.00000  Uiso   1.00
O401   O     0.00000   0.25000   0.25000   0.00000  Uiso   1.00
O402   O     0.00000   0.28036   0.61781   0.00000  Uiso   1.00
O403   O     0.21965   0.00000   0.38219   0.00000  Uiso   1.00
O404   O     0.28036   0.00000   0.61781   0.00000  Uiso   1.00
O405   O     0.25000   0.03036   0.88219   0.00000  Uiso   1.00
O406   O     0.25000   0.46965   0.11781   0.00000  Uiso   1.00
O407   O     0.03036   0.25000   0.88219   0.00000  Uiso   1.00
O408   O     0.46965   0.25000   0.11781   0.00000  Uiso   1.00
O409   O     0.25000   0.46965   0.88219   0.00000  Uiso   1.00
O410   O     0.25000   0.03036   0.11781   0.00000  Uiso   1.00
O411   O     0.46965   0.25000   0.88219   0.00000  Uiso   1.00
O412   O     0.00000   0.25000   0.75000   0.00000  Uiso   1.00
O413   O     0.03036   0.25000   0.11781   0.00000  Uiso   1.00
O414   O     0.04268   0.17693   0.28474   0.00000  Uiso   1.00
O415   O     0.45733   0.32308   0.71526   0.00000  Uiso   1.00
O416   O     0.17693   0.45733   0.28474   0.00000  Uiso   1.00
O417   O     0.32308   0.04268   0.71526   0.00000  Uiso   1.00
O418   O     0.45733   0.32308   0.28474   0.00000  Uiso   1.00
O419   O     0.04268   0.17693   0.71526   0.00000  Uiso   1.00
O420   O     0.32308   0.04268   0.28474   0.00000  Uiso   1.00
O421   O     0.17693   0.45733   0.71526   0.00000  Uiso   1.00
O422   O     0.04268   0.32308   0.71526   0.00000  Uiso   1.00
O423   O     0.25000   0.00000   0.25000   0.00000  Uiso   1.00
O424   O     0.45733   0.17693   0.28474   0.00000  Uiso   1.00
O425   O     0.17693   0.04268   0.71526   0.00000  Uiso   1.00
O426   O     0.32308   0.45733   0.28474   0.00000  Uiso   1.00
O427   O     0.45733   0.17693   0.71526   0.00000  Uiso   1.00
O428   O     0.04268   0.32308   0.28474   0.00000  Uiso   1.00
O429   O     0.32308   0.45733   0.71526   0.00000  Uiso   1.00
O430   O     0.17693   0.04268   0.28474   0.00000  Uiso   1.00
O431   O     0.29268   0.42693   0.78474   0.00000  Uiso   1.00
O432   O     0.20733   0.07308   0.21526   0.00000  Uiso   1.00
O433   O     0.42693   0.20733   0.78474   0.00000  Uiso   1.00
O434   O     0.25000   0.00000   0.75000   0.00000  Uiso   1.00
O435   O     0.07308   0.29268   0.21526   0.00000  Uiso   1.00
O436   O     0.20733   0.07308   0.78474   0.00000  Uiso   1.00
O437   O     0.29268   0.42693   0.21526   0.00000  Uiso   1.00
O438   O     0.07308   0.29268   0.78474   0.00000  Uiso   1.00
O439   O     0.42693   0.20733   0.21526   0.00000  Uiso   1.00
O440   O     0.29268   0.07308   0.21526   0.00000  Uiso   1.00
O441   O     0.20733   0.42693   0.78474   0.00000  Uiso   1.00
O442   O     0.42693   0.29268   0.21526   0.00000  Uiso   1.00
O443   O     0.07308   0.20733   0.78474   0.00000  Uiso   1.00
O444   O     0.20733   0.42693   0.21526   0.00000  Uiso   1.00
O445   O     0.00000   0.28036   0.38219   0.00000  Uiso   1.00
O446   O     0.29268   0.07308   0.78474   0.00000  Uiso   1.00
O447   O     0.07308   0.20733   0.21526   0.00000  Uiso   1.00
O448   O     0.42693   0.29268   0.78474   0.00000  Uiso   1.00
O449   O     0.14131   0.30737   0.20270   0.00000  Uiso   1.00
O450   O     0.35660   0.19760   0.77223   0.00000  Uiso   1.00
O451   O     0.30460   0.35679   0.21524   0.00000  Uiso   1.00
O452   O     0.18506   0.13343   0.82412   0.00000  Uiso   1.00
O453   O     0.35674   0.19722   0.22155   0.00000  Uiso   1.00
O454   O     0.12255   0.32442   0.84345   0.00000  Uiso   1.00
O455   O     0.18455   0.13314   0.17481   0.00000  Uiso   1.00
O456   O     0.00000   0.21965   0.61781   0.00000  Uiso   1.00
O457   O     0.30272   0.35680   0.78072   0.00000  Uiso   1.00
O458   O     0.12588   0.17857   0.83907   0.00000  Uiso   1.00
O459   O     0.35649   0.30240   0.22755   0.00000  Uiso   1.00
O460   O     0.30591   0.14226   0.79199   0.00000  Uiso   1.00
O461   O     0.19639   0.35630   0.22626   0.00000  Uiso   1.00
O462   O     0.35742   0.30413   0.78934   0.00000  Uiso   1.00
O463   O     0.14026   0.19238   0.19848   0.00000  Uiso   1.00
O464   O     0.16962   0.38327   0.85021   0.00000  Uiso   1.00
O465   O     0.30204   0.14410   0.22909   0.00000  Uiso   1.00
O466   O     0.39284   0.05466   0.71481   0.00000  Uiso   1.00
O467   O     0.28036   0.00000   0.38219   0.00000  Uiso   1.00
O468   O     0.10603   0.44819   0.26801   0.00000  Uiso   1.00
O469   O     0.06570   0.11675   0.67363   0.00000  Uiso   1.00
O470   O     0.44762   0.39416   0.26806   0.00000  Uiso   1.00
O471   O     0.13526   0.41778   0.64796   0.00000  Uiso   1.00
O472   O     0.39337   0.05242   0.26411   0.00000  Uiso   1.00
O473   O     0.43789   0.38810   0.68756   0.00000  Uiso   1.00
O474   O     0.06384   0.11577   0.32256   0.00000  Uiso   1.00
O475   O     0.39361   0.44660   0.27778   0.00000  Uiso   1.00
O476   O     0.11299   0.05925   0.68822   0.00000  Uiso   1.00
O477   O     0.05413   0.39381   0.28304   0.00000  Uiso   1.00
O478   O     0.21965   0.00000   0.61781   0.00000  Uiso   1.00
O479   O     0.44699   0.10646   0.72749   0.00000  Uiso   1.00
O480   O     0.12334   0.07060   0.33805   0.00000  Uiso   1.00
O481   O     0.39309   0.44522   0.71900   0.00000  Uiso   1.00
O482   O     0.44399   0.10723   0.28852   0.00000  Uiso   1.00
O483   O     0.07445   0.37358   0.65716   0.00000  Uiso   1.00
O484   O     0.00000   0.21965   0.38219   0.00000  Uiso   1.00
Zn485  Zn    0.04333   0.25000   0.20067   0.00000  Uiso   1.00
Zn486  Zn    0.20667   0.00000   0.29933   0.00000  Uiso   1.00
Zn487  Zn    0.00000   0.20667   0.70067   0.00000  Uiso   1.00
Zn488  Zn    0.00000   0.29333   0.29933   0.00000  Uiso   1.00
Zn489  Zn    0.20667   0.00000   0.70067   0.00000  Uiso   1.00
Zn490  Zn    0.29333   0.00000   0.29933   0.00000  Uiso   1.00
Zn491  Zn    0.00000   0.29333   0.70067   0.00000  Uiso   1.00
Zn492  Zn    0.00000   0.20667   0.29933   0.00000  Uiso   1.00
Zn493  Zn    0.45667   0.25000   0.79933   0.00000  Uiso   1.00
Zn494  Zn    0.25000   0.45667   0.20067   0.00000  Uiso   1.00
Zn495  Zn    0.25000   0.04333   0.79933   0.00000  Uiso   1.00
Zn496  Zn    0.45667   0.25000   0.20067   0.00000  Uiso   1.00
Zn497  Zn    0.04333   0.25000   0.79933   0.00000  Uiso   1.00
Zn498  Zn    0.25000   0.04333   0.20067   0.00000  Uiso   1.00
Zn499  Zn    0.25000   0.45667   0.79933   0.00000  Uiso   1.00
Zn500  Zn    0.29333   0.00000   0.70067   0.00000  Uiso   1.00
C501   C     0.50003   0.24994   0.02672   0.00000  Uiso   1.00
C502   C     0.99998   0.25000   0.58997   0.00000  Uiso   1.00
C503   C     0.70307   0.12558   0.07250   0.00000  Uiso   1.00
C504   C     0.68997   0.12208   0.00785   0.00000  Uiso   1.00
C505   C     0.78686   0.33395   0.73680   0.00000  Uiso   1.00
C506   C     0.76566   0.35664   0.69125   0.00000  Uiso   1.00
C507   C     0.74574   0.33229   0.64664   0.00000  Uiso   1.00
C508   C     0.60996   0.16465   0.89184   0.00000  Uiso   1.00
C509   C     0.61107   0.19408   0.94020   0.00000  Uiso   1.00
C510   C     0.59350   0.18109   0.99829   0.00000  Uiso   1.00
C511   C     0.83707   0.28832   0.27715   0.00000  Uiso   1.00
C512   C     0.86309   0.27168   0.32305   0.00000  Uiso   1.00
C513   C     0.74999   0.49999   0.40998   0.00000  Uiso   1.00
C514   C     0.84246   0.25390   0.37458   0.00000  Uiso   1.00
C515   C     0.80761   0.15528   0.85186   0.00000  Uiso   1.00
C516   C     0.79175   0.12687   0.89462   0.00000  Uiso   1.00
C517   C     0.79072   0.14109   0.95885   0.00000  Uiso   1.00
C518   C     0.70980   0.33813   0.27766   0.00000  Uiso   1.00
C519   C     0.72950   0.36482   0.31923   0.00000  Uiso   1.00
C520   C     0.74630   0.34518   0.37262   0.00000  Uiso   1.00
C521   C     0.85011   0.30404   0.85152   0.00000  Uiso   1.00
C522   C     0.83066   0.26856   0.86767   0.00000  Uiso   1.00
C523   C     0.81415   0.27038   0.93021   0.00000  Uiso   1.00
C524   C     0.74999   0.49996   0.59002   0.00000  Uiso   1.00
C525   C     0.66759   0.20881   0.23424   0.00000  Uiso   1.00
C526   C     0.65111   0.22852   0.28833   0.00000  Uiso   1.00
C527   C     0.68057   0.24491   0.32804   0.00000  Uiso   1.00
C528   C     0.65071   0.40535   0.89140   0.00000  Uiso   1.00
C529   C     0.67384   0.40982   0.94774   0.00000  Uiso   1.00
C530   C     0.65560   0.43465   0.99347   0.00000  Uiso   1.00
C531   C     0.78677   0.16039   0.28070   0.00000  Uiso   1.00
C532   C     0.76793   0.13159   0.31956   0.00000  Uiso   1.00
C533   C     0.74461   0.14892   0.36814   0.00000  Uiso   1.00
C534   C     0.89805   0.05436   0.65209   0.00000  Uiso   1.00
C535   C     0.74994   0.00000   0.91004   0.00000  Uiso   1.00
C536   C     0.90755   0.01582   0.63239   0.00000  Uiso   1.00
C537   C     0.91469   0.01400   0.56539   0.00000  Uiso   1.00
C538   C     0.59482   0.46228   0.21194   0.00000  Uiso   1.00
C539   C     0.60763   0.00175   0.20667   0.00000  Uiso   1.00
C540   C     0.59669   0.01865   0.14694   0.00000  Uiso   1.00
C541   C     0.57901   0.12647   0.61647   0.00000  Uiso   1.00
C542   C     0.54772   0.12592   0.57160   0.00000  Uiso   1.00
C543   C     0.56073   0.13547   0.50860   0.00000  Uiso   1.00
C544   C     0.96155   0.41170   0.21642   0.00000  Uiso   1.00
C545   C     0.98193   0.38428   0.17727   0.00000  Uiso   1.00
C546   C     0.74996   0.00000   0.08997   0.00000  Uiso   1.00
C547   C     0.50270   0.40325   0.12706   0.00000  Uiso   1.00
C548   C     0.66070   0.39957   0.61149   0.00000  Uiso   1.00
C549   C     0.66576   0.42113   0.55352   0.00000  Uiso   1.00
C550   C     0.69494   0.40429   0.51378   0.00000  Uiso   1.00
C551   C     0.91114   0.04047   0.21139   0.00000  Uiso   1.00
C552   C     0.88492   0.01996   0.16973   0.00000  Uiso   1.00
C553   C     0.87045   0.04408   0.11942   0.00000  Uiso   1.00
C554   C     0.92876   0.37996   0.62733   0.00000  Uiso   1.00
C555   C     0.96323   0.37651   0.58975   0.00000  Uiso   1.00
C556   C     0.95504   0.36072   0.52792   0.00000  Uiso   1.00
C557   C     0.50001   0.24995   0.90998   0.00000  Uiso   1.00
C558   C     0.54532   0.08372   0.30447   0.00000  Uiso   1.00
C559   C     0.52886   0.08719   0.24152   0.00000  Uiso   1.00
C560   C     0.50804   0.05277   0.22480   0.00000  Uiso   1.00
C561   C     0.90098   0.44908   0.33975   0.00000  Uiso   1.00
C562   C     0.90762   0.48888   0.35576   0.00000  Uiso   1.00
C563   C     0.91699   0.49329   0.42166   0.00000  Uiso   1.00
C564   C     0.58703   0.03680   0.71721   0.00000  Uiso   1.00
C565   C     0.60223   0.01886   0.77426   0.00000  Uiso   1.00
C566   C     0.57744   0.48875   0.79744   0.00000  Uiso   1.00
C567   C     0.55342   0.40121   0.34520   0.00000  Uiso   1.00
C568   C     0.50001   0.24998   0.09002   0.00000  Uiso   1.00
C569   C     0.51438   0.40835   0.36468   0.00000  Uiso   1.00
C570   C     0.51252   0.41983   0.43029   0.00000  Uiso   1.00
C571   C     0.96142   0.09126   0.78057   0.00000  Uiso   1.00
C572   C     0.50138   0.10171   0.78490   0.00000  Uiso   1.00
C573   C     0.51978   0.08399   0.83862   0.00000  Uiso   1.00
C574   C     0.64035   0.08479   0.38971   0.00000  Uiso   1.00
C575   C     0.63979   0.05582   0.43884   0.00000  Uiso   1.00
C576   C     0.66001   0.06859   0.49469   0.00000  Uiso   1.00
C577   C     0.91232   0.45970   0.76864   0.00000  Uiso   1.00
C578   C     0.88650   0.47853   0.81260   0.00000  Uiso   1.00
C579   C     0.57036   0.18016   0.25091   0.00000  Uiso   1.00
C580   C     0.90724   0.49887   0.86136   0.00000  Uiso   1.00
C581   C     0.94233   0.09360   0.34806   0.00000  Uiso   1.00
C582   C     0.95767   0.12176   0.39178   0.00000  Uiso   1.00
C583   C     0.95982   0.10646   0.45526   0.00000  Uiso   1.00
C584   C     0.55440   0.40658   0.65625   0.00000  Uiso   1.00
C585   C     0.52773   0.40926   0.70890   0.00000  Uiso   1.00
C586   C     0.50587   0.44448   0.70615   0.00000  Uiso   1.00
C587   C     0.92943   0.31964   0.74885   0.00000  Uiso   1.00
C588   C     0.67984   0.43019   0.24955   0.00000  Uiso   1.00
C589   C     0.50003   0.24992   0.97328   0.00000  Uiso   1.00
C590   C     0.82018   0.07006   0.75039   0.00000  Uiso   1.00
C591   C     0.92999   0.32002   0.24997   0.00000  Uiso   1.00
C592   C     0.56962   0.17946   0.75084   0.00000  Uiso   1.00
C593   C     0.81988   0.07008   0.24988   0.00000  Uiso   1.00
C594   C     0.68009   0.42994   0.75000   0.00000  Uiso   1.00
C595   C     0.57007   0.32020   0.75006   0.00000  Uiso   1.00
C596   C     0.92968   0.18007   0.25062   0.00000  Uiso   1.00
C597   C     0.67962   0.06979   0.75085   0.00000  Uiso   1.00
C598   C     0.82017   0.42995   0.24965   0.00000  Uiso   1.00
C599   C     0.93006   0.17998   0.75001   0.00000  Uiso   1.00
C600   C     0.74989   0.00000   0.02670   0.00000  Uiso   1.00
C601   C     0.56986   0.32037   0.24939   0.00000  Uiso   1.00
C602   C     0.81985   0.42980   0.74985   0.00000  Uiso   1.00
C603   C     0.68022   0.07033   0.25054   0.00000  Uiso   1.00
C604   C     0.63303   0.34072   0.22801   0.00000  Uiso   1.00
C605   C     0.86605   0.16154   0.76283   0.00000  Uiso   1.00
C606   C     0.83962   0.36589   0.23201   0.00000  Uiso   1.00
C607   C     0.65394   0.12782   0.79037   0.00000  Uiso   1.00
C608   C     0.86536   0.16135   0.23489   0.00000  Uiso   1.00
C609   C     0.62429   0.34931   0.79666   0.00000  Uiso   1.00
C610   C     0.65592   0.12962   0.21458   0.00000  Uiso   1.00
C611   C     0.74989   0.00000   0.97330   0.00000  Uiso   1.00
C612   C     0.83821   0.36540   0.76550   0.00000  Uiso   1.00
C613   C     0.62481   0.15182   0.79548   0.00000  Uiso   1.00
C614   C     0.86582   0.33848   0.23762   0.00000  Uiso   1.00
C615   C     0.84022   0.13387   0.77070   0.00000  Uiso   1.00
C616   C     0.66067   0.36631   0.23566   0.00000  Uiso   1.00
C617   C     0.86581   0.33912   0.77052   0.00000  Uiso   1.00
C618   C     0.63176   0.15851   0.22197   0.00000  Uiso   1.00
C619   C     0.64843   0.37867   0.79959   0.00000  Uiso   1.00
C620   C     0.83792   0.13484   0.23951   0.00000  Uiso   1.00
C621   C     0.88392   0.08964   0.73229   0.00000  Uiso   1.00
C622   C     0.74995   0.49994   0.52672   0.00000  Uiso   1.00
C623   C     0.61558   0.41199   0.26135   0.00000  Uiso   1.00
C624   C     0.59362   0.11971   0.71479   0.00000  Uiso   1.00
C625   C     0.91165   0.38459   0.25937   0.00000  Uiso   1.00
C626   C     0.62977   0.39756   0.69953   0.00000  Uiso   1.00
C627   C     0.88377   0.08870   0.25896   0.00000  Uiso   1.00
C628   C     0.90751   0.38163   0.72226   0.00000  Uiso   1.00
C629   C     0.59495   0.12103   0.28861   0.00000  Uiso   1.00
C630   C     0.88440   0.41100   0.26412   0.00000  Uiso   1.00
C631   C     0.61832   0.09112   0.72046   0.00000  Uiso   1.00
C632   C     0.58918   0.38470   0.26661   0.00000  Uiso   1.00
C633   C     0.74995   0.49996   0.47328   0.00000  Uiso   1.00
C634   C     0.91119   0.11596   0.73692   0.00000  Uiso   1.00
C635   C     0.62410   0.09695   0.29378   0.00000  Uiso   1.00
C636   C     0.88287   0.40974   0.73136   0.00000  Uiso   1.00
C637   C     0.90963   0.11611   0.26811   0.00000  Uiso   1.00
C638   C     0.60002   0.37404   0.70283   0.00000  Uiso   1.00
C639   C     0.65170   0.40240   0.24921   0.00000  Uiso   1.00
C640   C     0.84843   0.09821   0.75115   0.00000  Uiso   1.00
C641   C     0.90206   0.34809   0.24931   0.00000  Uiso   1.00
C642   C     0.59630   0.15001   0.75357   0.00000  Uiso   1.00
C643   C     0.84755   0.09833   0.24950   0.00000  Uiso   1.00
C644   C     0.99996   0.25000   0.52671   0.00000  Uiso   1.00
C645   C     0.65246   0.40166   0.74968   0.00000  Uiso   1.00
C646   C     0.59918   0.15275   0.25348   0.00000  Uiso   1.00
C647   C     0.90055   0.34705   0.74718   0.00000  Uiso   1.00
C648   C     0.65035   0.09665   0.75385   0.00000  Uiso   1.00
C649   C     0.84841   0.40191   0.24870   0.00000  Uiso   1.00
C650   C     0.90199   0.15215   0.74959   0.00000  Uiso   1.00
C651   C     0.59765   0.34892   0.24814   0.00000  Uiso   1.00
C652   C     0.84742   0.40135   0.74957   0.00000  Uiso   1.00
C653   C     0.65299   0.09916   0.25255   0.00000  Uiso   1.00
C654   C     0.59841   0.34828   0.74989   0.00000  Uiso   1.00
C655   C     0.99996   0.25000   0.47330   0.00000  Uiso   1.00
C656   C     0.90117   0.15218   0.25152   0.00000  Uiso   1.00
C657   C     0.64141   0.31167   0.13967   0.00000  Uiso   1.00
C658   C     0.65050   0.27537   0.10993   0.00000  Uiso   1.00
C659   C     0.64819   0.27802   0.04181   0.00000  Uiso   1.00
C660   C     0.83914   0.21167   0.72070   0.00000  Uiso   1.00
C661   C     0.86653   0.23043   0.67929   0.00000  Uiso   1.00
C662   C     0.84767   0.24939   0.62713   0.00000  Uiso   1.00
C663   C     0.80368   0.35147   0.15251   0.00000  Uiso   1.00
C664   C     0.76443   0.34568   0.13278   0.00000  Uiso   1.00
C665   C     0.76174   0.33900   0.06546   0.00000  Uiso   1.00
C666   C     0.99998   0.25000   0.41004   0.00000  Uiso   1.00
C667   C     0.70409   0.16454   0.80322   0.00000  Uiso   1.00
C668   C     0.72214   0.15795   0.74214   0.00000  Uiso   1.00
C669   C     0.74209   0.19195   0.72078   0.00000  Uiso   1.00
C670   C     0.84170   0.20038   0.16330   0.00000  Uiso   1.00
C671   C     0.86668   0.22361   0.12424   0.00000  Uiso   1.00
C672   C     0.84924   0.23245   0.06419   0.00000  Uiso   1.00
C673   C     0.65558   0.30495   0.84991   0.00000  Uiso   1.00
C674   C     0.65119   0.26553   0.82860   0.00000  Uiso   1.00
C675   C     0.65632   0.26196   0.76092   0.00000  Uiso   1.00
C676   C     0.67119   0.12892   0.11586   0.00000  Uiso   1.00
H677   H     0.66216   0.33204   0.12550   0.00000  Uiso   1.00
H678   H     0.88229   0.25090   0.70513   0.00000  Uiso   1.00
H679   H     0.64551   0.43277   0.87182   0.00000  Uiso   1.00
H680   H     0.67850   0.38267   0.96836   0.00000  Uiso   1.00
H681   H     0.70058   0.42162   0.93539   0.00000  Uiso   1.00
H682   H     0.65141   0.46220   0.97418   0.00000  Uiso   1.00
H683   H     0.67312   0.43721   0.03370   0.00000  Uiso   1.00
H684   H     0.62904   0.42309   0.00731   0.00000  Uiso   1.00
H685   H     0.76618   0.18033   0.26520   0.00000  Uiso   1.00
H686   H     0.80674   0.17602   0.30805   0.00000  Uiso   1.00
H687   H     0.75033   0.11419   0.29104   0.00000  Uiso   1.00
H688   H     0.78869   0.11411   0.34116   0.00000  Uiso   1.00
H689   H     0.88561   0.20993   0.66091   0.00000  Uiso   1.00
H690   H     0.76108   0.16776   0.39601   0.00000  Uiso   1.00
H691   H     0.73316   0.12731   0.39739   0.00000  Uiso   1.00
H692   H     0.72182   0.16404   0.34744   0.00000  Uiso   1.00
H693   H     0.92066   0.07275   0.63866   0.00000  Uiso   1.00
H694   H     0.87281   0.06297   0.62857   0.00000  Uiso   1.00
H695   H     0.93227   0.00665   0.65633   0.00000  Uiso   1.00
H696   H     0.88467   0.49732   0.64349   0.00000  Uiso   1.00
H697   H     0.89015   0.02254   0.54028   0.00000  Uiso   1.00
H698   H     0.92157   0.48557   0.55294   0.00000  Uiso   1.00
H699   H     0.93779   0.03196   0.55305   0.00000  Uiso   1.00
H700   H     0.83242   0.22926   0.59981   0.00000  Uiso   1.00
H701   H     0.56472   0.46144   0.20980   0.00000  Uiso   1.00
H702   H     0.60577   0.44694   0.17262   0.00000  Uiso   1.00
H703   H     0.59601   0.01803   0.24385   0.00000  Uiso   1.00
H704   H     0.63763   0.00258   0.21029   0.00000  Uiso   1.00
H705   H     0.61015   0.00414   0.10940   0.00000  Uiso   1.00
H706   H     0.60521   0.04767   0.14598   0.00000  Uiso   1.00
H707   H     0.56687   0.01723   0.14074   0.00000  Uiso   1.00
H708   H     0.60002   0.10676   0.60131   0.00000  Uiso   1.00
H709   H     0.59090   0.15442   0.61725   0.00000  Uiso   1.00
H710   H     0.53520   0.09837   0.57092   0.00000  Uiso   1.00
H711   H     0.86824   0.26280   0.59824   0.00000  Uiso   1.00
H712   H     0.52675   0.14586   0.58568   0.00000  Uiso   1.00
H713   H     0.57322   0.16302   0.50808   0.00000  Uiso   1.00
H714   H     0.53745   0.13530   0.47714   0.00000  Uiso   1.00
H715   H     0.58088   0.11517   0.49297   0.00000  Uiso   1.00
H716   H     0.98092   0.43293   0.23174   0.00000  Uiso   1.00
H717   H     0.94062   0.42609   0.18919   0.00000  Uiso   1.00
H718   H     0.50137   0.36871   0.20525   0.00000  Uiso   1.00
H719   H     0.96230   0.36480   0.15724   0.00000  Uiso   1.00
H720   H     0.98378   0.41883   0.09813   0.00000  Uiso   1.00
H721   H     0.51675   0.38258   0.09923   0.00000  Uiso   1.00
H722   H     0.82867   0.27043   0.64390   0.00000  Uiso   1.00
H723   H     0.52333   0.42205   0.14599   0.00000  Uiso   1.00
H724   H     0.65097   0.37166   0.60001   0.00000  Uiso   1.00
H725   H     0.68736   0.39767   0.63469   0.00000  Uiso   1.00
H726   H     0.63969   0.42181   0.52858   0.00000  Uiso   1.00
H727   H     0.67365   0.44959   0.56441   0.00000  Uiso   1.00
H728   H     0.72153   0.40456   0.53713   0.00000  Uiso   1.00
H729   H     0.69749   0.42032   0.47180   0.00000  Uiso   1.00
H730   H     0.68764   0.37582   0.50204   0.00000  Uiso   1.00
H731   H     0.93211   0.02066   0.22550   0.00000  Uiso   1.00
H732   H     0.92609   0.06238   0.18699   0.00000  Uiso   1.00
H733   H     0.81966   0.32701   0.13967   0.00000  Uiso   1.00
H734   H     0.89944   0.49669   0.14883   0.00000  Uiso   1.00
H735   H     0.86195   0.00842   0.19580   0.00000  Uiso   1.00
H736   H     0.85637   0.06829   0.13755   0.00000  Uiso   1.00
H737   H     0.85092   0.02832   0.09179   0.00000  Uiso   1.00
H738   H     0.89307   0.05326   0.09024   0.00000  Uiso   1.00
H739   H     0.91172   0.40216   0.60842   0.00000  Uiso   1.00
H740   H     0.91353   0.35371   0.62373   0.00000  Uiso   1.00
H741   H     0.97584   0.40376   0.58424   0.00000  Uiso   1.00
H742   H     0.98280   0.35834   0.61284   0.00000  Uiso   1.00
H743   H     0.94222   0.33344   0.53210   0.00000  Uiso   1.00
H744   H     0.81470   0.37573   0.12851   0.00000  Uiso   1.00
H745   H     0.98064   0.35756   0.50242   0.00000  Uiso   1.00
H746   H     0.93666   0.37912   0.50275   0.00000  Uiso   1.00
H747   H     0.52305   0.07910   0.33694   0.00000  Uiso   1.00
H748   H     0.56252   0.05907   0.30721   0.00000  Uiso   1.00
H749   H     0.51031   0.11096   0.24008   0.00000  Uiso   1.00
H750   H     0.55061   0.09144   0.20781   0.00000  Uiso   1.00
H751   H     0.52643   0.02890   0.22435   0.00000  Uiso   1.00
H752   H     0.99588   0.05596   0.17964   0.00000  Uiso   1.00
H753   H     0.98621   0.04761   0.25779   0.00000  Uiso   1.00
H754   H     0.92561   0.43325   0.35178   0.00000  Uiso   1.00
H755   H     0.75288   0.32181   0.15676   0.00000  Uiso   1.00
H756   H     0.87755   0.43889   0.36661   0.00000  Uiso   1.00
H757   H     0.93040   0.49969   0.32847   0.00000  Uiso   1.00
H758   H     0.88274   0.00478   0.34601   0.00000  Uiso   1.00
H759   H     0.89457   0.48245   0.44969   0.00000  Uiso   1.00
H760   H     0.92088   0.02262   0.43194   0.00000  Uiso   1.00
H761   H     0.94243   0.47857   0.43241   0.00000  Uiso   1.00
H762   H     0.57938   0.01498   0.68513   0.00000  Uiso   1.00
H763   H     0.56171   0.05181   0.72768   0.00000  Uiso   1.00
H764   H     0.62901   0.00653   0.76485   0.00000  Uiso   1.00
H765   H     0.60554   0.03975   0.80985   0.00000  Uiso   1.00
H766   H     0.74826   0.37018   0.14440   0.00000  Uiso   1.00
H767   H     0.54929   0.49884   0.80287   0.00000  Uiso   1.00
H768   H     0.58745   0.47901   0.84150   0.00000  Uiso   1.00
H769   H     0.57771   0.46546   0.76581   0.00000  Uiso   1.00
H770   H     0.56991   0.42575   0.35597   0.00000  Uiso   1.00
H771   H     0.56399   0.37756   0.37118   0.00000  Uiso   1.00
H772   H     0.50263   0.43040   0.33673   0.00000  Uiso   1.00
H773   H     0.99801   0.38321   0.35820   0.00000  Uiso   1.00
H774   H     0.52540   0.39898   0.45928   0.00000  Uiso   1.00
H775   H     0.98376   0.42300   0.44388   0.00000  Uiso   1.00
H776   H     0.52663   0.44629   0.43680   0.00000  Uiso   1.00
H777   H     0.77253   0.36277   0.04035   0.00000  Uiso   1.00
H778   H     0.95901   0.06113   0.77797   0.00000  Uiso   1.00
H779   H     0.94765   0.10087   0.82230   0.00000  Uiso   1.00
H780   H     0.51524   0.09307   0.74329   0.00000  Uiso   1.00
H781   H     0.50380   0.13176   0.78896   0.00000  Uiso   1.00
H782   H     0.50719   0.09362   0.88092   0.00000  Uiso   1.00
H783   H     0.54899   0.09141   0.83900   0.00000  Uiso   1.00
H784   H     0.51736   0.05391   0.83595   0.00000  Uiso   1.00
H785   H     0.62573   0.10936   0.40621   0.00000  Uiso   1.00
H786   H     0.66909   0.09217   0.37997   0.00000  Uiso   1.00
H787   H     0.61123   0.04948   0.45090   0.00000  Uiso   1.00
H788   H     0.61423   0.32069   0.12369   0.00000  Uiso   1.00
H789   H     0.73290   0.33491   0.05283   0.00000  Uiso   1.00
H790   H     0.65271   0.03052   0.42190   0.00000  Uiso   1.00
H791   H     0.68895   0.07391   0.48396   0.00000  Uiso   1.00
H792   H     0.65865   0.04713   0.52966   0.00000  Uiso   1.00
H793   H     0.64755   0.09383   0.51267   0.00000  Uiso   1.00
H794   H     0.93162   0.48036   0.75135   0.00000  Uiso   1.00
H795   H     0.92905   0.43904   0.79271   0.00000  Uiso   1.00
H796   H     0.86912   0.49815   0.78802   0.00000  Uiso   1.00
H797   H     0.86881   0.45789   0.83428   0.00000  Uiso   1.00
H798   H     0.92465   0.47974   0.88693   0.00000  Uiso   1.00
H799   H     0.88774   0.01176   0.89272   0.00000  Uiso   1.00
H800   H     0.77724   0.31425   0.05283   0.00000  Uiso   1.00
H801   H     0.92439   0.02052   0.84133   0.00000  Uiso   1.00
H802   H     0.95904   0.06856   0.35028   0.00000  Uiso   1.00
H803   H     0.91464   0.08561   0.36351   0.00000  Uiso   1.00
H804   H     0.98522   0.13025   0.37715   0.00000  Uiso   1.00
H805   H     0.93988   0.14615   0.39200   0.00000  Uiso   1.00
H806   H     0.93261   0.09743   0.47065   0.00000  Uiso   1.00
H807   H     0.96981   0.12787   0.48626   0.00000  Uiso   1.00
H808   H     0.97880   0.08302   0.45677   0.00000  Uiso   1.00
H809   H     0.53874   0.40712   0.61386   0.00000  Uiso   1.00
H810   H     0.57197   0.43116   0.65516   0.00000  Uiso   1.00
H811   H     0.72554   0.17088   0.83647   0.00000  Uiso   1.00
H812   H     0.50889   0.38570   0.70814   0.00000  Uiso   1.00
H813   H     0.54279   0.40864   0.75195   0.00000  Uiso   1.00
H814   H     0.52403   0.46848   0.70239   0.00000  Uiso   1.00
H815   H     0.98972   0.44722   0.74774   0.00000  Uiso   1.00
H816   H     0.98723   0.44424   0.66718   0.00000  Uiso   1.00
H817   H     0.68673   0.18910   0.80116   0.00000  Uiso   1.00
H818   H     0.74150   0.13497   0.74572   0.00000  Uiso   1.00
H819   H     0.70141   0.15077   0.70804   0.00000  Uiso   1.00
H820   H     0.72257   0.21437   0.71266   0.00000  Uiso   1.00
H821   H     0.75648   0.18596   0.67825   0.00000  Uiso   1.00
H822   H     0.76210   0.20088   0.75485   0.00000  Uiso   1.00
H823   H     0.81502   0.21414   0.16753   0.00000  Uiso   1.00
H824   H     0.67850   0.26734   0.12247   0.00000  Uiso   1.00
H825   H     0.83697   0.17393   0.13982   0.00000  Uiso   1.00
H826   H     0.87330   0.24944   0.14773   0.00000  Uiso   1.00
H827   H     0.89225   0.20855   0.11583   0.00000  Uiso   1.00
H828   H     0.84198   0.20704   0.03996   0.00000  Uiso   1.00
H829   H     0.86886   0.24806   0.03656   0.00000  Uiso   1.00
H830   H     0.82450   0.24916   0.07088   0.00000  Uiso   1.00
H831   H     0.66217   0.30437   0.89844   0.00000  Uiso   1.00
H832   H     0.67956   0.31738   0.82731   0.00000  Uiso   1.00
H833   H     0.67185   0.24835   0.85118   0.00000  Uiso   1.00
H834   H     0.62407   0.25506   0.84158   0.00000  Uiso   1.00
H835   H     0.63130   0.25409   0.12576   0.00000  Uiso   1.00
H836   H     0.63739   0.27992   0.73632   0.00000  Uiso   1.00
H837   H     0.65101   0.23345   0.74694   0.00000  Uiso   1.00
H838   H     0.68454   0.26929   0.74841   0.00000  Uiso   1.00
H839   H     0.65473   0.15303   0.10287   0.00000  Uiso   1.00
H840   H     0.65424   0.10381   0.11181   0.00000  Uiso   1.00
H841   H     0.72074   0.15001   0.07643   0.00000  Uiso   1.00
H842   H     0.71935   0.10117   0.08431   0.00000  Uiso   1.00
H843   H     0.67149   0.09835   0.00307   0.00000  Uiso   1.00
H844   H     0.71346   0.11809   0.97756   0.00000  Uiso   1.00
H845   H     0.67556   0.14721   0.99404   0.00000  Uiso   1.00
H846   H     0.62007   0.28457   0.02771   0.00000  Uiso   1.00
H847   H     0.76768   0.31537   0.76010   0.00000  Uiso   1.00
H848   H     0.80666   0.31622   0.71300   0.00000  Uiso   1.00
H849   H     0.74562   0.37397   0.71502   0.00000  Uiso   1.00
H850   H     0.78467   0.37465   0.66641   0.00000  Uiso   1.00
H851   H     0.76520   0.31428   0.62299   0.00000  Uiso   1.00
H852   H     0.73170   0.34936   0.61288   0.00000  Uiso   1.00
H853   H     0.72523   0.31533   0.67018   0.00000  Uiso   1.00
H854   H     0.62518   0.14042   0.90822   0.00000  Uiso   1.00
H855   H     0.58113   0.15690   0.88364   0.00000  Uiso   1.00
H856   H     0.63973   0.20171   0.94912   0.00000  Uiso   1.00
H857   H     0.65601   0.25155   0.02168   0.00000  Uiso   1.00
H858   H     0.59651   0.21866   0.92413   0.00000  Uiso   1.00
H859   H     0.56438   0.17484   0.99075   0.00000  Uiso   1.00
H860   H     0.59559   0.20282   0.03273   0.00000  Uiso   1.00
H861   H     0.60737   0.15635   0.01527   0.00000  Uiso   1.00
H862   H     0.81885   0.26652   0.26016   0.00000  Uiso   1.00
H863   H     0.81928   0.30879   0.29928   0.00000  Uiso   1.00
H864   H     0.88034   0.25091   0.30083   0.00000  Uiso   1.00
H865   H     0.88097   0.29327   0.34160   0.00000  Uiso   1.00
H866   H     0.82591   0.27451   0.39857   0.00000  Uiso   1.00
H867   H     0.86200   0.24176   0.40665   0.00000  Uiso   1.00
H868   H     0.66694   0.29938   0.02489   0.00000  Uiso   1.00
H869   H     0.82440   0.23205   0.35750   0.00000  Uiso   1.00
H870   H     0.79116   0.18053   0.85458   0.00000  Uiso   1.00
H871   H     0.83538   0.16261   0.86774   0.00000  Uiso   1.00
H872   H     0.76381   0.11956   0.88029   0.00000  Uiso   1.00
H873   H     0.80873   0.10193   0.89323   0.00000  Uiso   1.00
H874   H     0.81836   0.14892   0.97389   0.00000  Uiso   1.00
H875   H     0.78038   0.11945   0.98911   0.00000  Uiso   1.00
H876   H     0.77255   0.16510   0.96204   0.00000  Uiso   1.00
H877   H     0.72952   0.31733   0.26225   0.00000  Uiso   1.00
H878   H     0.68843   0.32332   0.30336   0.00000  Uiso   1.00
H879   H     0.81931   0.23237   0.73602   0.00000  Uiso   1.00
H880   H     0.75114   0.37920   0.29394   0.00000  Uiso   1.00
H881   H     0.71003   0.38533   0.33643   0.00000  Uiso   1.00
H882   H     0.72484   0.33180   0.39977   0.00000  Uiso   1.00
H883   H     0.76082   0.36514   0.40131   0.00000  Uiso   1.00
H884   H     0.76589   0.32430   0.35719   0.00000  Uiso   1.00
H885   H     0.83274   0.32723   0.86578   0.00000  Uiso   1.00
H886   H     0.87603   0.30564   0.87686   0.00000  Uiso   1.00
H887   H     0.80858   0.26322   0.83493   0.00000  Uiso   1.00
H888   H     0.85026   0.24566   0.86556   0.00000  Uiso   1.00
H889   H     0.83481   0.27939   0.96311   0.00000  Uiso   1.00
H890   H     0.82343   0.19079   0.69521   0.00000  Uiso   1.00
H891   H     0.80381   0.24309   0.94327   0.00000  Uiso   1.00
H892   H     0.79123   0.28995   0.93085   0.00000  Uiso   1.00
H893   H     0.68197   0.22914   0.20625   0.00000  Uiso   1.00
H894   H     0.68884   0.18930   0.24936   0.00000  Uiso   1.00
H895   H     0.63280   0.25043   0.27239   0.00000  Uiso   1.00
H896   H     0.63489   0.20924   0.31574   0.00000  Uiso   1.00
H897   H     0.69519   0.22305   0.35225   0.00000  Uiso   1.00
H898   H     0.66812   0.26343   0.36149   0.00000  Uiso   1.00
H899   H     0.70039   0.26042   0.30073   0.00000  Uiso   1.00
H900   H     0.62442   0.39251   0.90423   0.00000  Uiso   1.00
O901   O     0.50000   0.25000   0.25000   0.00000  Uiso   1.00
O902   O     0.50000   0.28036   0.61781   0.00000  Uiso   1.00
O903   O     0.71965   0.00000   0.38219   0.00000  Uiso   1.00
O904   O     0.78036   0.00000   0.61781   0.00000  Uiso   1.00
O905   O     0.75000   0.03036   0.88219   0.00000  Uiso   1.00
O906   O     0.75000   0.46965   0.11781   0.00000  Uiso   1.00
O907   O     0.53036   0.25000   0.88219   0.00000  Uiso   1.00
O908   O     0.96965   0.25000   0.11781   0.00000  Uiso   1.00
O909   O     0.75000   0.46965   0.88219   0.00000  Uiso   1.00
O910   O     0.75000   0.03036   0.11781   0.00000  Uiso   1.00
O911   O     0.96965   0.25000   0.88219   0.00000  Uiso   1.00
O912   O     0.50000   0.25000   0.75000   0.00000  Uiso   1.00
O913   O     0.53036   0.25000   0.11781   0.00000  Uiso   1.00
O914   O     0.54268   0.17693   0.28474   0.00000  Uiso   1.00
O915   O     0.95733   0.32308   0.71526   0.00000  Uiso   1.00
O916   O     0.67693   0.45733   0.28474   0.00000  Uiso   1.00
O917   O     0.82308   0.04268   0.71526   0.00000  Uiso   1.00
O918   O     0.95733   0.32308   0.28474   0.00000  Uiso   1.00
O919   O     0.54268   0.17693   0.71526   0.00000  Uiso   1.00
O920   O     0.82308   0.04268   0.28474   0.00000  Uiso   1.00
O921   O     0.67693   0.45733   0.71526   0.00000  Uiso   1.00
O922   O     0.54268   0.32308   0.71526   0.00000  Uiso   1.00
O923   O     0.75000   0.00000   0.25000   0.00000  Uiso   1.00
O924   O     0.95733   0.17693   0.28474   0.00000  Uiso   1.00
O925   O     0.67693   0.04268   0.71526   0.00000  Uiso   1.00
O926   O     0.82308   0.45733   0.28474   0.00000  Uiso   1.00
O927   O     0.95733   0.17693   0.71526   0.00000  Uiso   1.00
O928   O     0.54268   0.32308   0.28474   0.00000  Uiso   1.00
O929   O     0.82308   0.45733   0.71526   0.00000  Uiso   1.00
O930   O     0.67693   0.04268   0.28474   0.00000  Uiso   1.00
O931   O     0.79268   0.42693   0.78474   0.00000  Uiso   1.00
O932   O     0.70733   0.07308   0.21526   0.00000  Uiso   1.00
O933   O     0.92693   0.20733   0.78474   0.00000  Uiso   1.00
O934   O     0.75000   0.00000   0.75000   0.00000  Uiso   1.00
O935   O     0.57308   0.29268   0.21526   0.00000  Uiso   1.00
O936   O     0.70733   0.07308   0.78474   0.00000  Uiso   1.00
O937   O     0.79268   0.42693   0.21526   0.00000  Uiso   1.00
O938   O     0.57308   0.29268   0.78474   0.00000  Uiso   1.00
O939   O     0.92693   0.20733   0.21526   0.00000  Uiso   1.00
O940   O     0.79268   0.07308   0.21526   0.00000  Uiso   1.00
O941   O     0.70733   0.42693   0.78474   0.00000  Uiso   1.00
O942   O     0.92693   0.29268   0.21526   0.00000  Uiso   1.00
O943   O     0.57308   0.20733   0.78474   0.00000  Uiso   1.00
O944   O     0.70733   0.42693   0.21526   0.00000  Uiso   1.00
O945   O     0.50000   0.28036   0.38219   0.00000  Uiso   1.00
O946   O     0.79268   0.07308   0.78474   0.00000  Uiso   1.00
O947   O     0.57308   0.20733   0.21526   0.00000  Uiso   1.00
O948   O     0.92693   0.29268   0.78474   0.00000  Uiso   1.00
O949   O     0.64131   0.30737   0.20270   0.00000  Uiso   1.00
O950   O     0.85660   0.19760   0.77223   0.00000  Uiso   1.00
O951   O     0.80460   0.35679   0.21524   0.00000  Uiso   1.00
O952   O     0.68506   0.13343   0.82412   0.00000  Uiso   1.00
O953   O     0.85674   0.19722   0.22155   0.00000  Uiso   1.00
O954   O     0.62255   0.32442   0.84345   0.00000  Uiso   1.00
O955   O     0.68455   0.13314   0.17481   0.00000  Uiso   1.00
O956   O     0.50000   0.21965   0.61781   0.00000  Uiso   1.00
O957   O     0.80272   0.35680   0.78072   0.00000  Uiso   1.00
O958   O     0.62588   0.17857   0.83907   0.00000  Uiso   1.00
O959   O     0.85649   0.30240   0.22755   0.00000  Uiso   1.00
O960   O     0.80591   0.14226   0.79199   0.00000  Uiso   1.00
O961   O     0.69639   0.35630   0.22626   0.00000  Uiso   1.00
O962   O     0.85742   0.30413   0.78934   0.00000  Uiso   1.00
O963   O     0.64026   0.19238   0.19848   0.00000  Uiso   1.00
O964   O     0.66962   0.38327   0.85021   0.00000  Uiso   1.00
O965   O     0.80204   0.14410   0.22909   0.00000  Uiso   1.00
O966   O     0.89284   0.05466   0.71481   0.00000  Uiso   1.00
O967   O     0.78036   0.00000   0.38219   0.00000  Uiso   1.00
O968   O     0.60603   0.44819   0.26801   0.00000  Uiso   1.00
O969   O     0.56570   0.11675   0.67363   0.00000  Uiso   1.00
O970   O     0.94762   0.39416   0.26806   0.00000  Uiso   1.00
O971   O     0.63526   0.41778   0.64796   0.00000  Uiso   1.00
O972   O     0.89337   0.05242   0.26411   0.00000  Uiso   1.00
O973   O     0.93789   0.38810   0.68756   0.00000  Uiso   1.00
O974   O     0.56384   0.11577   0.32256   0.00000  Uiso   1.00
O975   O     0.89361   0.44660   0.27778   0.00000  Uiso   1.00
O976   O     0.61299   0.05925   0.68822   0.00000  Uiso   1.00
O977   O     0.55413   0.39381   0.28304   0.00000  Uiso   1.00
O978   O     0.71965   0.00000   0.61781   0.00000  Uiso   1.00
O979   O     0.94699   0.10646   0.72749   0.00000  Uiso   1.00
O980   O     0.62334   0.07060   0.33805   0.00000  Uiso   1.00
O981   O     0.89309   0.44522   0.71900   0.00000  Uiso   1.00
O982   O     0.94399   0.10723   0.28852   0.00000  Uiso   1.00
O983   O     0.57445   0.37358   0.65716   0.00000  Uiso   1.00
O984   O     0.50000   0.21965   0.38219   0.00000  Uiso   1.00
Zn985  Zn    0.54333   0.25000   0.20067   0.00000  Uiso   1.00
Zn986  Zn    0.70667   0.00000   0.29933   0.00000  Uiso   1.00
Zn987  Zn    0.50000   0.20667   0.70067   0.00000  Uiso   1.00
Zn988  Zn    0.50000   0.29333   0.29933   0.00000  Uiso   1.00
Zn989  Zn    0.70667   0.00000   0.70067   0.00000  Uiso   1.00
Zn990  Zn    0.79333   0.00000   0.29933   0.00000  Uiso   1.00
Zn991  Zn    0.50000   0.29333   0.70067   0.00000  Uiso   1.00
Zn992  Zn    0.50000   0.20667   0.29933   0.00000  Uiso   1.00
Zn993  Zn    0.95667   0.25000   0.79933   0.00000  Uiso   1.00
Zn994  Zn    0.75000   0.45667   0.20067   0.00000  Uiso   1.00
Zn995  Zn    0.75000   0.04333   0.79933   0.00000  Uiso   1.00
Zn996  Zn    0.95667   0.25000   0.20067   0.00000  Uiso   1.00
Zn997  Zn    0.54333   0.25000   0.79933   0.00000  Uiso   1.00
Zn998  Zn    0.75000   0.04333   0.20067   0.00000  Uiso   1.00
Zn999  Zn    0.75000   0.45667   0.79933   0.00000  Uiso   1.00
Zn1000 Zn    0.79333   0.00000   0.70067   0.00000  Uiso   1.00
C1001  C     0.00003   0.74994   0.02672   0.00000  Uiso   1.00
C1002  C     0.49998   0.75000   0.58997   0.00000  Uiso   1.00
C1003  C     0.20307   0.62558   0.07250   0.00000  Uiso   1.00
C1004  C     0.18997   0.62208   0.00785   0.00000  Uiso   1.00
C1005  C     0.28686   0.83395   0.73680   0.00000  Uiso   1.00
C1006  C     0.26566   0.85664   0.69125   0.00000  Uiso   1.00
C1007  C     0.24574   0.83229   0.64664   0.00000  Uiso   1.00
C1008  C     0.10996   0.66465   0.89184   0.00000  Uiso   1.00
C1009  C     0.11107   0.69408   0.94020   0.00000  Uiso   1.00
C1010  C     0.09350   0.68109   0.99829   0.00000  Uiso   1.00
C1011  C     0.33707   0.78832   0.27715   0.00000  Uiso   1.00
C1012  C     0.36309   0.77168   0.32305   0.00000  Uiso   1.00
C1013  C     0.24999   0.99999   0.40998   0.00000  Uiso   1.00
C1014  C     0.34246   0.75390   0.37458   0.00000  Uiso   1.00
C1015  C     0.30761   0.65528   0.85186   0.00000  Uiso   1.00
C1016  C     0.29175   0.62687   0.89462   0.00000  Uiso   1.00
C1017  C     0.29072   0.64109   0.95885   0.00000  Uiso   1.00
C1018  C     0.20980   0.83813   0.27766   0.00000  Uiso   1.00
C1019  C     0.22950   0.86482   0.31923   0.00000  Uiso   1.00
C1020  C     0.24630   0.84518   0.37262   0.00000  Uiso   1.00
C1021  C     0.35011   0.80404   0.85152   0.00000  Uiso   1.00
C1022  C     0.33066   0.76856   0.86767   0.00000  Uiso   1.00
C1023  C     0.31415   0.77038   0.93021   0.00000  Uiso   1.00
C1024  C     0.24999   0.99996   0.59002   0.00000  Uiso   1.00
C1025  C     0.16759   0.70881   0.23424   0.00000  Uiso   1.00
C1026  C     0.15111   0.72852   0.28833   0.00000  Uiso   1.00
C1027  C     0.18057   0.74491   0.32804   0.00000  Uiso   1.00
C1028  C     0.15071   0.90535   0.89140   0.00000  Uiso   1.00
C1029  C     0.17384   0.90982   0.94774   0.00000  Uiso   1.00
C1030  C     0.15560   0.93465   0.99347   0.00000  Uiso   1.00
C1031  C     0.28677   0.66039   0.28070   0.00000  Uiso   1.00
C1032  C     0.26793   0.63159   0.31956   0.00000  Uiso   1.00
C1033  C     0.24461   0.64892   0.36814   0.00000  Uiso   1.00
C1034  C     0.39805   0.55436   0.65209   0.00000  Uiso   1.00
C1035  C     0.24994   0.50000   0.91004   0.00000  Uiso   1.00
C1036  C     0.40755   0.51582   0.63239   0.00000  Uiso   1.00
C1037  C     0.41469   0.51400   0.56539   0.00000  Uiso   1.00
C1038  C     0.09482   0.96228   0.21194   0.00000  Uiso   1.00
C1039  C     0.10763   0.50175   0.20667   0.00000  Uiso   1.00
C1040  C     0.09669   0.51865   0.14694   0.00000  Uiso   1.00
C1041  C     0.07901   0.62647   0.61647   0.00000  Uiso   1.00
C1042  C     0.04772   0.62592   0.57160   0.00000  Uiso   1.00
C1043  C     0.06073   0.63547   0.50860   0.00000  Uiso   1.00
C1044  C     0.46155   0.91170   0.21642   0.00000  Uiso   1.00
C1045  C     0.48193   0.88428   0.17727   0.00000  Uiso   1.00
C1046  C     0.24996   0.50000   0.08997   0.00000  Uiso   1.00
C1047  C     0.00270   0.90325   0.12706   0.00000  Uiso   1.00
C1048  C     0.16070   0.89957   0.61149   0.00000  Uiso   1.00
C1049  C     0.16576   0.92113   0.55352   0.00000  Uiso   1.00
C1050  C     0.19494   0.90429   0.51378   0.00000  Uiso   1.00
C1051  C     0.41114   0.54047   0.21139   0.00000  Uiso   1.00
C1052  C     0.38492   0.51996   0.16973   0.00000  Uiso   1.00
C1053  C     0.37045   0.54408   0.11942   0.00000  Uiso   1.00
C1054  C     0.42876   0.87996   0.62733   0.00000  Uiso   1.00
C1055  C     0.46323   0.87651   0.58975   0.00000  Uiso   1.00
C1056  C     0.45504   0.86072   0.52792   0.00000  Uiso   1.00
C1057  C     0.00001   0.74995   0.90998   0.00000  Uiso   1.00
C1058  C     0.04532   0.58372   0.30447   0.00000  Uiso   1.00
C1059  C     0.02886   0.58719   0.24152   0.00000  Uiso   1.00
C1060  C     0.00804   0.55277   0.22480   0.00000  Uiso   1.00
C1061  C     0.40098   0.94908   0.33975   0.00000  Uiso   1.00
C1062  C     0.40762   0.98888   0.35576   0.00000  Uiso   1.00
C1063  C     0.41699   0.99329   0.42166   0.00000  Uiso   1.00
C1064  C     0.08703   0.53680   0.71721   0.00000  Uiso   1.00
C1065  C     0.10223   0.51886   0.77426   0.00000  Uiso   1.00
C1066  C     0.07744   0.98875   0.79744   0.00000  Uiso   1.00
C1067  C     0.05342   0.90121   0.34520   0.00000  Uiso   1.00
C1068  C     0.00001   0.74998   0.09002   0.00000  Uiso   1.00
C1069  C     0.01438   0.90835   0.36468   0.00000  Uiso   1.00
C1070  C     0.01252   0.91983   0.43029   0.00000  Uiso   1.00
C1071  C     0.46142   0.59126   0.78057   0.00000  Uiso   1.00
C1072  C     0.00138   0.60171   0.78490   0.00000  Uiso   1.00
C1073  C     0.01978   0.58399   0.83862   0.00000  Uiso   1.00
C1074  C     0.14035   0.58479   0.38971   0.00000  Uiso   1.00
C1075  C     0.13979   0.55582   0.43884   0.00000  Uiso   1.00
C1076  C     0.16001   0.56859   0.49469   0.00000  Uiso   1.00
C1077  C     0.41232   0.95970   0.76864   0.00000  Uiso   1.00
C1078  C     0.38650   0.97853   0.81260   0.00000  Uiso   1.00
C1079  C     0.07036   0.68016   0.25091   0.00000  Uiso   1.00
C1080  C     0.40724   0.99887   0.86136   0.00000  Uiso   1.00
C1081  C     0.44233   0.59360   0.34806   0.00000  Uiso   1.00
C1082  C     0.45767   0.62176   0.39178   0.00000  Uiso   1.00
C1083  C     0.45982   0.60646   0.45526   0.00000  Uiso   1.00
C1084  C     0.05440   0.90658   0.65625   0.00000  Uiso   1.00
C1085  C     0.02773   0.90926   0.70890   0.00000  Uiso   1.00
C1086  C     0.00587   0.94448   0.70615   0.00000  Uiso   1.00
C1087  C     0.42943   0.81964   0.74885   0.00000  Uiso   1.00
C1088  C     0.17984   0.93019   0.24955   0.00000  Uiso   1.00
C1089  C     0.00003   0.74992   0.97328   0.00000  Uiso   1.00
C1090  C     0.32018   0.57006   0.75039   0.00000  Uiso   1.00
C1091  C     0.42999   0.82002   0.24997   0.00000  Uiso   1.00
C1092  C     0.06962   0.67946   0.75084   0.00000  Uiso   1.00
C1093  C     0.31988   0.57008   0.24988   0.00000  Uiso   1.00
C1094  C     0.18009   0.92994   0.75000   0.00000  Uiso   1.00
C1095  C     0.07007   0.82020   0.75006   0.00000  Uiso   1.00
C1096  C     0.42968   0.68007   0.25062   0.00000  Uiso   1.00
C1097  C     0.17962   0.56979   0.75085   0.00000  Uiso   1.00
C1098  C     0.32017   0.92995   0.24965   0.00000  Uiso   1.00
C1099  C     0.43006   0.67998   0.75001   0.00000  Uiso   1.00
C1100  C     0.24989   0.50000   0.02670   0.00000  Uiso   1.00
C1101  C     0.06986   0.82037   0.24939   0.00000  Uiso   1.00
C1102  C     0.31985   0.92980   0.74985   0.00000  Uiso   1.00
C1103  C     0.18022   0.57033   0.25054   0.00000  Uiso   1.00
C1104  C     0.13303   0.84072   0.22801   0.00000  Uiso   1.00
C1105  C     0.36605   0.66154   0.76283   0.00000  Uiso   1.00
C1106  C     0.33962   0.86589   0.23201   0.00000  Uiso   1.00
C1107  C     0.15394   0.62782   0.79037   0.00000  Uiso   1.00
C1108  C     0.36536   0.66135   0.23489   0.00000  Uiso   1.00
C1109  C     0.12429   0.84931   0.79666   0.00000  Uiso   1.00
C1110  C     0.15592   0.62962   0.21458   0.00000  Uiso   1.00
C1111  C     0.24989   0.50000   0.97330   0.00000  Uiso   1.00
C1112  C     0.33821   0.86540   0.76550   0.00000  Uiso   1.00
C1113  C     0.12481   0.65182   0.79548   0.00000  Uiso   1.00
C1114  C     0.36582   0.83848   0.23762   0.00000  Uiso   1.00
C1115  C     0.34022   0.63387   0.77070   0.00000  Uiso   1.00
C1116  C     0.16067   0.86631   0.23566   0.00000  Uiso   1.00
C1117  C     0.36581   0.83912   0.77052   0.00000  Uiso   1.00
C1118  C     0.13176   0.65851   0.22197   0.00000  Uiso   1.00
C1119  C     0.14843   0.87867   0.79959   0.00000  Uiso   1.00
C1120  C     0.33792   0.63484   0.23951   0.00000  Uiso   1.00
C1121  C     0.38392   0.58964   0.73229   0.00000  Uiso   1.00
C1122  C     0.24995   0.99994   0.52672   0.00000  Uiso   1.00
C1123  C     0.11558   0.91199   0.26135   0.00000  Uiso   1.00
C1124  C     0.09362   0.61971   0.71479   0.00000  Uiso   1.00
C1125  C     0.41165   0.88459   0.25937   0.00000  Uiso   1.00
C1126  C     0.12977   0.89756   0.69953   0.00000  Uiso   1.00
C1127  C     0.38377   0.58870   0.25896   0.00000  Uiso   1.00
C1128  C     0.40751   0.88163   0.72226   0.00000  Uiso   1.00
C1129  C     0.09495   0.62103   0.28861   0.00000  Uiso   1.00
C1130  C     0.38440   0.91100   0.26412   0.00000  Uiso   1.00
C1131  C     0.11832   0.59112   0.72046   0.00000  Uiso   1.00
C1132  C     0.08918   0.88470   0.26661   0.00000  Uiso   1.00
C1133  C     0.24995   0.99996   0.47328   0.00000  Uiso   1.00
C1134  C     0.41119   0.61596   0.73692   0.00000  Uiso   1.00
C1135  C     0.12410   0.59695   0.29378   0.00000  Uiso   1.00
C1136  C     0.38287   0.90974   0.73136   0.00000  Uiso   1.00
C1137  C     0.40963   0.61611   0.26811   0.00000  Uiso   1.00
C1138  C     0.10002   0.87404   0.70283   0.00000  Uiso   1.00
C1139  C     0.15170   0.90240   0.24921   0.00000  Uiso   1.00
C1140  C     0.34843   0.59821   0.75115   0.00000  Uiso   1.00
C1141  C     0.40206   0.84809   0.24931   0.00000  Uiso   1.00
C1142  C     0.09630   0.65001   0.75357   0.00000  Uiso   1.00
C1143  C     0.34755   0.59833   0.24950   0.00000  Uiso   1.00
C1144  C     0.49996   0.75000   0.52671   0.00000  Uiso   1.00
C1145  C     0.15246   0.90166   0.74968   0.00000  Uiso   1.00
C1146  C     0.09918   0.65275   0.25348   0.00000  Uiso   1.00
C1147  C     0.40055   0.84705   0.74718   0.00000  Uiso   1.00
C1148  C     0.15035   0.59665   0.75385   0.00000  Uiso   1.00
C1149  C     0.34841   0.90191   0.24870   0.00000  Uiso   1.00
C1150  C     0.40199   0.65215   0.74959   0.00000  Uiso   1.00
C1151  C     0.09765   0.84892   0.24814   0.00000  Uiso   1.00
C1152  C     0.34742   0.90135   0.74957   0.00000  Uiso   1.00
C1153  C     0.15299   0.59916   0.25255   0.00000  Uiso   1.00
C1154  C     0.09841   0.84828   0.74989   0.00000  Uiso   1.00
C1155  C     0.49996   0.75000   0.47330   0.00000  Uiso   1.00
C1156  C     0.40117   0.65218   0.25152   0.00000  Uiso   1.00
C1157  C     0.14141   0.81167   0.13967   0.00000  Uiso   1.00
C1158  C     0.15050   0.77537   0.10993   0.00000  Uiso   1.00
C1159  C     0.14819   0.77802   0.04181   0.00000  Uiso   1.00
C1160  C     0.33914   0.71167   0.72070   0.00000  Uiso   1.00
C1161  C     0.36653   0.73043   0.67929   0.00000  Uiso   1.00
C1162  C     0.34767   0.74939   0.62713   0.00000  Uiso   1.00
C1163  C     0.30368   0.85147   0.15251   0.00000  Uiso   1.00
C1164  C     0.26443   0.84568   0.13278   0.00000  Uiso   1.00
C1165  C     0.26174   0.83900   0.06546   0.00000  Uiso   1.00
C1166  C     0.49998   0.75000   0.41004   0.00000  Uiso   1.00
C1167  C     0.20409   0.66454   0.80322   0.00000  Uiso   1.00
C1168  C     0.22214   0.65795   0.74214   0.00000  Uiso   1.00
C1169  C     0.24209   0.69195   0.72078   0.00000  Uiso   1.00
C1170  C     0.34170   0.70038   0.16330   0.00000  Uiso   1.00
C1171  C     0.36668   0.72361   0.12424   0.00000  Uiso   1.00
C1172  C     0.34924   0.73245   0.06419   0.00000  Uiso   1.00
C1173  C     0.15558   0.80495   0.84991   0.00000  Uiso   1.00
C1174  C     0.15119   0.76553   0.82860   0.00000  Uiso   1.00
C1175  C     0.15632   0.76196   0.76092   0.00000  Uiso   1.00
C1176  C     0.17119   0.62892   0.11586   0.00000  Uiso   1.00
H1177  H     0.16216   0.83204   0.12550   0.00000  Uiso   1.00
H1178  H     0.38229   0.75090   0.70513   0.00000  Uiso   1.00
H1179  H     0.14551   0.93277   0.87182   0.00000  Uiso   1.00
H1180  H     0.17850   0.88267   0.96836   0.00000  Uiso   1.00
H1181  H     0.20058   0.92162   0.93539   0.00000  Uiso   1.00
H1182  H     0.15141   0.96220   0.97418   0.00000  Uiso   1.00
H1183  H     0.17312   0.93721   0.03370   0.00000  Uiso   1.00
H1184  H     0.12904   0.92309   0.00731   0.00000  Uiso   1.00
H1185  H     0.26618   0.68033   0.26520   0.00000  Uiso   1.00
H1186  H     0.30674   0.67602   0.30805   0.00000  Uiso   1.00
H1187  H     0.25033   0.61419   0.29104   0.00000  Uiso   1.00
H1188  H     0.28869   0.61411   0.34116   0.00000  Uiso   1.00
H1189  H     0.38561   0.70993   0.66091   0.00000  Uiso   1.00
H1190  H     0.26108   0.66776   0.39601   0.00000  Uiso   1.00
H1191  H     0.23316   0.62731   0.39739   0.00000  Uiso   1.00
H1192  H     0.22182   0.66404   0.34744   0.00000  Uiso   1.00
H1193  H     0.42066   0.57275   0.63866   0.00000  Uiso   1.00
H1194  H     0.37281   0.56297   0.62857   0.00000  Uiso   1.00
H1195  H     0.43227   0.50665   0.65633   0.00000  Uiso   1.00
H1196  H     0.38467   0.99732   0.64349   0.00000  Uiso   1.00
H1197  H     0.39015   0.52254   0.54028   0.00000  Uiso   1.00
H1198  H     0.42157   0.98557   0.55294   0.00000  Uiso   1.00
H1199  H     0.43779   0.53196   0.55305   0.00000  Uiso   1.00
H1200  H     0.33242   0.72926   0.59981   0.00000  Uiso   1.00
H1201  H     0.06472   0.96144   0.20980   0.00000  Uiso   1.00
H1202  H     0.10577   0.94694   0.17262   0.00000  Uiso   1.00
H1203  H     0.09601   0.51803   0.24385   0.00000  Uiso   1.00
H1204  H     0.13763   0.50258   0.21029   0.00000  Uiso   1.00
H1205  H     0.11015   0.50414   0.10940   0.00000  Uiso   1.00
H1206  H     0.10521   0.54767   0.14598   0.00000  Uiso   1.00
H1207  H     0.06687   0.51723   0.14074   0.00000  Uiso   1.00
H1208  H     0.10002   0.60676   0.60131   0.00000  Uiso   1.00
H1209  H     0.09090   0.65442   0.61725   0.00000  Uiso   1.00
H1210  H     0.03520   0.59837   0.57092   0.00000  Uiso   1.00
H1211  H     0.36824   0.76280   0.59824   0.00000  Uiso   1.00
H1212  H     0.02675   0.64586   0.58568   0.00000  Uiso   1.00
H1213  H     0.07322   0.66302   0.50808   0.00000  Uiso   1.00
H1214  H     0.03745   0.63530   0.47714   0.00000  Uiso   1.00
H1215  H     0.08088   0.61517   0.49297   0.00000  Uiso   1.00
H1216  H     0.48092   0.93293   0.23174   0.00000  Uiso   1.00
H1217  H     0.44062   0.92609   0.18919   0.00000  Uiso   1.00
H1218  H     0.00137   0.86871   0.20525   0.00000  Uiso   1.00
H1219  H     0.46230   0.86480   0.15724   0.00000  Uiso   1.00
H1220  H     0.48378   0.91883   0.09813   0.00000  Uiso   1.00
H1221  H     0.01675   0.88258   0.09923   0.00000  Uiso   1.00
H1222  H     0.32867   0.77043   0.64390   0.00000  Uiso   1.00
H1223  H     0.02333   0.92205   0.14599   0.00000  Uiso   1.00
H1224  H     0.15097   0.87166   0.60001   0.00000  Uiso   1.00
H1225  H     0.18736   0.89767   0.63469   0.00000  Uiso   1.00
H1226  H     0.13969   0.92181   0.52858   0.00000  Uiso   1.00
H1227  H     0.17365   0.94959   0.56441   0.00000  Uiso   1.00
H1228  H     0.22153   0.90456   0.53713   0.00000  Uiso   1.00
H1229  H     0.19749   0.92032   0.47180   0.00000  Uiso   1.00
H1230  H     0.18764   0.87582   0.50204   0.00000  Uiso   1.00
H1231  H     0.43211   0.52066   0.22550   0.00000  Uiso   1.00
H1232  H     0.42609   0.56238   0.18699   0.00000  Uiso   1.00
H1233  H     0.31966   0.82701   0.13967   0.00000  Uiso   1.00
H1234  H     0.39944   0.99669   0.14883   0.00000  Uiso   1.00
H1235  H     0.36195   0.50842   0.19580   0.00000  Uiso   1.00
H1236  H     0.35637   0.56829   0.13755   0.00000  Uiso   1.00
H1237  H     0.35092   0.52832   0.09179   0.00000  Uiso   1.00
H1238  H     0.39307   0.55326   0.09024   0.00000  Uiso   1.00
H1239  H     0.41172   0.90216   0.60842   0.00000  Uiso   1.00
H1240  H     0.41353   0.85371   0.62373   0.00000  Uiso   1.00
H1241  H     0.47584   0.90376   0.58424   0.00000  Uiso   1.00
H1242  H     0.48280   0.85834   0.61284   0.00000  Uiso   1.00
H1243  H     0.44222   0.83344   0.53210   0.00000  Uiso   1.00
H1244  H     0.31470   0.87573   0.12851   0.00000  Uiso   1.00
H1245  H     0.48064   0.85756   0.50242   0.00000  Uiso   1.00
H1246  H     0.43666   0.87912   0.50275   0.00000  Uiso   1.00
H1247  H     0.02305   0.57910   0.33694   0.00000  Uiso   1.00
H1248  H     0.06252   0.55907   0.30721   0.00000  Uiso   1.00
H1249  H     0.01031   0.61096   0.24008   0.00000  Uiso   1.00
H1250  H     0.05061   0.59144   0.20781   0.00000  Uiso   1.00
H1251  H     0.02643   0.52890   0.22435   0.00000  Uiso   1.00
H1252  H     0.49588   0.55596   0.17964   0.00000  Uiso   1.00
H1253  H     0.48621   0.54761   0.25779   0.00000  Uiso   1.00
H1254  H     0.42561   0.93325   0.35178   0.00000  Uiso   1.00
H1255  H     0.25288   0.82181   0.15676   0.00000  Uiso   1.00
H1256  H     0.37755   0.93889   0.36661   0.00000  Uiso   1.00
H1257  H     0.43040   0.99969   0.32847   0.00000  Uiso   1.00
H1258  H     0.38274   0.50478   0.34601   0.00000  Uiso   1.00
H1259  H     0.39457   0.98245   0.44969   0.00000  Uiso   1.00
H1260  H     0.42088   0.52262   0.43194   0.00000  Uiso   1.00
H1261  H     0.44243   0.97857   0.43241   0.00000  Uiso   1.00
H1262  H     0.07938   0.51498   0.68513   0.00000  Uiso   1.00
H1263  H     0.06171   0.55181   0.72768   0.00000  Uiso   1.00
H1264  H     0.12901   0.50653   0.76485   0.00000  Uiso   1.00
H1265  H     0.10554   0.53975   0.80985   0.00000  Uiso   1.00
H1266  H     0.24826   0.87018   0.14440   0.00000  Uiso   1.00
H1267  H     0.04929   0.99884   0.80287   0.00000  Uiso   1.00
H1268  H     0.08745   0.97901   0.84150   0.00000  Uiso   1.00
H1269  H     0.07771   0.96546   0.76581   0.00000  Uiso   1.00
H1270  H     0.06991   0.92575   0.35597   0.00000  Uiso   1.00
H1271  H     0.06399   0.87756   0.37118   0.00000  Uiso   1.00
H1272  H     0.00263   0.93040   0.33673   0.00000  Uiso   1.00
H1273  H     0.49801   0.88321   0.35820   0.00000  Uiso   1.00
H1274  H     0.02540   0.89898   0.45928   0.00000  Uiso   1.00
H1275  H     0.48376   0.92300   0.44388   0.00000  Uiso   1.00
H1276  H     0.02663   0.94629   0.43680   0.00000  Uiso   1.00
H1277  H     0.27253   0.86277   0.04035   0.00000  Uiso   1.00
H1278  H     0.45901   0.56113   0.77797   0.00000  Uiso   1.00
H1279  H     0.44765   0.60087   0.82230   0.00000  Uiso   1.00
H1280  H     0.01524   0.59307   0.74329   0.00000  Uiso   1.00
H1281  H     0.00380   0.63176   0.78896   0.00000  Uiso   1.00
H1282  H     0.00719   0.59362   0.88092   0.00000  Uiso   1.00
H1283  H     0.04899   0.59141   0.83900   0.00000  Uiso   1.00
H1284  H     0.01736   0.55391   0.83595   0.00000  Uiso   1.00
H1285  H     0.12573   0.60936   0.40621   0.00000  Uiso   1.00
H1286  H     0.16909   0.59217   0.37997   0.00000  Uiso   1.00
H1287  H     0.11123   0.54948   0.45090   0.00000  Uiso   1.00
H1288  H     0.11423   0.82069   0.12369   0.00000  Uiso   1.00
H1289  H     0.23290   0.83491   0.05283   0.00000  Uiso   1.00
H1290  H     0.15271   0.53052   0.42190   0.00000  Uiso   1.00
H1291  H     0.18895   0.57391   0.48396   0.00000  Uiso   1.00
H1292  H     0.15865   0.54713   0.52966   0.00000  Uiso   1.00
H1293  H     0.14755   0.59383   0.51267   0.00000  Uiso   1.00
H1294  H     0.43162   0.98036   0.75135   0.00000  Uiso   1.00
H1295  H     0.42905   0.93904   0.79271   0.00000  Uiso   1.00
H1296  H     0.36912   0.99815   0.78802   0.00000  Uiso   1.00
H1297  H     0.36881   0.95789   0.83428   0.00000  Uiso   1.00
H1298  H     0.42465   0.97974   0.88693   0.00000  Uiso   1.00
H1299  H     0.38774   0.51176   0.89272   0.00000  Uiso   1.00
H1300  H     0.27724   0.81425   0.05283   0.00000  Uiso   1.00
H1301  H     0.42439   0.52052   0.84133   0.00000  Uiso   1.00
H1302  H     0.45904   0.56856   0.35028   0.00000  Uiso   1.00
H1303  H     0.41464   0.58561   0.36351   0.00000  Uiso   1.00
H1304  H     0.48522   0.63025   0.37715   0.00000  Uiso   1.00
H1305  H     0.43988   0.64615   0.39200   0.00000  Uiso   1.00
H1306  H     0.43261   0.59743   0.47065   0.00000  Uiso   1.00
H1307  H     0.46981   0.62787   0.48626   0.00000  Uiso   1.00
H1308  H     0.47880   0.58302   0.45677   0.00000  Uiso   1.00
H1309  H     0.03874   0.90712   0.61386   0.00000  Uiso   1.00
H1310  H     0.07197   0.93116   0.65516   0.00000  Uiso   1.00
H1311  H     0.22554   0.67088   0.83647   0.00000  Uiso   1.00
H1312  H     0.00889   0.88570   0.70814   0.00000  Uiso   1.00
H1313  H     0.04279   0.90864   0.75195   0.00000  Uiso   1.00
H1314  H     0.02403   0.96848   0.70239   0.00000  Uiso   1.00
H1315  H     0.48972   0.94722   0.74774   0.00000  Uiso   1.00
H1316  H     0.48723   0.94424   0.66718   0.00000  Uiso   1.00
H1317  H     0.18673   0.68910   0.80116   0.00000  Uiso   1.00
H1318  H     0.24150   0.63497   0.74572   0.00000  Uiso   1.00
H1319  H     0.20141   0.65077   0.70804   0.00000  Uiso   1.00
H1320  H     0.22257   0.71437   0.71266   0.00000  Uiso   1.00
H1321  H     0.25648   0.68596   0.67825   0.00000  Uiso   1.00
H1322  H     0.26210   0.70088   0.75485   0.00000  Uiso   1.00
H1323  H     0.31502   0.71414   0.16753   0.00000  Uiso   1.00
H1324  H     0.17850   0.76734   0.12247   0.00000  Uiso   1.00
H1325  H     0.33697   0.67393   0.13982   0.00000  Uiso   1.00
H1326  H     0.37330   0.74944   0.14773   0.00000  Uiso   1.00
H1327  H     0.39225   0.70855   0.11583   0.00000  Uiso   1.00
H1328  H     0.34198   0.70704   0.03996   0.00000  Uiso   1.00
H1329  H     0.36886   0.74806   0.03656   0.00000  Uiso   1.00
H1330  H     0.32450   0.74916   0.07088   0.00000  Uiso   1.00
H1331  H     0.16217   0.80437   0.89844   0.00000  Uiso   1.00
H1332  H     0.17956   0.81738   0.82731   0.00000  Uiso   1.00
H1333  H     0.17185   0.74835   0.85118   0.00000  Uiso   1.00
H1334  H     0.12407   0.75506   0.84158   0.00000  Uiso   1.00
H1335  H     0.13130   0.75409   0.12576   0.00000  Uiso   1.00
H1336  H     0.13739   0.77992   0.73632   0.00000  Uiso   1.00
H1337  H     0.15101   0.73345   0.74694   0.00000  Uiso   1.00
H1338  H     0.18454   0.76929   0.74841   0.00000  Uiso   1.00
H1339  H     0.15473   0.65303   0.10287   0.00000  Uiso   1.00
H1340  H     0.15424   0.60381   0.11181   0.00000  Uiso   1.00
H1341  H     0.22074   0.65001   0.07643   0.00000  Uiso   1.00
H1342  H     0.21935   0.60117   0.08431   0.00000  Uiso   1.00
H1343  H     0.17149   0.59835   0.00307   0.00000  Uiso   1.00
H1344  H     0.21346   0.61809   0.97756   0.00000  Uiso   1.00
H1345  H     0.17556   0.64721   0.99404   0.00000  Uiso   1.00
H1346  H     0.12007   0.78457   0.02771   0.00000  Uiso   1.00
H1347  H     0.26768   0.81537   0.76010   0.00000  Uiso   1.00
H1348  H     0.30666   0.81622   0.71300   0.00000  Uiso   1.00
H1349  H     0.24562   0.87397   0.71502   0.00000  Uiso   1.00
H1350  H     0.28467   0.87465   0.66641   0.00000  Uiso   1.00
H1351  H     0.26520   0.81428   0.62299   0.00000  Uiso   1.00
H1352  H     0.23170   0.84936   0.61288   0.00000  Uiso   1.00
H1353  H     0.22523   0.81533   0.67018   0.00000  Uiso   1.00
H1354  H     0.12518   0.64042   0.90822   0.00000  Uiso   1.00
H1355  H     0.08113   0.65690   0.88364   0.00000  Uiso   1.00
H1356  H     0.13973   0.70171   0.94912   0.00000  Uiso   1.00
H1357  H     0.15601   0.75155   0.02168   0.00000  Uiso   1.00
H1358  H     0.09651   0.71866   0.92413   0.00000  Uiso   1.00
H1359  H     0.06438   0.67484   0.99075   0.00000  Uiso   1.00
H1360  H     0.09559   0.70282   0.03273   0.00000  Uiso   1.00
H1361  H     0.10737   0.65635   0.01527   0.00000  Uiso   1.00
H1362  H     0.31885   0.76652   0.26016   0.00000  Uiso   1.00
H1363  H     0.31928   0.80879   0.29928   0.00000  Uiso   1.00
H1364  H     0.38034   0.75091   0.30083   0.00000  Uiso   1.00
H1365  H     0.38097   0.79327   0.34160   0.00000  Uiso   1.00
H1366  H     0.32591   0.77451   0.39857   0.00000  Uiso   1.00
H1367  H     0.36200   0.74176   0.40665   0.00000  Uiso   1.00
H1368  H     0.16694   0.79938   0.02489   0.00000  Uiso   1.00
H1369  H     0.32440   0.73205   0.35750   0.00000  Uiso   1.00
H1370  H     0.29116   0.68053   0.85458   0.00000  Uiso   1.00
H1371  H     0.33538   0.66261   0.86774   0.00000  Uiso   1.00
H1372  H     0.26381   0.61956   0.88029   0.00000  Uiso   1.00
H1373  H     0.30873   0.60193   0.89323   0.00000  Uiso   1.00
H1374  H     0.31836   0.64892   0.97389   0.00000  Uiso   1.00
H1375  H     0.28038   0.61945   0.98911   0.00000  Uiso   1.00
H1376  H     0.27255   0.66510   0.96204   0.00000  Uiso   1.00
H1377  H     0.22952   0.81733   0.26225   0.00000  Uiso   1.00
H1378  H     0.18843   0.82332   0.30336   0.00000  Uiso   1.00
H1379  H     0.31931   0.73237   0.73602   0.00000  Uiso   1.00
H1380  H     0.25114   0.87920   0.29394   0.00000  Uiso   1.00
H1381  H     0.21003   0.88533   0.33643   0.00000  Uiso   1.00
H1382  H     0.22484   0.83180   0.39977   0.00000  Uiso   1.00
H1383  H     0.26082   0.86514   0.40131   0.00000  Uiso   1.00
H1384  H     0.26589   0.82430   0.35719   0.00000  Uiso   1.00
H1385  H     0.33274   0.82723   0.86578   0.00000  Uiso   1.00
H1386  H     0.37603   0.80564   0.87686   0.00000  Uiso   1.00
H1387  H     0.30858   0.76322   0.83493   0.00000  Uiso   1.00
H1388  H     0.35026   0.74566   0.86556   0.00000  Uiso   1.00
H1389  H     0.33481   0.77939   0.96311   0.00000  Uiso   1.00
H1390  H     0.32343   0.69079   0.69521   0.00000  Uiso   1.00
H1391  H     0.30381   0.74309   0.94327   0.00000  Uiso   1.00
H1392  H     0.29123   0.78995   0.93085   0.00000  Uiso   1.00
H1393  H     0.18197   0.72914   0.20625   0.00000  Uiso   1.00
H1394  H     0.18884   0.68930   0.24936   0.00000  Uiso   1.00
H1395  H     0.13280   0.75043   0.27239   0.00000  Uiso   1.00
H1396  H     0.13489   0.70924   0.31574   0.00000  Uiso   1.00
H1397  H     0.19519   0.72305   0.35225   0.00000  Uiso   1.00
H1398  H     0.16812   0.76343   0.36149   0.00000  Uiso   1.00
H1399  H     0.20039   0.76042   0.30073   0.00000  Uiso   1.00
H1400  H     0.12442   0.89251   0.90423   0.00000  Uiso   1.00
O1401  O     0.00000   0.75000   0.25000   0.00000  Uiso   1.00
O1402  O     0.00000   0.78036   0.61781   0.00000  Uiso   1.00
O1403  O     0.21965   0.50000   0.38219   0.00000  Uiso   1.00
O1404  O     0.28036   0.50000   0.61781   0.00000  Uiso   1.00
O1405  O     0.25000   0.53036   0.88219   0.00000  Uiso   1.00
O1406  O     0.25000   0.96965   0.11781   0.00000  Uiso   1.00
O1407  O     0.03036   0.75000   0.88219   0.00000  Uiso   1.00
O1408  O     0.46965   0.75000   0.11781   0.00000  Uiso   1.00
O1409  O     0.25000   0.96965   0.88219   0.00000  Uiso   1.00
O1410  O     0.25000   0.53036   0.11781   0.00000  Uiso   1.00
O1411  O     0.46965   0.75000   0.88219   0.00000  Uiso   1.00
O1412  O     0.00000   0.75000   0.75000   0.00000  Uiso   1.00
O1413  O     0.03036   0.75000   0.11781   0.00000  Uiso   1.00
O1414  O     0.04268   0.67693   0.28474   0.00000  Uiso   1.00
O1415  O     0.45733   0.82308   0.71526   0.00000  Uiso   1.00
O1416  O     0.17693   0.95733   0.28474   0.00000  Uiso   1.00
O1417  O     0.32308   0.54268   0.71526   0.00000  Uiso   1.00
O1418  O     0.45733   0.82308   0.28474   0.00000  Uiso   1.00
O1419  O     0.04268   0.67693   0.71526   0.00000  Uiso   1.00
O1420  O     0.32308   0.54268   0.28474   0.00000  Uiso   1.00
O1421  O     0.17693   0.95733   0.71526   0.00000  Uiso   1.00
O1422  O     0.04268   0.82308   0.71526   0.00000  Uiso   1.00
O1423  O     0.25000   0.50000   0.25000   0.00000  Uiso   1.00
O1424  O     0.45733   0.67693   0.28474   0.00000  Uiso   1.00
O1425  O     0.17693   0.54268   0.71526   0.00000  Uiso   1.00
O1426  O     0.32308   0.95733   0.28474   0.00000  Uiso   1.00
O1427  O     0.45733   0.67693   0.71526   0.00000  Uiso   1.00
O1428  O     0.04268   0.82308   0.28474   0.00000  Uiso   1.00
O1429  O     0.32308   0.95733   0.71526   0.00000  Uiso   1.00
O1430  O     0.17693   0.54268   0.28474   0.00000  Uiso   1.00
O1431  O     0.29268   0.92693   0.78474   0.00000  Uiso   1.00
O1432  O     0.20733   0.57308   0.21526   0.00000  Uiso   1.00
O1433  O     0.42693   0.70733   0.78474   0.00000  Uiso   1.00
O1434  O     0.25000   0.50000   0.75000   0.00000  Uiso   1.00
O1435  O     0.07308   0.79268   0.21526   0.00000  Uiso   1.00
O1436  O     0.20733   0.57308   0.78474   0.00000  Uiso   1.00
O1437  O     0.29268   0.92693   0.21526   0.00000  Uiso   1.00
O1438  O     0.07308   0.79268   0.78474   0.00000  Uiso   1.00
O1439  O     0.42693   0.70733   0.21526   0.00000  Uiso   1.00
O1440  O     0.29268   0.57308   0.21526   0.00000  Uiso   1.00
O1441  O     0.20733   0.92693   0.78474   0.00000  Uiso   1.00
O1442  O     0.42693   0.79268   0.21526   0.00000  Uiso   1.00
O1443  O     0.07308   0.70733   0.78474   0.00000  Uiso   1.00
O1444  O     0.20733   0.92693   0.21526   0.00000  Uiso   1.00
O1445  O     0.00000   0.78036   0.38219   0.00000  Uiso   1.00
O1446  O     0.29268   0.57308   0.78474   0.00000  Uiso   1.00
O1447  O     0.07308   0.70733   0.21526   0.00000  Uiso   1.00
O1448  O     0.42693   0.79268   0.78474   0.00000  Uiso   1.00
O1449  O     0.14131   0.80737   0.20270   0.00000  Uiso   1.00
O1450  O     0.35660   0.69760   0.77223   0.00000  Uiso   1.00
O1451  O     0.30460   0.85679   0.21524   0.00000  Uiso   1.00
O1452  O     0.18506   0.63343   0.82412   0.00000  Uiso   1.00
O1453  O     0.35674   0.69722   0.22155   0.00000  Uiso   1.00
O1454  O     0.12255   0.82442   0.84345   0.00000  Uiso   1.00
O1455  O     0.18455   0.63314   0.17481   0.00000  Uiso   1.00
O1456  O     0.00000   0.71965   0.61781   0.00000  Uiso   1.00
O1457  O     0.30272   0.85680   0.78072   0.00000  Uiso   1.00
O1458  O     0.12588   0.67857   0.83907   0.00000  Uiso   1.00
O1459  O     0.35649   0.80240   0.22755   0.00000  Uiso   1.00
O1460  O     0.30591   0.64226   0.79199   0.00000  Uiso   1.00
O1461  O     0.19639   0.85630   0.22626   0.00000  Uiso   1.00
O1462  O     0.35742   0.80413   0.78934   0.00000  Uiso   1.00
O1463  O     0.14026   0.69238   0.19848   0.00000  Uiso   1.00
O1464  O     0.16962   0.88327   0.85021   0.00000  Uiso   1.00
O1465  O     0.30204   0.64410   0.22909   0.00000  Uiso   1.00
O1466  O     0.39284   0.55466   0.71481   0.00000  Uiso   1.00
O1467  O     0.28036   0.50000   0.38219   0.00000  Uiso   1.00
O1468  O     0.10603   0.94819   0.26801   0.00000  Uiso   1.00
O1469  O     0.06570   0.61675   0.67363   0.00000  Uiso   1.00
O1470  O     0.44762   0.89416   0.26806   0.00000  Uiso   1.00
O1471  O     0.13526   0.91778   0.64796   0.00000  Uiso   1.00
O1472  O     0.39337   0.55242   0.26411   0.00000  Uiso   1.00
O1473  O     0.43789   0.88810   0.68756   0.00000  Uiso   1.00
O1474  O     0.06384   0.61577   0.32256   0.00000  Uiso   1.00
O1475  O     0.39361   0.94660   0.27778   0.00000  Uiso   1.00
O1476  O     0.11299   0.55925   0.68822   0.00000  Uiso   1.00
O1477  O     0.05413   0.89381   0.28304   0.00000  Uiso   1.00
O1478  O     0.21965   0.50000   0.61781   0.00000  Uiso   1.00
O1479  O     0.44699   0.60646   0.72749   0.00000  Uiso   1.00
O1480  O     0.12334   0.57060   0.33805   0.00000  Uiso   1.00
O1481  O     0.39309   0.94522   0.71900   0.00000  Uiso   1.00
O1482  O     0.44399   0.60723   0.28852   0.00000  Uiso   1.00
O1483  O     0.07445   0.87358   0.65716   0.00000  Uiso   1.00
O1484  O     0.00000   0.71965   0.38219   0.00000  Uiso   1.00
Zn1485 Zn    0.04333   0.75000   0.20067   0.00000  Uiso   1.00
Zn1486 Zn    0.20667   0.50000   0.29933   0.00000  Uiso   1.00
Zn1487 Zn    0.00000   0.70667   0.70067   0.00000  Uiso   1.00
Zn1488 Zn    0.00000   0.79333   0.29933   0.00000  Uiso   1.00
Zn1489 Zn    0.20667   0.50000   0.70067   0.00000  Uiso   1.00
Zn1490 Zn    0.29333   0.50000   0.29933   0.00000  Uiso   1.00
Zn1491 Zn    0.00000   0.79333   0.70067   0.00000  Uiso   1.00
Zn1492 Zn    0.00000   0.70667   0.29933   0.00000  Uiso   1.00
Zn1493 Zn    0.45667   0.75000   0.79933   0.00000  Uiso   1.00
Zn1494 Zn    0.25000   0.95667   0.20067   0.00000  Uiso   1.00
Zn1495 Zn    0.25000   0.54333   0.79933   0.00000  Uiso   1.00
Zn1496 Zn    0.45667   0.75000   0.20067   0.00000  Uiso   1.00
Zn1497 Zn    0.04333   0.75000   0.79933   0.00000  Uiso   1.00
Zn1498 Zn    0.25000   0.54333   0.20067   0.00000  Uiso   1.00
Zn1499 Zn    0.25000   0.95667   0.79933   0.00000  Uiso   1.00
Zn1500 Zn    0.29333   0.50000   0.70067   0.00000  Uiso   1.00
C1501  C     0.50003   0.74994   0.02672   0.00000  Uiso   1.00
C1502  C     0.99998   0.75000   0.58997   0.00000  Uiso   1.00
C1503  C     0.70307   0.62558   0.07250   0.00000  Uiso   1.00
C1504  C     0.68997   0.62208   0.00785   0.00000  Uiso   1.00
C1505  C     0.78686   0.83395   0.73680   0.00000  Uiso   1.00
C1506  C     0.76566   0.85664   0.69125   0.00000  Uiso   1.00
C1507  C     0.74574   0.83229   0.64664   0.00000  Uiso   1.00
C1508  C     0.60996   0.66465   0.89184   0.00000  Uiso   1.00
C1509  C     0.61107   0.69408   0.94020   0.00000  Uiso   1.00
C1510  C     0.59350   0.68109   0.99829   0.00000  Uiso   1.00
C1511  C     0.83707   0.78832   0.27715   0.00000  Uiso   1.00
C1512  C     0.86309   0.77168   0.32305   0.00000  Uiso   1.00
C1513  C     0.74999   0.99999   0.40998   0.00000  Uiso   1.00
C1514  C     0.84246   0.75390   0.37458   0.00000  Uiso   1.00
C1515  C     0.80761   0.65528   0.85186   0.00000  Uiso   1.00
C1516  C     0.79175   0.62687   0.89462   0.00000  Uiso   1.00
C1517  C     0.79072   0.64109   0.95885   0.00000  Uiso   1.00
C1518  C     0.70980   0.83813   0.27766   0.00000  Uiso   1.00
C1519  C     0.72950   0.86482   0.31923   0.00000  Uiso   1.00
C1520  C     0.74630   0.84518   0.37262   0.00000  Uiso   1.00
C1521  C     0.85011   0.80404   0.85152   0.00000  Uiso   1.00
C1522  C     0.83066   0.76856   0.86767   0.00000  Uiso   1.00
C1523  C     0.81415   0.77038   0.93021   0.00000  Uiso   1.00
C1524  C     0.74999   0.99996   0.59002   0.00000  Uiso   1.00
C1525  C     0.66759   0.70881   0.23424   0.00000  Uiso   1.00
C1526  C     0.65111   0.72852   0.28833   0.00000  Uiso   1.00
C1527  C     0.68057   0.74491   0.32804   0.00000  Uiso   1.00
C1528  C     0.65071   0.90535   0.89140   0.00000  Uiso   1.00
C1529  C     0.67384   0.90982   0.94774   0.00000  Uiso   1.00
C1530  C     0.65560   0.93465   0.99347   0.00000  Uiso   1.00
C1531  C     0.78677   0.66039   0.28070   0.00000  Uiso   1.00
C1532  C     0.76793   0.63159   0.31956   0.00000  Uiso   1.00
C1533  C     0.74461   0.64892   0.36814   0.00000  Uiso   1.00
C1534  C     0.89805   0.55436   0.65209   0.00000  Uiso   1.00
C1535  C     0.74994   0.50000   0.91004   0.00000  Uiso   1.00
C1536  C     0.90755   0.51582   0.63239   0.00000  Uiso   1.00
C1537  C     0.91469   0.51400   0.56539   0.00000  Uiso   1.00
C1538  C     0.59482   0.96228   0.21194   0.00000  Uiso   1.00
C1539  C     0.60763   0.50175   0.20667   0.00000  Uiso   1.00
C1540  C     0.59669   0.51865   0.14694   0.00000  Uiso   1.00
C1541  C     0.57901   0.62647   0.61647   0.00000  Uiso   1.00
C1542  C     0.54772   0.62592   0.57160   0.00000  Uiso   1.00
C1543  C     0.56073   0.63547   0.50860   0.00000  Uiso   1.00
C1544  C     0.96155   0.91170   0.21642   0.00000  Uiso   1.00
C1545  C     0.98193   0.88428   0.17727   0.00000  Uiso   1.00
C1546  C     0.74996   0.50000   0.08997   0.00000  Uiso   1.00
C1547  C     0.50270   0.90325   0.12706   0.00000  Uiso   1.00
C1548  C     0.66070   0.89957   0.61149   0.00000  Uiso   1.00
C1549  C     0.66576   0.92113   0.55352   0.00000  Uiso   1.00
C1550  C     0.69494   0.90429   0.51378   0.00000  Uiso   1.00
C1551  C     0.91114   0.54047   0.21139   0.00000  Uiso   1.00
C1552  C     0.88492   0.51996   0.16973   0.00000  Uiso   1.00
C1553  C     0.87045   0.54408   0.11942   0.00000  Uiso   1.00
C1554  C     0.92876   0.87996   0.62733   0.00000  Uiso   1.00
C1555  C     0.96323   0.87651   0.58975   0.00000  Uiso   1.00
C1556  C     0.95504   0.86072   0.52792   0.00000  Uiso   1.00
C1557  C     0.50001   0.74995   0.90998   0.00000  Uiso   1.00
C1558  C     0.54532   0.58372   0.30447   0.00000  Uiso   1.00
C1559  C     0.52886   0.58719   0.24152   0.00000  Uiso   1.00
C1560  C     0.50804   0.55277   0.22480   0.00000  Uiso   1.00
C1561  C     0.90098   0.94908   0.33975   0.00000  Uiso   1.00
C1562  C     0.90762   0.98888   0.35576   0.00000  Uiso   1.00
C1563  C     0.91699   0.99329   0.42166   0.00000  Uiso   1.00
C1564  C     0.58703   0.53680   0.71721   0.00000  Uiso   1.00
C1565  C     0.60223   0.51886   0.77426   0.00000  Uiso   1.00
C1566  C     0.57744   0.98875   0.79744   0.00000  Uiso   1.00
C1567  C     0.55342   0.90121   0.34520   0.00000  Uiso   1.00
C1568  C     0.50001   0.74998   0.09002   0.00000  Uiso   1.00
C1569  C     0.51438   0.90835   0.36468   0.00000  Uiso   1.00
C1570  C     0.51252   0.91983   0.43029   0.00000  Uiso   1.00
C1571  C     0.96142   0.59126   0.78057   0.00000  Uiso   1.00
C1572  C     0.50138   0.60171   0.78490   0.00000  Uiso   1.00
C1573  C     0.51978   0.58399   0.83862   0.00000  Uiso   1.00
C1574  C     0.64035   0.58479   0.38971   0.00000  Uiso   1.00
C1575  C     0.63979   0.55582   0.43884   0.00000  Uiso   1.00
C1576  C     0.66001   0.56859   0.49469   0.00000  Uiso   1.00
C1577  C     0.91232   0.95970   0.76864   0.00000  Uiso   1.00
C1578  C     0.88650   0.97853   0.81260   0.00000  Uiso   1.00
C1579  C     0.57036   0.68016   0.25091   0.00000  Uiso   1.00
C1580  C     0.90724   0.99887   0.86136   0.00000  Uiso   1.00
C1581  C     0.94233   0.59360   0.34806   0.00000  Uiso   1.00
C1582  C     0.95767   0.62176   0.39178   0.00000  Uiso   1.00
C1583  C     0.95982   0.60646   0.45526   0.00000  Uiso   1.00
C1584  C     0.55440   0.90658   0.65625   0.00000  Uiso   1.00
C1585  C     0.52773   0.90926   0.70890   0.00000  Uiso   1.00
C1586  C     0.50587   0.94448   0.70615   0.00000  Uiso   1.00
C1587  C     0.92943   0.81964   0.74885   0.00000  Uiso   1.00
C1588  C     0.67984   0.93019   0.24955   0.00000  Uiso   1.00
C1589  C     0.50003   0.74992   0.97328   0.00000  Uiso   1.00
C1590  C     0.82018   0.57006   0.75039   0.00000  Uiso   1.00
C1591  C     0.92999   0.82002   0.24997   0.00000  Uiso   1.00
C1592  C     0.56962   0.67946   0.75084   0.00000  Uiso   1.00
C1593  C     0.81988   0.57008   0.24988   0.00000  Uiso   1.00
C1594  C     0.68009   0.92994   0.75000   0.00000  Uiso   1.00
C1595  C     0.57007   0.82020   0.75006   0.00000  Uiso   1.00
C1596  C     0.92968   0.68007   0.25062   0.00000  Uiso   1.00
C1597  C     0.67962   0.56979   0.75085   0.00000  Uiso   1.00
C1598  C     0.82017   0.92995   0.24965   0.00000  Uiso   1.00
C1599  C     0.93006   0.67998   0.75001   0.00000  Uiso   1.00
C1600  C     0.74989   0.50000   0.02670   0.00000  Uiso   1.00
C1601  C     0.56986   0.82037   0.24939   0.00000  Uiso   1.00
C1602  C     0.81985   0.92980   0.74985   0.00000  Uiso   1.00
C1603  C     0.68022   0.57033   0.25054   0.00000  Uiso   1.00
C1604  C     0.63303   0.84072   0.22801   0.00000  Uiso   1.00
C1605  C     0.86605   0.66154   0.76283   0.00000  Uiso   1.00
C1606  C     0.83962   0.86589   0.23201   0.00000  Uiso   1.00
C1607  C     0.65394   0.62782   0.79037   0.00000  Uiso   1.00
C1608  C     0.86536   0.66135   0.23489   0.00000  Uiso   1.00
C1609  C     0.62429   0.84931   0.79666   0.00000  Uiso   1.00
C1610  C     0.65592   0.62962   0.21458   0.00000  Uiso   1.00
C1611  C     0.74989   0.50000   0.97330   0.00000  Uiso   1.00
C1612  C     0.83821   0.86540   0.76550   0.00000  Uiso   1.00
C1613  C     0.62481   0.65182   0.79548   0.00000  Uiso   1.00
C1614  C     0.86582   0.83848   0.23762   0.00000  Uiso   1.00
C1615  C     0.84022   0.63387   0.77070   0.00000  Uiso   1.00
C1616  C     0.66067   0.86631   0.23566   0.00000  Uiso   1.00
C1617  C     0.86581   0.83912   0.77052   0.00000  Uiso   1.00
C1618  C     0.63176   0.65851   0.22197   0.00000  Uiso   1.00
C1619  C     0.64843   0.87867   0.79959   0.00000  Uiso   1.00
C1620  C     0.83792   0.63484   0.23951   0.00000  Uiso   1.00
C1621  C     0.88392   0.58964   0.73229   0.00000  Uiso   1.00
C1622  C     0.74995   0.99994   0.52672   0.00000  Uiso   1.00
C1623  C     0.61558   0.91199   0.26135   0.00000  Uiso   1.00
C1624  C     0.59362   0.61971   0.71479   0.00000  Uiso   1.00
C1625  C     0.91165   0.88459   0.25937   0.00000  Uiso   1.00
C1626  C     0.62977   0.89756   0.69953   0.00000  Uiso   1.00
C1627  C     0.88377   0.58870   0.25896   0.00000  Uiso   1.00
C1628  C     0.90751   0.88163   0.72226   0.00000  Uiso   1.00
C1629  C     0.59495   0.62103   0.28861   0.00000  Uiso   1.00
C1630  C     0.88440   0.91100   0.26412   0.00000  Uiso   1.00
C1631  C     0.61832   0.59112   0.72046   0.00000  Uiso   1.00
C1632  C     0.58918   0.88470   0.26661   0.00000  Uiso   1.00
C1633  C     0.74995   0.99996   0.47328   0.00000  Uiso   1.00
C1634  C     0.91119   0.61596   0.73692   0.00000  Uiso   1.00
C1635  C     0.62410   0.59695   0.29378   0.00000  Uiso   1.00
C1636  C     0.88287   0.90974   0.73136   0.00000  Uiso   1.00
C1637  C     0.90963   0.61611   0.26811   0.00000  Uiso   1.00
C1638  C     0.60002   0.87404   0.70283   0.00000  Uiso   1.00
C1639  C     0.65170   0.90240   0.24921   0.00000  Uiso   1.00
C1640  C     0.84843   0.59821   0.75115   0.00000  Uiso   1.00
C1641  C     0.90206   0.84809   0.24931   0.00000  Uiso   1.00
C1642  C     0.59630   0.65001   0.75357   0.00000  Uiso   1.00
C1643  C     0.84755   0.59833   0.24950   0.00000  Uiso   1.00
C1644  C     0.99996   0.75000   0.52671   0.00000  Uiso   1.00
C1645  C     0.65246   0.90166   0.74968   0.00000  Uiso   1.00
C1646  C     0.59918   0.65275   0.25348   0.00000  Uiso   1.00
C1647  C     0.90055   0.84705   0.74718   0.00000  Uiso   1.00
C1648  C     0.65035   0.59665   0.75385   0.00000  Uiso   1.00
C1649  C     0.84841   0.90191   0.24870   0.00000  Uiso   1.00
C1650  C     0.90199   0.65215   0.74959   0.00000  Uiso   1.00
C1651  C     0.59765   0.84892   0.24814   0.00000  Uiso   1.00
C1652  C     0.84742   0.90135   0.74957   0.00000  Uiso   1.00
C1653  C     0.65299   0.59916   0.25255   0.00000  Uiso   1.00
C1654  C     0.59841   0.84828   0.74989   0.00000  Uiso   1.00
C1655  C     0.99996   0.75000   0.47330   0.00000  Uiso   1.00
C1656  C     0.90117   0.65218   0.25152   0.00000  Uiso   1.00
C1657  C     0.64141   0.81167   0.13967   0.00000  Uiso   1.00
C1658  C     0.65050   0.77537   0.10993   0.00000  Uiso   1.00
C1659  C     0.64819   0.77802   0.04181   0.00000  Uiso   1.00
C1660  C     0.83914   0.71167   0.72070   0.00000  Uiso   1.00
C1661  C     0.86653   0.73043   0.67929   0.00000  Uiso   1.00
C1662  C     0.84767   0.74939   0.62713   0.00000  Uiso   1.00
C1663  C     0.80368   0.85147   0.15251   0.00000  Uiso   1.00
C1664  C     0.76443   0.84568   0.13278   0.00000  Uiso   1.00
C1665  C     0.76174   0.83900   0.06546   0.00000  Uiso   1.00
C1666  C     0.99998   0.75000   0.41004   0.00000  Uiso   1.00
C1667  C     0.70409   0.66454   0.80322   0.00000  Uiso   1.00
C1668  C     0.72214   0.65795   0.74214   0.00000  Uiso   1.00
C1669  C     0.74209   0.69195   0.72078   0.00000  Uiso   1.00
C1670  C     0.84170   0.70038   0.16330   0.00000  Uiso   1.00
C1671  C     0.86668   0.72361   0.12424   0.00000  Uiso   1.00
C1672  C     0.84924   0.73245   0.06419   0.00000  Uiso   1.00
C1673  C     0.65558   0.80495   0.84991   0.00000  Uiso   1.00
C1674  C     0.65119   0.76553   0.82860   0.00000  Uiso   1.00
C1675  C     0.65632   0.76196   0.76092   0.00000  Uiso   1.00
C1676  C     0.67119   0.62892   0.11586   0.00000  Uiso   1.00
H1677  H     0.66216   0.83204   0.12550   0.00000  Uiso   1.00
H1678  H     0.88229   0.75090   0.70513   0.00000  Uiso   1.00
H1679  H     0.64551   0.93277   0.87182   0.00000  Uiso   1.00
H1680  H     0.67850   0.88267   0.96836   0.00000  Uiso   1.00
H1681  H     0.70058   0.92162   0.93539   0.00000  Uiso   1.00
H1682  H     0.65141   0.96220   0.97418   0.00000  Uiso   1.00
H1683  H     0.67312   0.93721   0.03370   0.00000  Uiso   1.00
H1684  H     0.62904   0.92309   0.00731   0.00000  Uiso   1.00
H1685  H     0.76618   0.68033   0.26520   0.00000  Uiso   1.00
H1686  H     0.80674   0.67602   0.30805   0.00000  Uiso   1.00
H1687  H     0.75033   0.61419   0.29104   0.00000  Uiso   1.00
H1688  H     0.78869   0.61411   0.34116   0.00000  Uiso   1.00
H1689  H     0.88561   0.70993   0.66091   0.00000  Uiso   1.00
H1690  H     0.76108   0.66776   0.39601   0.00000  Uiso   1.00
H1691  H     0.73316   0.62731   0.39739   0.00000  Uiso   1.00
H1692  H     0.72182   0.66404   0.34744   0.00000  Uiso   1.00
H1693  H     0.92066   0.57275   0.63866   0.00000  Uiso   1.00
H1694  H     0.87281   0.56297   0.62857   0.00000  Uiso   1.00
H1695  H     0.93227   0.50665   0.65633   0.00000  Uiso   1.00
H1696  H     0.88467   0.99732   0.64349   0.00000  Uiso   1.00
H1697  H     0.89015   0.52254   0.54028   0.00000  Uiso   1.00
H1698  H     0.92157   0.98557   0.55294   0.00000  Uiso   1.00
H1699  H     0.93779   0.53196   0.55305   0.00000  Uiso   1.00
H1700  H     0.83242   0.72926   0.59981   0.00000  Uiso   1.00
H1701  H     0.56472   0.96144   0.20980   0.00000  Uiso   1.00
H1702  H     0.60577   0.94694   0.17262   0.00000  Uiso   1.00
H1703  H     0.59601   0.51803   0.24385   0.00000  Uiso   1.00
H1704  H     0.63763   0.50258   0.21029   0.00000  Uiso   1.00
H1705  H     0.61015   0.50414   0.10940   0.00000  Uiso   1.00
H1706  H     0.60521   0.54767   0.14598   0.00000  Uiso   1.00
H1707  H     0.56687   0.51723   0.14074   0.00000  Uiso   1.00
H1708  H     0.60002   0.60676   0.60131   0.00000  Uiso   1.00
H1709  H     0.59090   0.65442   0.61725   0.00000  Uiso   1.00
H1710  H     0.53520   0.59837   0.57092   0.00000  Uiso   1.00
H1711  H     0.86824   0.76280   0.59824   0.00000  Uiso   1.00
H1712  H     0.52675   0.64586   0.58568   0.00000  Uiso   1.00
H1713  H     0.57322   0.66302   0.50808   0.00000  Uiso   1.00
H1714  H     0.53745   0.63530   0.47714   0.00000  Uiso   1.00
H1715  H     0.58088   0.61517   0.49297   0.00000  Uiso   1.00
H1716  H     0.98092   0.93293   0.23174   0.00000  Uiso   1.00
H1717  H     0.94062   0.92609   0.18919   0.00000  Uiso   1.00
H1718  H     0.50137   0.86871   0.20525   0.00000  Uiso   1.00
H1719  H     0.96230   0.86480   0.15724   0.00000  Uiso   1.00
H1720  H     0.98378   0.91883   0.09813   0.00000  Uiso   1.00
H1721  H     0.51675   0.88258   0.09923   0.00000  Uiso   1.00
H1722  H     0.82867   0.77043   0.64390   0.00000  Uiso   1.00
H1723  H     0.52333   0.92205   0.14599   0.00000  Uiso   1.00
H1724  H     0.65097   0.87166   0.60001   0.00000  Uiso   1.00
H1725  H     0.68736   0.89767   0.63469   0.00000  Uiso   1.00
H1726  H     0.63969   0.92181   0.52858   0.00000  Uiso   1.00
H1727  H     0.67365   0.94959   0.56441   0.00000  Uiso   1.00
H1728  H     0.72153   0.90456   0.53713   0.00000  Uiso   1.00
H1729  H     0.69749   0.92032   0.47180   0.00000  Uiso   1.00
H1730  H     0.68764   0.87582   0.50204   0.00000  Uiso   1.00
H1731  H     0.93211   0.52066   0.22550   0.00000  Uiso   1.00
H1732  H     0.92609   0.56238   0.18699   0.00000  Uiso   1.00
H1733  H     0.81966   0.82701   0.13967   0.00000  Uiso   1.00
H1734  H     0.89944   0.99669   0.14883   0.00000  Uiso   1.00
H1735  H     0.86195   0.50842   0.19580   0.00000  Uiso   1.00
H1736  H     0.85637   0.56829   0.13755   0.00000  Uiso   1.00
H1737  H     0.85092   0.52832   0.09179   0.00000  Uiso   1.00
H1738  H     0.89307   0.55326   0.09024   0.00000  Uiso   1.00
H1739  H     0.91172   0.90216   0.60842   0.00000  Uiso   1.00
H1740  H     0.91353   0.85371   0.62373   0.00000  Uiso   1.00
H1741  H     0.97584   0.90376   0.58424   0.00000  Uiso   1.00
H1742  H     0.98280   0.85834   0.61284   0.00000  Uiso   1.00
H1743  H     0.94222   0.83344   0.53210   0.00000  Uiso   1.00
H1744  H     0.81470   0.87573   0.12851   0.00000  Uiso   1.00
H1745  H     0.98064   0.85756   0.50242   0.00000  Uiso   1.00
H1746  H     0.93666   0.87912   0.50275   0.00000  Uiso   1.00
H1747  H     0.52305   0.57910   0.33694   0.00000  Uiso   1.00
H1748  H     0.56252   0.55907   0.30721   0.00000  Uiso   1.00
H1749  H     0.51031   0.61096   0.24008   0.00000  Uiso   1.00
H1750  H     0.55061   0.59144   0.20781   0.00000  Uiso   1.00
H1751  H     0.52643   0.52890   0.22435   0.00000  Uiso   1.00
H1752  H     0.99588   0.55596   0.17964   0.00000  Uiso   1.00
H1753  H     0.98621   0.54761   0.25779   0.00000  Uiso   1.00
H1754  H     0.92561   0.93325   0.35178   0.00000  Uiso   1.00
H1755  H     0.75288   0.82181   0.15676   0.00000  Uiso   1.00
H1756  H     0.87755   0.93889   0.36661   0.00000  Uiso   1.00
H1757  H     0.93040   0.99969   0.32847   0.00000  Uiso   1.00
H1758  H     0.88274   0.50478   0.34601   0.00000  Uiso   1.00
H1759  H     0.89457   0.98245   0.44969   0.00000  Uiso   1.00
H1760  H     0.92088   0.52262   0.43194   0.00000  Uiso   1.00
H1761  H     0.94243   0.97857   0.43241   0.00000  Uiso   1.00
H1762  H     0.57938   0.51498   0.68513   0.00000  Uiso   1.00
H1763  H     0.56171   0.55181   0.72768   0.00000  Uiso   1.00
H1764  H     0.62901   0.50653   0.76485   0.00000  Uiso   1.00
H1765  H     0.60554   0.53975   0.80985   0.00000  Uiso   1.00
H1766  H     0.74826   0.87018   0.14440   0.00000  Uiso   1.00
H1767  H     0.54929   0.99884   0.80287   0.00000  Uiso   1.00
H1768  H     0.58745   0.97901   0.84150   0.00000  Uiso   1.00
H1769  H     0.57771   0.96546   0.76581   0.00000  Uiso   1.00
H1770  H     0.56991   0.92575   0.35597   0.00000  Uiso   1.00
H1771  H     0.56399   0.87756   0.37118   0.00000  Uiso   1.00
H1772  H     0.50263   0.93040   0.33673   0.00000  Uiso   1.00
H1773  H     0.99801   0.88321   0.35820   0.00000  Uiso   1.00
H1774  H     0.52540   0.89898   0.45928   0.00000  Uiso   1.00
H1775  H     0.98376   0.92300   0.44388   0.00000  Uiso   1.00
H1776  H     0.52663   0.94629   0.43680   0.00000  Uiso   1.00
H1777  H     0.77253   0.86277   0.04035   0.00000  Uiso   1.00
H1778  H     0.95901   0.56113   0.77797   0.00000  Uiso   1.00
H1779  H     0.94765   0.60087   0.82230   0.00000  Uiso   1.00
H1780  H     0.51524   0.59307   0.74329   0.00000  Uiso   1.00
H1781  H     0.50380   0.63176   0.78896   0.00000  Uiso   1.00
H1782  H     0.50719   0.59362   0.88092   0.00000  Uiso   1.00
H1783  H     0.54899   0.59141   0.83900   0.00000  Uiso   1.00
H1784  H     0.51736   0.55391   0.83595   0.00000  Uiso   1.00
H1785  H     0.62573   0.60936   0.40621   0.00000  Uiso   1.00
H1786  H     0.66909   0.59217   0.37997   0.00000  Uiso   1.00
H1787  H     0.61123   0.54948   0.45090   0.00000  Uiso   1.00
H1788  H     0.61423   0.82069   0.12369   0.00000  Uiso   1.00
H1789  H     0.73290   0.83491   0.05283   0.00000  Uiso   1.00
H1790  H     0.65271   0.53052   0.42190   0.00000  Uiso   1.00
H1791  H     0.68895   0.57391   0.48396   0.00000  Uiso   1.00
H1792  H     0.65865   0.54713   0.52966   0.00000  Uiso   1.00
H1793  H     0.64755   0.59383   0.51267   0.00000  Uiso   1.00
H1794  H     0.93162   0.98036   0.75135   0.00000  Uiso   1.00
H1795  H     0.92905   0.93904   0.79271   0.00000  Uiso   1.00
H1796  H     0.86912   0.99815   0.78802   0.00000  Uiso   1.00
H1797  H     0.86881   0.95789   0.83428   0.00000  Uiso   1.00
H1798  H     0.92465   0.97974   0.88693   0.00000  Uiso   1.00
H1799  H     0.88774   0.51176   0.89272   0.00000  Uiso   1.00
H1800  H     0.77724   0.81425   0.05283   0.00000  Uiso   1.00
H1801  H     0.92439   0.52052   0.84133   0.00000  Uiso   1.00
H1802  H     0.95904   0.56856   0.35028   0.00000  Uiso   1.00
H1803  H     0.91464   0.58561   0.36351   0.00000  Uiso   1.00
H1804  H     0.98522   0.63025   0.37715   0.00000  Uiso   1.00
H1805  H     0.93988   0.64615   0.39200   0.00000  Uiso   1.00
H1806  H     0.93261   0.59743   0.47065   0.00000  Uiso   1.00
H1807  H     0.96981   0.62787   0.48626   0.00000  Uiso   1.00
H1808  H     0.97880   0.58302   0.45677   0.00000  Uiso   1.00
H1809  H     0.53874   0.90712   0.61386   0.00000  Uiso   1.00
H1810  H     0.57197   0.93116   0.65516   0.00000  Uiso   1.00
H1811  H     0.72554   0.67088   0.83647   0.00000  Uiso   1.00
H1812  H     0.50889   0.88570   0.70814   0.00000  Uiso   1.00
H1813  H     0.54279   0.90864   0.75195   0.00000  Uiso   1.00
H1814  H     0.52403   0.96848   0.70239   0.00000  Uiso   1.00
H1815  H     0.98972   0.94722   0.74774   0.00000  Uiso   1.00
H1816  H     0.98723   0.94424   0.66718   0.00000  Uiso   1.00
H1817  H     0.68673   0.68910   0.80116   0.00000  Uiso   1.00
H1818  H     0.74150   0.63497   0.74572   0.00000  Uiso   1.00
H1819  H     0.70141   0.65077   0.70804   0.00000  Uiso   1.00
H1820  H     0.72257   0.71437   0.71266   0.00000  Uiso   1.00
H1821  H     0.75648   0.68596   0.67825   0.00000  Uiso   1.00
H1822  H     0.76210   0.70088   0.75485   0.00000  Uiso   1.00
H1823  H     0.81502   0.71414   0.16753   0.00000  Uiso   1.00
H1824  H     0.67850   0.76734   0.12247   0.00000  Uiso   1.00
H1825  H     0.83697   0.67393   0.13982   0.00000  Uiso   1.00
H1826  H     0.87330   0.74944   0.14773   0.00000  Uiso   1.00
H1827  H     0.89225   0.70855   0.11583   0.00000  Uiso   1.00
H1828  H     0.84198   0.70704   0.03996   0.00000  Uiso   1.00
H1829  H     0.86886   0.74806   0.03656   0.00000  Uiso   1.00
H1830  H     0.82450   0.74916   0.07088   0.00000  Uiso   1.00
H1831  H     0.66217   0.80437   0.89844   0.00000  Uiso   1.00
H1832  H     0.67956   0.81738   0.82731   0.00000  Uiso   1.00
H1833  H     0.67185   0.74835   0.85118   0.00000  Uiso   1.00
H1834  H     0.62407   0.75506   0.84158   0.00000  Uiso   1.00
H1835  H     0.63130   0.75409   0.12576   0.00000  Uiso   1.00
H1836  H     0.63739   0.77992   0.73632   0.00000  Uiso   1.00
H1837  H     0.65101   0.73345   0.74694   0.00000  Uiso   1.00
H1838  H     0.68454   0.76929   0.74841   0.00000  Uiso   1.00
H1839  H     0.65473   0.65303   0.10287   0.00000  Uiso   1.00
H1840  H     0.65424   0.60381   0.11181   0.00000  Uiso   1.00
H1841  H     0.72074   0.65001   0.07643   0.00000  Uiso   1.00
H1842  H     0.71935   0.60117   0.08431   0.00000  Uiso   1.00
H1843  H     0.67149   0.59835   0.00307   0.00000  Uiso   1.00
H1844  H     0.71346   0.61809   0.97756   0.00000  Uiso   1.00
H1845  H     0.67556   0.64721   0.99404   0.00000  Uiso   1.00
H1846  H     0.62007   0.78457   0.02771   0.00000  Uiso   1.00
H1847  H     0.76768   0.81537   0.76010   0.00000  Uiso   1.00
H1848  H     0.80666   0.81622   0.71300   0.00000  Uiso   1.00
H1849  H     0.74562   0.87397   0.71502   0.00000  Uiso   1.00
H1850  H     0.78467   0.87465   0.66641   0.00000  Uiso   1.00
H1851  H     0.76520   0.81428   0.62299   0.00000  Uiso   1.00
H1852  H     0.73170   0.84936   0.61288   0.00000  Uiso   1.00
H1853  H     0.72523   0.81533   0.67018   0.00000  Uiso   1.00
H1854  H     0.62518   0.64042   0.90822   0.00000  Uiso   1.00
H1855  H     0.58113   0.65690   0.88364   0.00000  Uiso   1.00
H1856  H     0.63973   0.70171   0.94912   0.00000  Uiso   1.00
H1857  H     0.65601   0.75155   0.02168   0.00000  Uiso   1.00
H1858  H     0.59651   0.71866   0.92413   0.00000  Uiso   1.00
H1859  H     0.56438   0.67484   0.99075   0.00000  Uiso   1.00
H1860  H     0.59559   0.70282   0.03273   0.00000  Uiso   1.00
H1861  H     0.60737   0.65635   0.01527   0.00000  Uiso   1.00
H1862  H     0.81885   0.76652   0.26016   0.00000  Uiso   1.00
H1863  H     0.81928   0.80879   0.29928   0.00000  Uiso   1.00
H1864  H     0.88034   0.75091   0.30083   0.00000  Uiso   1.00
H1865  H     0.88097   0.79327   0.34160   0.00000  Uiso   1.00
H1866  H     0.82591   0.77451   0.39857   0.00000  Uiso   1.00
H1867  H     0.86200   0.74176   0.40665   0.00000  Uiso   1.00
H1868  H     0.66694   0.79938   0.02489   0.00000  Uiso   1.00
H1869  H     0.82440   0.73205   0.35750   0.00000  Uiso   1.00
H1870  H     0.79116   0.68053   0.85458   0.00000  Uiso   1.00
H1871  H     0.83538   0.66261   0.86774   0.00000  Uiso   1.00
H1872  H     0.76381   0.61956   0.88029   0.00000  Uiso   1.00
H1873  H     0.80873   0.60193   0.89323   0.00000  Uiso   1.00
H1874  H     0.81836   0.64892   0.97389   0.00000  Uiso   1.00
H1875  H     0.78038   0.61945   0.98911   0.00000  Uiso   1.00
H1876  H     0.77255   0.66510   0.96204   0.00000  Uiso   1.00
H1877  H     0.72952   0.81733   0.26225   0.00000  Uiso   1.00
H1878  H     0.68843   0.82332   0.30336   0.00000  Uiso   1.00
H1879  H     0.81931   0.73237   0.73602   0.00000  Uiso   1.00
H1880  H     0.75114   0.87920   0.29394   0.00000  Uiso   1.00
H1881  H     0.71003   0.88533   0.33643   0.00000  Uiso   1.00
H1882  H     0.72484   0.83180   0.39977   0.00000  Uiso   1.00
H1883  H     0.76082   0.86514   0.40131   0.00000  Uiso   1.00
H1884  H     0.76589   0.82430   0.35719   0.00000  Uiso   1.00
H1885  H     0.83274   0.82723   0.86578   0.00000  Uiso   1.00
H1886  H     0.87603   0.80564   0.87686   0.00000  Uiso   1.00
H1887  H     0.80858   0.76322   0.83493   0.00000  Uiso   1.00
H1888  H     0.85026   0.74566   0.86556   0.00000  Uiso   1.00
H1889  H     0.83481   0.77939   0.96311   0.00000  Uiso   1.00
H1890  H     0.82343   0.69079   0.69521   0.00000  Uiso   1.00
H1891  H     0.80381   0.74309   0.94327   0.00000  Uiso   1.00
H1892  H     0.79123   0.78995   0.93085   0.00000  Uiso   1.00
H1893  H     0.68197   0.72914   0.20625   0.00000  Uiso   1.00
H1894  H     0.68884   0.68930   0.24936   0.00000  Uiso   1.00
H1895  H     0.63280   0.75043   0.27239   0.00000  Uiso   1.00
H1896  H     0.63489   0.70924   0.31574   0.00000  Uiso   1.00
H1897  H     0.69519   0.72305   0.35225   0.00000  Uiso   1.00
H1898  H     0.66812   0.76343   0.36149   0.00000  Uiso   1.00
H1899  H     0.70039   0.76042   0.30073   0.00000  Uiso   1.00
H1900  H     0.62442   0.89251   0.90423   0.00000  Uiso   1.00
O1901  O     0.50000   0.75000   0.25000   0.00000  Uiso   1.00
O1902  O     0.50000   0.78036   0.61781   0.00000  Uiso   1.00
O1903  O     0.71965   0.50000   0.38219   0.00000  Uiso   1.00
O1904  O     0.78036   0.50000   0.61781   0.00000  Uiso   1.00
O1905  O     0.75000   0.53036   0.88219   0.00000  Uiso   1.00
O1906  O     0.75000   0.96965   0.11781   0.00000  Uiso   1.00
O1907  O     0.53036   0.75000   0.88219   0.00000  Uiso   1.00
O1908  O     0.96965   0.75000   0.11781   0.00000  Uiso   1.00
O1909  O     0.75000   0.96965   0.88219   0.00000  Uiso   1.00
O1910  O     0.75000   0.53036   0.11781   0.00000  Uiso   1.00
O1911  O     0.96965   0.75000   0.88219   0.00000  Uiso   1.00
O1912  O     0.50000   0.75000   0.75000   0.00000  Uiso   1.00
O1913  O     0.53036   0.75000   0.11781   0.00000  Uiso   1.00
O1914  O     0.54268   0.67693   0.28474   0.00000  Uiso   1.00
O1915  O     0.95733   0.82308   0.71526   0.00000  Uiso   1.00
O1916  O     0.67693   0.95733   0.28474   0.00000  Uiso   1.00
O1917  O     0.82308   0.54268   0.71526   0.00000  Uiso   1.00
O1918  O     0.95733   0.82308   0.28474   0.00000  Uiso   1.00
O1919  O     0.54268   0.67693   0.71526   0.00000  Uiso   1.00
O1920  O     0.82308   0.54268   0.28474   0.00000  Uiso   1.00
O1921  O     0.67693   0.95733   0.71526   0.00000  Uiso   1.00
O1922  O     0.54268   0.82308   0.71526   0.00000  Uiso   1.00
O1923  O     0.75000   0.50000   0.25000   0.00000  Uiso   1.00
O1924  O     0.95733   0.67693   0.28474   0.00000  Uiso   1.00
O1925  O     0.67693   0.54268   0.71526   0.00000  Uiso   1.00
O1926  O     0.82308   0.95733   0.28474   0.00000  Uiso   1.00
O1927  O     0.95733   0.67693   0.71526   0.00000  Uiso   1.00
O1928  O     0.54268   0.82308   0.28474   0.00000  Uiso   1.00
O1929  O     0.82308   0.95733   0.71526   0.00000  Uiso   1.00
O1930  O     0.67693   0.54268   0.28474   0.00000  Uiso   1.00
O1931  O     0.79268   0.92693   0.78474   0.00000  Uiso   1.00
O1932  O     0.70733   0.57308   0.21526   0.00000  Uiso   1.00
O1933  O     0.92693   0.70733   0.78474   0.00000  Uiso   1.00
O1934  O     0.75000   0.50000   0.75000   0.00000  Uiso   1.00
O1935  O     0.57308   0.79268   0.21526   0.00000  Uiso   1.00
O1936  O     0.70733   0.57308   0.78474   0.00000  Uiso   1.00
O1937  O     0.79268   0.92693   0.21526   0.00000  Uiso   1.00
O1938  O     0.57308   0.79268   0.78474   0.00000  Uiso   1.00
O1939  O     0.92693   0.70733   0.21526   0.00000  Uiso   1.00
O1940  O     0.79268   0.57308   0.21526   0.00000  Uiso   1.00
O1941  O     0.70733   0.92693   0.78474   0.00000  Uiso   1.00
O1942  O     0.92693   0.79268   0.21526   0.00000  Uiso   1.00
O1943  O     0.57308   0.70733   0.78474   0.00000  Uiso   1.00
O1944  O     0.70733   0.92693   0.21526   0.00000  Uiso   1.00
O1945  O     0.50000   0.78036   0.38219   0.00000  Uiso   1.00
O1946  O     0.79268   0.57308   0.78474   0.00000  Uiso   1.00
O1947  O     0.57308   0.70733   0.21526   0.00000  Uiso   1.00
O1948  O     0.92693   0.79268   0.78474   0.00000  Uiso   1.00
O1949  O     0.64131   0.80737   0.20270   0.00000  Uiso   1.00
O1950  O     0.85660   0.69760   0.77223   0.00000  Uiso   1.00
O1951  O     0.80460   0.85679   0.21524   0.00000  Uiso   1.00
O1952  O     0.68506   0.63343   0.82412   0.00000  Uiso   1.00
O1953  O     0.85674   0.69722   0.22155   0.00000  Uiso   1.00
O1954  O     0.62255   0.82442   0.84345   0.00000  Uiso   1.00
O1955  O     0.68455   0.63314   0.17481   0.00000  Uiso   1.00
O1956  O     0.50000   0.71965   0.61781   0.00000  Uiso   1.00
O1957  O     0.80272   0.85680   0.78072   0.00000  Uiso   1.00
O1958  O     0.62588   0.67857   0.83907   0.00000  Uiso   1.00
O1959  O     0.85649   0.80240   0.22755   0.00000  Uiso   1.00
O1960  O     0.80591   0.64226   0.79199   0.00000  Uiso   1.00
O1961  O     0.69639   0.85630   0.22626   0.00000  Uiso   1.00
O1962  O     0.85742   0.80413   0.78934   0.00000  Uiso   1.00
O1963  O     0.64026   0.69238   0.19848   0.00000  Uiso   1.00
O1964  O     0.66962   0.88327   0.85021   0.00000  Uiso   1.00
O1965  O     0.80204   0.64410   0.22909   0.00000  Uiso   1.00
O1966  O     0.89284   0.55466   0.71481   0.00000  Uiso   1.00
O1967  O     0.78036   0.50000   0.38219   0.00000  Uiso   1.00
O1968  O     0.60603   0.94819   0.26801   0.00000  Uiso   1.00
O1969  O     0.56570   0.61675   0.67363   0.00000  Uiso   1.00
O1970  O     0.94762   0.89416   0.26806   0.00000  Uiso   1.00
O1971  O     0.63526   0.91778   0.64796   0.00000  Uiso   1.00
O1972  O     0.89337   0.55242   0.26411   0.00000  Uiso   1.00
O1973  O     0.93789   0.88810   0.68756   0.00000  Uiso   1.00
O1974  O     0.56384   0.61577   0.32256   0.00000  Uiso   1.00
O1975  O     0.89361   0.94660   0.27778   0.00000  Uiso   1.00
O1976  O     0.61299   0.55925   0.68822   0.00000  Uiso   1.00
O1977  O     0.55413   0.89381   0.28304   0.00000  Uiso   1.00
O1978  O     0.71965   0.50000   0.61781   0.00000  Uiso   1.00
O1979  O     0.94699   0.60646   0.72749   0.00000  Uiso   1.00
O1980  O     0.62334   0.57060   0.33805   0.00000  Uiso   1.00
O1981  O     0.89309   0.94522   0.71900   0.00000  Uiso   1.00
O1982  O     0.94399   0.60723   0.28852   0.00000  Uiso   1.00
O1983  O     0.57445   0.87358   0.65716   0.00000  Uiso   1.00
O1984  O     0.50000   0.71965   0.38219   0.00000  Uiso   1.00
Zn1985 Zn    0.54333   0.75000   0.20067   0.00000  Uiso   1.00
Zn1986 Zn    0.70667   0.50000   0.29933   0.00000  Uiso   1.00
Zn1987 Zn    0.50000   0.70667   0.70067   0.00000  Uiso   1.00
Zn1988 Zn    0.50000   0.79333   0.29933   0.00000  Uiso   1.00
Zn1989 Zn    0.70667   0.50000   0.70067   0.00000  Uiso   1.00
Zn1990 Zn    0.79333   0.50000   0.29933   0.00000  Uiso   1.00
Zn1991 Zn    0.50000   0.79333   0.70067   0.00000  Uiso   1.00
Zn1992 Zn    0.50000   0.70667   0.29933   0.00000  Uiso   1.00
Zn1993 Zn    0.95667   0.75000   0.79933   0.00000  Uiso   1.00
Zn1994 Zn    0.75000   0.95667   0.20067   0.00000  Uiso   1.00
Zn1995 Zn    0.75000   0.54333   0.79933   0.00000  Uiso   1.00
Zn1996 Zn    0.95667   0.75000   0.20067   0.00000  Uiso   1.00
Zn1997 Zn    0.54333   0.75000   0.79933   0.00000  Uiso   1.00
Zn1998 Zn    0.75000   0.54333   0.20067   0.00000  Uiso   1.00
Zn1999 Zn    0.75000   0.95667   0.79933   0.00000  Uiso   1.00
Zn2000 Zn    0.79333   0.50000   0.70067   0.00000  Uiso   1.00
loop_
_geom_bond_atom_site_label_1
_geom_bond_atom_site_label_2
_geom_bond_distance
_geom_bond_site_symmetry_2
_ccdc_geom_bond_type
C1     C68     1.414   .     S
C1     C89     1.193   1_554 S
C2     C144    1.413   .     S
C2     O902    1.277   .     S
C2     O956    1.277   .     S
C3     C176    1.529   .     S
C3     H341    1.112   .     S
C3     C4      1.528   .     S
C3     H342    1.112   .     S
C4     H343    1.111   .     S
C4     H344    1.109   1_554 S
C4     H345    1.110   1_554 S
C5     H347    1.111   .     S
C5     C6      1.531   .     S
C5     H348    1.114   .     S
C5     O457    1.417   .     S
C6     C7      1.526   .     S
C6     H349    1.111   .     S
C6     H350    1.111   .     S
C7     H352    1.109   .     S
C7     H351    1.111   .     S
C7     H353    1.111   .     S
C8     H354    1.115   .     S
C8     O458    1.412   .     S
C8     H355    1.115   .     S
C8     C9      1.528   .     S
C9     C10     1.526   .     S
C9     H356    1.111   .     S
C9     H358    1.111   .     S
C10    H359    1.111   .     S
C10    H360    1.111   1_556 S
C10    H361    1.110   1_556 S
C11    O459    1.416   .     S
C11    H362    1.111   .     S
C11    H363    1.114   .     S
C11    C12     1.532   .     S
C12    H365    1.111   .     S
C12    H364    1.111   .     S
C12    C14     1.525   .     S
C13    C133    1.414   .     S
C13    O1403   1.280   .     S
C13    O1467   1.281   .     S
C14    H366    1.111   .     S
C14    H367    1.110   .     S
C14    H369    1.110   .     S
C15    O460    1.421   .     S
C15    H370    1.111   .     S
C15    H371    1.117   .     S
C15    C16     1.530   .     S
C16    C17     1.527   .     S
C16    H373    1.111   .     S
C16    H372    1.112   .     S
C17    H375    1.110   .     S
C17    H374    1.111   .     S
C17    H376    1.111   .     S
C18    H377    1.111   .     S
C18    H378    1.116   .     S
C18    C19     1.532   .     S
C18    O461    1.417   .     S
C19    C20     1.526   .     S
C19    H380    1.111   .     S
C19    H381    1.110   .     S
C20    H382    1.111   .     S
C20    H384    1.110   .     S
C20    H383    1.110   .     S
C21    O462    1.414   .     S
C21    H385    1.113   .     S
C21    C22     1.529   .     S
C21    H386    1.113   .     S
C22    H387    1.112   .     S
C22    C23     1.525   .     S
C22    H388    1.111   .     S
C23    H391    1.111   .     S
C23    H389    1.109   .     S
C23    H392    1.111   .     S
C24    O1478   1.280   .     A
C24    O1404   1.281   .     A
C24    C122    1.414   .     S
C25    O463    1.420   .     S
C25    H394    1.116   .     S
C25    C26     1.534   .     S
C25    H393    1.108   .     S
C26    H395    1.110   .     S
C26    C27     1.526   .     S
C26    H396    1.110   .     S
C27    H398    1.110   .     S
C27    H399    1.109   .     S
C27    H397    1.109   .     S
C28    H400    1.115   .     S
C28    C29     1.529   .     S
C28    O464    1.412   .     S
C28    H179    1.115   .     S
C29    C30     1.526   .     S
C29    H181    1.111   .     S
C29    H180    1.112   .     S
C30    H182    1.111   .     S
C30    H183    1.111   1_556 S
C30    H184    1.111   1_556 S
C31    C32     1.534   .     S
C31    H185    1.111   .     S
C31    O465    1.416   .     S
C31    H186    1.115   .     S
C32    H187    1.111   .     S
C32    C33     1.525   .     S
C32    H188    1.111   .     S
C33    H191    1.111   .     S
C33    H190    1.111   .     S
C33    H192    1.109   .     S
C34    O466    1.414   .     S
C34    H194    1.115   .     S
C34    C36     1.524   .     S
C34    H193    1.114   .     S
C35    O405    1.277   .     A
C35    C111    1.413   .     S
C35    O1409   1.277   1_545 S
C36    C37     1.521   .     S
C36    H195    1.110   .     S
C36    H1196   1.110   1_545 S
C37    H197    1.111   .     S
C37    H199    1.111   .     S
C37    H1198   1.110   1_545 S
C38    H202    1.119   .     S
C38    O468    1.417   .     S
C38    H201    1.112   .     S
C38    C1039   1.529   .     S
C39    C40     1.526   .     S
C39    H204    1.110   .     S
C39    H203    1.110   .     S
C39    C1038   1.529   1_545 S
C40    H205    1.111   .     S
C40    H207    1.110   .     S
C40    H206    1.111   .     S
C41    C42     1.529   .     S
C41    H208    1.114   .     S
C41    O469    1.413   .     S
C41    H209    1.116   .     S
C42    H212    1.112   .     S
C42    H210    1.112   .     S
C42    C43     1.527   .     S
C43    H214    1.110   .     S
C43    H215    1.110   .     S
C43    H213    1.111   .     S
C44    H216    1.111   .     S
C44    O470    1.417   .     S
C44    C45     1.532   .     S
C44    H217    1.117   .     S
C45    H219    1.111   .     S
C45    C547    1.525   .     S
C45    H718    1.111   .     S
C46    O410    1.277   .     A
C46    C100    1.413   .     S
C46    O1406   1.277   1_545 S
C47    H223    1.111   .     S
C47    H221    1.110   .     S
C47    C545    1.525   1_455 S
C47    H720    1.111   1_455 S
C48    H224    1.115   .     S
C48    C49     1.529   .     S
C48    H225    1.114   .     S
C48    O471    1.412   .     S
C49    H227    1.111   .     S
C49    C50     1.527   .     S
C49    H226    1.112   .     S
C50    H228    1.111   .     S
C50    H229    1.111   .     S
C50    H230    1.111   .     S
C51    C52     1.538   .     S
C51    H231    1.109   .     S
C51    O472    1.418   .     S
C51    H232    1.117   .     S
C52    C53     1.528   .     S
C52    H235    1.111   .     S
C52    H1234   1.112   1_545 S
C53    H237    1.111   .     S
C53    H236    1.107   .     S
C53    H238    1.111   .     S
C54    O473    1.418   .     S
C54    H239    1.114   .     S
C54    C55     1.529   .     S
C54    H240    1.118   .     S
C55    H242    1.111   .     S
C55    C56     1.527   .     S
C55    H241    1.110   .     S
C56    H245    1.109   .     S
C56    H246    1.111   .     S
C56    H243    1.111   .     S
C57    C89     1.414   .     S
C57    O407    1.280   .     A
C57    O911    1.281   1_455 S
C58    H247    1.108   .     S
C58    H248    1.109   .     S
C58    C59     1.537   .     S
C58    O474    1.419   .     S
C59    C60     1.525   .     S
C59    H250    1.111   .     S
C59    H249    1.111   .     S
C60    H251    1.110   .     S
C60    H752    1.110   1_455 S
C60    H753    1.107   1_455 S
C61    H254    1.113   .     S
C61    O475    1.413   .     S
C61    C62     1.524   .     S
C61    H256    1.116   .     S
C62    C63     1.520   .     S
C62    H257    1.111   .     S
C62    H1258   1.111   .     S
C63    H259    1.110   .     S
C63    H261    1.110   .     S
C63    H1260   1.110   .     S
C64    C65     1.541   .     S
C64    H263    1.110   .     S
C64    O476    1.419   .     S
C64    H262    1.111   .     S
C65    H264    1.108   .     S
C65    H265    1.111   .     S
C65    C1066   1.524   1_545 S
C66    H267    1.110   .     S
C66    H268    1.110   .     S
C66    H269    1.109   .     S
C66    C1065   1.524   .     S
C67    H270    1.113   .     S
C67    H271    1.116   .     S
C67    O477    1.415   .     S
C67    C69     1.528   .     S
C68    O413    1.280   .     A
C68    O908    1.280   1_455 S
C69    C70     1.526   .     S
C69    H272    1.111   .     S
C69    H773    1.112   1_455 S
C70    H276    1.111   .     S
C70    H274    1.110   .     S
C70    H775    1.110   1_455 S
C71    H278    1.111   .     S
C71    H279    1.119   .     S
C71    O479    1.415   .     S
C71    C572    1.526   .     S
C72    C73     1.525   .     S
C72    H280    1.107   .     S
C72    H281    1.111   .     S
C72    C571    1.526   1_455 S
C73    H282    1.111   .     S
C73    H283    1.111   .     S
C73    H284    1.110   .     S
C74    H286    1.115   .     S
C74    O480    1.412   .     S
C74    H285    1.115   .     S
C74    C75     1.528   .     S
C75    H287    1.112   .     S
C75    H290    1.112   .     S
C75    C76     1.527   .     S
C76    H291    1.111   .     S
C76    H293    1.111   .     S
C76    H292    1.111   .     S
C77    H294    1.109   .     S
C77    C78     1.534   .     S
C77    H295    1.117   .     S
C77    O481    1.419   .     S
C78    H297    1.110   .     S
C78    C80     1.525   .     S
C78    H296    1.111   .     S
C79    C146    1.467   .     S
C79    O447    1.280   .     A
C79    O414    1.276   .     A
C80    H298    1.111   .     S
C80    H1299   1.110   .     S
C80    H1301   1.109   .     S
C81    H303    1.117   .     S
C81    H302    1.110   .     S
C81    C82     1.530   .     S
C81    O482    1.422   .     S
C82    H305    1.111   .     S
C82    H304    1.111   .     S
C82    C83     1.527   .     S
C83    H308    1.111   .     S
C83    H306    1.111   .     S
C83    H307    1.110   .     S
C84    C85     1.536   .     S
C84    H309    1.109   .     S
C84    H310    1.110   .     S
C84    O483    1.421   .     S
C85    C86     1.527   .     S
C85    H312    1.109   .     S
C85    H313    1.111   .     S
C86    H314    1.110   .     S
C86    H815    1.108   1_455 S
C86    H816    1.109   1_455 S
C87    C147    1.468   .     S
C87    O415    1.279   .     A
C87    O448    1.277   .     A
C88    C139    1.454   .     S
C88    O444    1.276   .     A
C88    O416    1.274   .     A
C89    C1      1.193   1_556 S
C90    O446    1.277   .     A
C90    C140    1.466   .     S
C90    O417    1.280   .     A
C91    C141    1.459   .     S
C91    O418    1.278   .     A
C91    O442    1.274   .     A
C92    O443    1.279   .     A
C92    O419    1.276   .     A
C92    C142    1.465   .     S
C93    O440    1.272   .     A
C93    O420    1.278   .     A
C93    C143    1.454   .     S
C94    C145    1.454   .     S
C94    O441    1.274   .     A
C94    O421    1.276   .     A
C95    O438    1.278   .     A
C95    O422    1.279   .     A
C95    C154    1.467   .     S
C96    O439    1.279   .     A
C96    C156    1.467   .     S
C96    O424    1.278   .     A
C97    O425    1.278   .     A
C97    C148    1.466   .     S
C97    O436    1.277   .     A
C98    O426    1.279   .     A
C98    C149    1.467   .     S
C98    O437    1.277   .     A
C99    O433    1.274   .     A
C99    O427    1.275   .     A
C99    C150    1.454   .     S
C100   C111    1.193   1_554 S
C101   C151    1.466   .     S
C101   O435    1.277   .     A
C101   O428    1.280   .     A
C102   O431    1.274   .     A
C102   C152    1.460   .     S
C102   O429    1.278   .     A
C103   O432    1.277   .     A
C103   O430    1.276   .     A
C103   C153    1.462   .     S
C104   C116    1.396   .     A
C104   C151    1.413   .     A
C104   O449    1.384   .     S
C105   C150    1.402   .     A
C105   C115    1.403   .     A
C105   O450    1.386   .     S
C106   O451    1.386   .     S
C106   C114    1.403   .     A
C106   C149    1.412   .     A
C107   C113    1.396   .     A
C107   C148    1.412   .     A
C107   O452    1.388   .     S
C108   C120    1.407   .     A
C108   O453    1.388   .     S
C108   C156    1.414   .     A
C109   C119    1.399   .     A
C109   O454    1.390   .     S
C109   C154    1.415   .     A
C110   C118    1.397   .     A
C110   C153    1.408   .     A
C110   O455    1.386   .     S
C111   C100    1.193   1_556 S
C112   C117    1.409   .     A
C112   O457    1.388   .     S
C112   C152    1.409   .     A
C113   C142    1.410   .     A
C113   O458    1.383   .     S
C114   C141    1.407   .     A
C114   O459    1.387   .     S
C115   O460    1.387   .     S
C115   C140    1.414   .     A
C116   O461    1.385   .     S
C116   C139    1.400   .     A
C117   O462    1.387   .     S
C117   C147    1.413   .     A
C118   O463    1.385   .     S
C118   C146    1.408   .     A
C119   C145    1.406   .     A
C119   O464    1.385   .     S
C120   O465    1.387   .     S
C120   C143    1.406   .     A
C121   O466    1.383   .     S
C121   C140    1.412   .     A
C121   C134    1.397   .     A
C122   C133    1.193   .     T
C123   O468    1.384   .     S
C123   C132    1.401   .     A
C123   C139    1.405   .     A
C124   C142    1.413   .     A
C124   C131    1.398   .     A
C124   O469    1.384   .     S
C125   O470    1.386   .     S
C125   C141    1.404   .     A
C125   C130    1.402   .     A
C126   C145    1.406   .     A
C126   O471    1.385   .     S
C126   C138    1.397   .     A
C127   C143    1.399   .     A
C127   O472    1.384   .     S
C127   C137    1.401   .     A
C128   O473    1.383   .     S
C128   C147    1.410   .     A
C128   C136    1.392   .     A
C129   C135    1.398   .     A
C129   C146    1.413   .     A
C129   O474    1.389   .     S
C130   O475    1.384   .     S
C130   C149    1.411   .     A
C131   O476    1.388   .     S
C131   C148    1.411   .     A
C132   O477    1.386   .     S
C132   C151    1.413   .     A
C134   O479    1.383   .     S
C134   C150    1.401   .     A
C135   O480    1.384   .     S
C135   C153    1.411   .     A
C136   C152    1.403   .     A
C136   O481    1.383   .     S
C137   O482    1.387   .     S
C137   C156    1.411   .     A
C138   C154    1.415   .     A
C138   O483    1.389   .     S
C144   C155    1.193   .     T
C155   C166    1.413   .     S
C157   C158    1.527   .     S
C157   H288    1.116   .     S
C157   O449    1.416   .     S
C157   H177    1.115   .     S
C158   C159    1.527   .     S
C158   H335    1.112   .     S
C158   H324    1.111   .     S
C159   H357    1.110   .     S
C159   H346    1.111   .     S
C159   H368    1.111   .     S
C160   H390    1.116   .     S
C160   H379    1.110   .     S
C160   O450    1.417   .     S
C160   C161    1.532   .     S
C161   C162    1.526   .     S
C161   H178    1.111   .     S
C161   H189    1.110   .     S
C162   H200    1.111   .     S
C162   H211    1.110   .     S
C162   H222    1.110   .     S
C163   O451    1.415   .     S
C163   H244    1.116   .     S
C163   H233    1.113   .     S
C163   C164    1.528   .     S
C164   C165    1.526   .     S
C164   H266    1.111   .     S
C164   H255    1.111   .     S
C165   H300    1.111   .     S
C165   H289    1.111   .     S
C165   H277    1.111   .     S
C166   O945    1.277   .     S
C166   O984    1.277   .     S
C167   H317    1.109   .     S
C167   O452    1.419   .     S
C167   C168    1.537   .     S
C167   H311    1.109   .     S
C168   H318    1.110   .     S
C168   C169    1.525   .     S
C168   H319    1.111   .     S
C169   H322    1.109   .     S
C169   H321    1.110   .     S
C169   H320    1.110   .     S
C170   O453    1.419   .     S
C170   C171    1.528   .     S
C170   H323    1.111   .     S
C170   H325    1.117   .     S
C171   H327    1.111   .     S
C171   C172    1.523   .     S
C171   H326    1.111   .     S
C172   H328    1.111   .     S
C172   H329    1.110   .     S
C172   H330    1.111   .     S
C173   O454    1.422   .     S
C173   H332    1.115   .     S
C173   H331    1.111   .     S
C173   C174    1.532   .     S
C174   H333    1.112   .     S
C174   C175    1.529   .     S
C174   H334    1.110   .     S
C175   H337    1.110   .     S
C175   H336    1.108   .     S
C175   H338    1.111   .     S
C176   H339    1.113   .     S
C176   O455    1.414   .     S
C176   H340    1.117   .     S
H183   C30     1.111   1_554 S
H184   C30     1.111   1_554 S
H196   C1036   1.110   .     S
H198   C1037   1.110   .     S
H218   C545    1.111   1_455 S
H220   C547    1.111   .     S
H234   C1052   1.112   .     S
H252   C560    1.110   .     S
H253   C560    1.107   .     S
H258   C1062   1.111   1_545 S
H260   C1063   1.110   1_545 S
H273   C569    1.112   .     S
H275   C570    1.110   .     S
H299   C1080   1.110   1_545 S
H301   C1080   1.109   1_545 S
H315   C586    1.108   .     S
H316   C586    1.109   .     S
H344   C4      1.109   1_556 S
H345   C4      1.110   1_556 S
H360   C10     1.111   1_554 S
H361   C10     1.110   1_554 S
O401   Zn996   1.941   1_455 S
O401   Zn485   1.941   .     S
O401   Zn488   1.935   .     S
O401   Zn492   1.936   .     S
O402   Zn491   1.911   .     S
O402   C502    1.277   1_455 S
O403   C1013   1.280   1_545 S
O403   Zn486   1.911   .     S
O404   C1024   1.281   1_545 A
O404   Zn500   1.911   .     S
O405   Zn495   1.911   .     S
O406   Zn494   1.911   .     S
O406   C1046   1.277   .     S
O407   Zn497   1.911   .     S
O408   Zn496   1.911   .     S
O408   C568    1.280   .     S
O409   Zn499   1.911   .     S
O409   C1035   1.277   .     S
O410   Zn498   1.911   .     S
O411   Zn493   1.911   .     S
O411   C557    1.281   .     S
O412   Zn497   1.941   .     S
O412   Zn487   1.935   .     S
O412   Zn491   1.936   .     S
O412   Zn993   1.941   1_455 S
O413   Zn485   1.911   .     S
O414   Zn492   1.946   .     S
O415   Zn991   1.946   .     S
O416   Zn1486  1.939   .     S
O417   Zn500   1.939   .     S
O418   Zn988   1.946   .     S
O419   Zn487   1.946   .     S
O420   Zn490   1.939   .     S
O421   Zn1489  1.939   .     S
O422   Zn491   1.942   .     S
O423   Zn490   1.941   .     S
O423   Zn1494  1.935   1_545 S
O423   Zn486   1.941   .     S
O423   Zn498   1.936   .     S
O424   Zn992   1.942   .     S
O425   Zn489   1.943   .     S
O426   Zn1490  1.943   .     S
O427   Zn987   1.942   .     S
O428   Zn488   1.942   .     S
O429   Zn1500  1.943   .     S
O430   Zn486   1.943   .     S
O431   Zn499   1.946   .     S
O432   Zn498   1.946   .     S
O433   Zn493   1.939   .     S
O434   Zn489   1.941   .     S
O434   Zn1499  1.936   1_545 S
O434   Zn500   1.941   .     S
O434   Zn495   1.935   .     S
O435   Zn485   1.939   .     S
O436   Zn495   1.946   .     S
O437   Zn494   1.946   .     S
O438   Zn497   1.939   .     S
O439   Zn496   1.939   .     S
O440   Zn498   1.942   .     S
O441   Zn499   1.942   .     S
O442   Zn496   1.943   .     S
O443   Zn497   1.943   .     S
O444   Zn494   1.942   .     S
O445   Zn488   1.911   .     S
O445   C666    1.277   1_455 S
O446   Zn495   1.942   .     S
O447   Zn485   1.943   .     S
O448   Zn493   1.943   .     S
O456   Zn487   1.911   .     S
O456   C502    1.277   1_455 S
O467   C1013   1.281   1_545 S
O467   Zn490   1.911   .     S
O478   C1024   1.280   1_545 A
O478   Zn489   1.911   .     S
O484   Zn492   1.911   .     S
O484   C666    1.277   1_455 S
Zn486  O1416   1.939   1_545 S
Zn487  O927    1.942   1_455 S
Zn488  O918    1.946   1_455 S
Zn489  O1421   1.939   1_545 S
Zn490  O1426   1.943   1_545 S
Zn491  O915    1.946   1_455 S
Zn492  O924    1.942   1_455 S
Zn493  O912    1.941   .     S
Zn494  O1423   1.935   .     S
Zn496  O901    1.941   .     S
Zn499  O1434   1.936   .     S
Zn500  O1429   1.943   1_545 S
C501   C568    1.414   .     S
C501   C589    1.193   1_554 S
C502   C644    1.413   .     S
C502   O402    1.277   1_655 S
C502   O456    1.277   1_655 S
C503   C676    1.529   .     S
C503   H841    1.112   .     S
C503   C504    1.528   .     S
C503   H842    1.112   .     S
C504   H843    1.111   .     S
C504   H844    1.109   1_554 S
C504   H845    1.110   1_554 S
C505   H847    1.111   .     S
C505   C506    1.531   .     S
C505   H848    1.114   .     S
C505   O957    1.417   .     S
C506   C507    1.526   .     S
C506   H849    1.111   .     S
C506   H850    1.111   .     S
C507   H852    1.109   .     S
C507   H851    1.111   .     S
C507   H853    1.111   .     S
C508   H854    1.115   .     S
C508   O958    1.412   .     S
C508   H855    1.115   .     S
C508   C509    1.528   .     S
C509   C510    1.526   .     S
C509   H856    1.111   .     S
C509   H858    1.111   .     S
C510   H859    1.111   .     S
C510   H860    1.111   1_556 S
C510   H861    1.110   1_556 S
C511   O959    1.416   .     S
C511   H862    1.111   .     S
C511   H863    1.114   .     S
C511   C512    1.532   .     S
C512   H865    1.111   .     S
C512   H864    1.111   .     S
C512   C514    1.525   .     S
C513   C633    1.414   .     S
C513   O1903   1.280   .     S
C513   O1967   1.281   .     S
C514   H866    1.111   .     S
C514   H867    1.110   .     S
C514   H869    1.110   .     S
C515   O960    1.421   .     S
C515   H870    1.111   .     S
C515   H871    1.117   .     S
C515   C516    1.530   .     S
C516   C517    1.527   .     S
C516   H873    1.111   .     S
C516   H872    1.112   .     S
C517   H875    1.110   .     S
C517   H874    1.111   .     S
C517   H876    1.111   .     S
C518   H877    1.111   .     S
C518   H878    1.116   .     S
C518   C519    1.532   .     S
C518   O961    1.417   .     S
C519   C520    1.526   .     S
C519   H880    1.111   .     S
C519   H881    1.110   .     S
C520   H882    1.111   .     S
C520   H884    1.110   .     S
C520   H883    1.110   .     S
C521   O962    1.414   .     S
C521   H885    1.113   .     S
C521   C522    1.529   .     S
C521   H886    1.113   .     S
C522   H887    1.112   .     S
C522   C523    1.525   .     S
C522   H888    1.111   .     S
C523   H891    1.111   .     S
C523   H889    1.109   .     S
C523   H892    1.111   .     S
C524   O1978   1.280   .     A
C524   O1904   1.281   .     A
C524   C622    1.414   .     S
C525   O963    1.420   .     S
C525   H894    1.116   .     S
C525   C526    1.534   .     S
C525   H893    1.108   .     S
C526   H895    1.110   .     S
C526   C527    1.526   .     S
C526   H896    1.110   .     S
C527   H898    1.110   .     S
C527   H899    1.109   .     S
C527   H897    1.109   .     S
C528   H900    1.115   .     S
C528   C529    1.529   .     S
C528   O964    1.412   .     S
C528   H679    1.115   .     S
C529   C530    1.526   .     S
C529   H681    1.111   .     S
C529   H680    1.112   .     S
C530   H682    1.111   .     S
C530   H683    1.111   1_556 S
C530   H684    1.111   1_556 S
C531   C532    1.534   .     S
C531   H685    1.111   .     S
C531   O965    1.416   .     S
C531   H686    1.115   .     S
C532   H687    1.111   .     S
C532   C533    1.525   .     S
C532   H688    1.111   .     S
C533   H691    1.111   .     S
C533   H690    1.111   .     S
C533   H692    1.109   .     S
C534   O966    1.414   .     S
C534   H694    1.115   .     S
C534   C536    1.524   .     S
C534   H693    1.114   .     S
C535   O905    1.277   .     A
C535   C611    1.413   .     S
C535   O1909   1.277   1_545 S
C536   C537    1.521   .     S
C536   H695    1.110   .     S
C536   H1696   1.110   1_545 S
C537   H697    1.111   .     S
C537   H699    1.111   .     S
C537   H1698   1.110   1_545 S
C538   H702    1.119   .     S
C538   O968    1.417   .     S
C538   H701    1.112   .     S
C538   C1539   1.529   .     S
C539   C540    1.526   .     S
C539   H704    1.110   .     S
C539   H703    1.110   .     S
C539   C1538   1.529   1_545 S
C540   H705    1.111   .     S
C540   H707    1.110   .     S
C540   H706    1.111   .     S
C541   C542    1.529   .     S
C541   H708    1.114   .     S
C541   O969    1.413   .     S
C541   H709    1.116   .     S
C542   H712    1.112   .     S
C542   H710    1.112   .     S
C542   C543    1.527   .     S
C543   H714    1.110   .     S
C543   H715    1.110   .     S
C543   H713    1.111   .     S
C544   H716    1.111   .     S
C544   O970    1.417   .     S
C544   C545    1.532   .     S
C544   H717    1.117   .     S
C545   H719    1.111   .     S
C545   C47     1.525   1_655 S
C545   H218    1.111   1_655 S
C546   O910    1.277   .     A
C546   C600    1.413   .     S
C546   O1906   1.277   1_545 S
C547   H723    1.111   .     S
C547   H721    1.110   .     S
C548   H724    1.115   .     S
C548   C549    1.529   .     S
C548   H725    1.114   .     S
C548   O971    1.412   .     S
C549   H727    1.111   .     S
C549   C550    1.527   .     S
C549   H726    1.112   .     S
C550   H728    1.111   .     S
C550   H729    1.111   .     S
C550   H730    1.111   .     S
C551   C552    1.538   .     S
C551   H731    1.109   .     S
C551   O972    1.418   .     S
C551   H732    1.117   .     S
C552   C553    1.528   .     S
C552   H735    1.111   .     S
C552   H1734   1.112   1_545 S
C553   H737    1.111   .     S
C553   H736    1.107   .     S
C553   H738    1.111   .     S
C554   O973    1.418   .     S
C554   H739    1.114   .     S
C554   C555    1.529   .     S
C554   H740    1.118   .     S
C555   H742    1.111   .     S
C555   C556    1.527   .     S
C555   H741    1.110   .     S
C556   H745    1.109   .     S
C556   H746    1.111   .     S
C556   H743    1.111   .     S
C557   C589    1.414   .     S
C557   O907    1.280   .     A
C558   H747    1.108   .     S
C558   H748    1.109   .     S
C558   C559    1.537   .     S
C558   O974    1.419   .     S
C559   C560    1.525   .     S
C559   H750    1.111   .     S
C559   H749    1.111   .     S
C560   H751    1.110   .     S
C561   H754    1.113   .     S
C561   O975    1.413   .     S
C561   C562    1.524   .     S
C561   H756    1.116   .     S
C562   C563    1.520   .     S
C562   H757    1.111   .     S
C562   H1758   1.111   .     S
C563   H759    1.110   .     S
C563   H761    1.110   .     S
C563   H1760   1.110   .     S
C564   C565    1.541   .     S
C564   H763    1.110   .     S
C564   O976    1.419   .     S
C564   H762    1.111   .     S
C565   H764    1.108   .     S
C565   H765    1.111   .     S
C565   C1566   1.524   1_545 S
C566   H767    1.110   .     S
C566   H768    1.110   .     S
C566   H769    1.109   .     S
C566   C1565   1.524   .     S
C567   H770    1.113   .     S
C567   H771    1.116   .     S
C567   O977    1.415   .     S
C567   C569    1.528   .     S
C568   O913    1.280   .     A
C569   C570    1.526   .     S
C569   H772    1.111   .     S
C570   H776    1.111   .     S
C570   H774    1.110   .     S
C571   H778    1.111   .     S
C571   H779    1.119   .     S
C571   O979    1.415   .     S
C571   C72     1.526   1_655 S
C572   C573    1.525   .     S
C572   H780    1.107   .     S
C572   H781    1.111   .     S
C573   H782    1.111   .     S
C573   H783    1.111   .     S
C573   H784    1.110   .     S
C574   H786    1.115   .     S
C574   O980    1.412   .     S
C574   H785    1.115   .     S
C574   C575    1.528   .     S
C575   H787    1.112   .     S
C575   H790    1.112   .     S
C575   C576    1.527   .     S
C576   H791    1.111   .     S
C576   H793    1.111   .     S
C576   H792    1.111   .     S
C577   H794    1.109   .     S
C577   C578    1.534   .     S
C577   H795    1.117   .     S
C577   O981    1.419   .     S
C578   H797    1.110   .     S
C578   C580    1.525   .     S
C578   H796    1.111   .     S
C579   C646    1.467   .     S
C579   O947    1.280   .     A
C579   O914    1.276   .     A
C580   H798    1.111   .     S
C580   H1799   1.110   .     S
C580   H1801   1.109   .     S
C581   H803    1.117   .     S
C581   H802    1.110   .     S
C581   C582    1.530   .     S
C581   O982    1.422   .     S
C582   H805    1.111   .     S
C582   H804    1.111   .     S
C582   C583    1.527   .     S
C583   H808    1.111   .     S
C583   H806    1.111   .     S
C583   H807    1.110   .     S
C584   C585    1.536   .     S
C584   H809    1.109   .     S
C584   H810    1.110   .     S
C584   O983    1.421   .     S
C585   C586    1.527   .     S
C585   H812    1.109   .     S
C585   H813    1.111   .     S
C586   H814    1.110   .     S
C587   C647    1.468   .     S
C587   O915    1.279   .     A
C587   O948    1.277   .     A
C588   C639    1.454   .     S
C588   O944    1.276   .     A
C588   O916    1.274   .     A
C589   C501    1.193   1_556 S
C590   O946    1.277   .     A
C590   C640    1.466   .     S
C590   O917    1.280   .     A
C591   C641    1.459   .     S
C591   O918    1.278   .     A
C591   O942    1.274   .     A
C592   O943    1.279   .     A
C592   O919    1.276   .     A
C592   C642    1.465   .     S
C593   O940    1.272   .     A
C593   O920    1.278   .     A
C593   C643    1.454   .     S
C594   C645    1.454   .     S
C594   O941    1.274   .     A
C594   O921    1.276   .     A
C595   O938    1.278   .     A
C595   O922    1.279   .     A
C595   C654    1.467   .     S
C596   O939    1.279   .     A
C596   C656    1.467   .     S
C596   O924    1.278   .     A
C597   O925    1.278   .     A
C597   C648    1.466   .     S
C597   O936    1.277   .     A
C598   O926    1.279   .     A
C598   C649    1.467   .     S
C598   O937    1.277   .     A
C599   O933    1.274   .     A
C599   O927    1.275   .     A
C599   C650    1.454   .     S
C600   C611    1.193   1_554 S
C601   C651    1.466   .     S
C601   O935    1.277   .     A
C601   O928    1.280   .     A
C602   O931    1.274   .     A
C602   C652    1.460   .     S
C602   O929    1.278   .     A
C603   O932    1.277   .     A
C603   O930    1.276   .     A
C603   C653    1.462   .     S
C604   C616    1.396   .     A
C604   C651    1.413   .     A
C604   O949    1.384   .     S
C605   C650    1.402   .     A
C605   C615    1.403   .     A
C605   O950    1.386   .     S
C606   O951    1.386   .     S
C606   C614    1.403   .     A
C606   C649    1.412   .     A
C607   C613    1.396   .     A
C607   C648    1.412   .     A
C607   O952    1.388   .     S
C608   C620    1.407   .     A
C608   O953    1.388   .     S
C608   C656    1.414   .     A
C609   C619    1.399   .     A
C609   O954    1.390   .     S
C609   C654    1.415   .     A
C610   C618    1.397   .     A
C610   C653    1.408   .     A
C610   O955    1.386   .     S
C611   C600    1.193   1_556 S
C612   C617    1.409   .     A
C612   O957    1.388   .     S
C612   C652    1.409   .     A
C613   C642    1.410   .     A
C613   O958    1.383   .     S
C614   C641    1.407   .     A
C614   O959    1.387   .     S
C615   O960    1.387   .     S
C615   C640    1.414   .     A
C616   O961    1.385   .     S
C616   C639    1.400   .     A
C617   O962    1.387   .     S
C617   C647    1.413   .     A
C618   O963    1.385   .     S
C618   C646    1.408   .     A
C619   C645    1.406   .     A
C619   O964    1.385   .     S
C620   O965    1.387   .     S
C620   C643    1.406   .     A
C621   O966    1.383   .     S
C621   C640    1.412   .     A
C621   C634    1.397   .     A
C622   C633    1.193   .     T
C623   O968    1.384   .     S
C623   C632    1.401   .     A
C623   C639    1.405   .     A
C624   C642    1.413   .     A
C624   C631    1.398   .     A
C624   O969    1.384   .     S
C625   O970    1.386   .     S
C625   C641    1.404   .     A
C625   C630    1.402   .     A
C626   C645    1.406   .     A
C626   O971    1.385   .     S
C626   C638    1.397   .     A
C627   C643    1.399   .     A
C627   O972    1.384   .     S
C627   C637    1.401   .     A
C628   O973    1.383   .     S
C628   C647    1.410   .     A
C628   C636    1.392   .     A
C629   C635    1.398   .     A
C629   C646    1.413   .     A
C629   O974    1.389   .     S
C630   O975    1.384   .     S
C630   C649    1.411   .     A
C631   O976    1.388   .     S
C631   C648    1.411   .     A
C632   O977    1.386   .     S
C632   C651    1.413   .     A
C634   O979    1.383   .     S
C634   C650    1.401   .     A
C635   O980    1.384   .     S
C635   C653    1.411   .     A
C636   C652    1.403   .     A
C636   O981    1.383   .     S
C637   O982    1.387   .     S
C637   C656    1.411   .     A
C638   C654    1.415   .     A
C638   O983    1.389   .     S
C644   C655    1.193   .     T
C655   C666    1.413   .     S
C657   C658    1.527   .     S
C657   H788    1.116   .     S
C657   O949    1.416   .     S
C657   H677    1.115   .     S
C658   C659    1.527   .     S
C658   H835    1.112   .     S
C658   H824    1.111   .     S
C659   H857    1.110   .     S
C659   H846    1.111   .     S
C659   H868    1.111   .     S
C660   H890    1.116   .     S
C660   H879    1.110   .     S
C660   O950    1.417   .     S
C660   C661    1.532   .     S
C661   C662    1.526   .     S
C661   H678    1.111   .     S
C661   H689    1.110   .     S
C662   H700    1.111   .     S
C662   H711    1.110   .     S
C662   H722    1.110   .     S
C663   O951    1.415   .     S
C663   H744    1.116   .     S
C663   H733    1.113   .     S
C663   C664    1.528   .     S
C664   C665    1.526   .     S
C664   H766    1.111   .     S
C664   H755    1.111   .     S
C665   H800    1.111   .     S
C665   H789    1.111   .     S
C665   H777    1.111   .     S
C666   O445    1.277   1_655 S
C666   O484    1.277   1_655 S
C667   H817    1.109   .     S
C667   O952    1.419   .     S
C667   C668    1.537   .     S
C667   H811    1.109   .     S
C668   H818    1.110   .     S
C668   C669    1.525   .     S
C668   H819    1.111   .     S
C669   H822    1.109   .     S
C669   H821    1.110   .     S
C669   H820    1.110   .     S
C670   O953    1.419   .     S
C670   C671    1.528   .     S
C670   H823    1.111   .     S
C670   H825    1.117   .     S
C671   H827    1.111   .     S
C671   C672    1.523   .     S
C671   H826    1.111   .     S
C672   H828    1.111   .     S
C672   H829    1.110   .     S
C672   H830    1.111   .     S
C673   O954    1.422   .     S
C673   H832    1.115   .     S
C673   H831    1.111   .     S
C673   C674    1.532   .     S
C674   H833    1.112   .     S
C674   C675    1.529   .     S
C674   H834    1.110   .     S
C675   H837    1.110   .     S
C675   H836    1.108   .     S
C675   H838    1.111   .     S
C676   H839    1.113   .     S
C676   O955    1.414   .     S
C676   H840    1.117   .     S
H683   C530    1.111   1_554 S
H684   C530    1.111   1_554 S
H696   C1536   1.110   .     S
H698   C1537   1.110   .     S
H720   C47     1.111   1_655 S
H734   C1552   1.112   .     S
H752   C60     1.110   1_655 S
H753   C60     1.107   1_655 S
H758   C1562   1.111   1_545 S
H760   C1563   1.110   1_545 S
H773   C69     1.112   1_655 S
H775   C70     1.110   1_655 S
H799   C1580   1.110   1_545 S
H801   C1580   1.109   1_545 S
H815   C86     1.108   1_655 S
H816   C86     1.109   1_655 S
H844   C504    1.109   1_556 S
H845   C504    1.110   1_556 S
H860   C510    1.111   1_554 S
H861   C510    1.110   1_554 S
O901   Zn985   1.941   .     S
O901   Zn988   1.935   .     S
O901   Zn992   1.936   .     S
O902   Zn991   1.911   .     S
O903   C1513   1.280   1_545 S
O903   Zn986   1.911   .     S
O904   C1524   1.281   1_545 A
O904   Zn1000  1.911   .     S
O905   Zn995   1.911   .     S
O906   Zn994   1.911   .     S
O906   C1546   1.277   .     S
O907   Zn997   1.911   .     S
O908   Zn996   1.911   .     S
O908   C68     1.280   1_655 S
O909   Zn999   1.911   .     S
O909   C1535   1.277   .     S
O910   Zn998   1.911   .     S
O911   Zn993   1.911   .     S
O911   C57     1.281   1_655 S
O912   Zn997   1.941   .     S
O912   Zn987   1.935   .     S
O912   Zn991   1.936   .     S
O913   Zn985   1.911   .     S
O914   Zn992   1.946   .     S
O915   Zn491   1.946   1_655 S
O916   Zn1986  1.939   .     S
O917   Zn1000  1.939   .     S
O918   Zn488   1.946   1_655 S
O919   Zn987   1.946   .     S
O920   Zn990   1.939   .     S
O921   Zn1989  1.939   .     S
O922   Zn991   1.942   .     S
O923   Zn990   1.941   .     S
O923   Zn1994  1.935   1_545 S
O923   Zn986   1.941   .     S
O923   Zn998   1.936   .     S
O924   Zn492   1.942   1_655 S
O925   Zn989   1.943   .     S
O926   Zn1990  1.943   .     S
O927   Zn487   1.942   1_655 S
O928   Zn988   1.942   .     S
O929   Zn2000  1.943   .     S
O930   Zn986   1.943   .     S
O931   Zn999   1.946   .     S
O932   Zn998   1.946   .     S
O933   Zn993   1.939   .     S
O934   Zn989   1.941   .     S
O934   Zn1999  1.936   1_545 S
O934   Zn1000  1.941   .     S
O934   Zn995   1.935   .     S
O935   Zn985   1.939   .     S
O936   Zn995   1.946   .     S
O937   Zn994   1.946   .     S
O938   Zn997   1.939   .     S
O939   Zn996   1.939   .     S
O940   Zn998   1.942   .     S
O941   Zn999   1.942   .     S
O942   Zn996   1.943   .     S
O943   Zn997   1.943   .     S
O944   Zn994   1.942   .     S
O945   Zn988   1.911   .     S
O946   Zn995   1.942   .     S
O947   Zn985   1.943   .     S
O948   Zn993   1.943   .     S
O956   Zn987   1.911   .     S
O967   C1513   1.281   1_545 S
O967   Zn990   1.911   .     S
O978   C1524   1.280   1_545 A
O978   Zn989   1.911   .     S
O984   Zn992   1.911   .     S
Zn986  O1916   1.939   1_545 S
Zn989  O1921   1.939   1_545 S
Zn990  O1926   1.943   1_545 S
Zn993  O412    1.941   1_655 S
Zn994  O1923   1.935   .     S
Zn996  O401    1.941   1_655 S
Zn999  O1934   1.936   .     S
Zn1000 O1929   1.943   1_545 S
C1001  C1068   1.414   .     S
C1001  C1089   1.193   1_554 S
C1002  C1144   1.413   .     S
C1002  O1902   1.277   .     S
C1002  O1956   1.277   .     S
C1003  C1176   1.529   .     S
C1003  H1341   1.112   .     S
C1003  C1004   1.528   .     S
C1003  H1342   1.112   .     S
C1004  H1343   1.111   .     S
C1004  H1344   1.109   1_554 S
C1004  H1345   1.110   1_554 S
C1005  H1347   1.111   .     S
C1005  C1006   1.531   .     S
C1005  H1348   1.114   .     S
C1005  O1457   1.417   .     S
C1006  C1007   1.526   .     S
C1006  H1349   1.111   .     S
C1006  H1350   1.111   .     S
C1007  H1352   1.109   .     S
C1007  H1351   1.111   .     S
C1007  H1353   1.111   .     S
C1008  H1354   1.115   .     S
C1008  O1458   1.412   .     S
C1008  H1355   1.115   .     S
C1008  C1009   1.528   .     S
C1009  C1010   1.526   .     S
C1009  H1356   1.111   .     S
C1009  H1358   1.111   .     S
C1010  H1359   1.111   .     S
C1010  H1360   1.111   1_556 S
C1010  H1361   1.110   1_556 S
C1011  O1459   1.416   .     S
C1011  H1362   1.111   .     S
C1011  H1363   1.114   .     S
C1011  C1012   1.532   .     S
C1012  H1365   1.111   .     S
C1012  H1364   1.111   .     S
C1012  C1014   1.525   .     S
C1013  C1133   1.414   .     S
C1013  O403    1.280   1_565 S
C1013  O467    1.281   1_565 S
C1014  H1366   1.111   .     S
C1014  H1367   1.110   .     S
C1014  H1369   1.110   .     S
C1015  O1460   1.421   .     S
C1015  H1370   1.111   .     S
C1015  H1371   1.117   .     S
C1015  C1016   1.530   .     S
C1016  C1017   1.527   .     S
C1016  H1373   1.111   .     S
C1016  H1372   1.112   .     S
C1017  H1375   1.110   .     S
C1017  H1374   1.111   .     S
C1017  H1376   1.111   .     S
C1018  H1377   1.111   .     S
C1018  H1378   1.116   .     S
C1018  C1019   1.532   .     S
C1018  O1461   1.417   .     S
C1019  C1020   1.526   .     S
C1019  H1380   1.111   .     S
C1019  H1381   1.110   .     S
C1020  H1382   1.111   .     S
C1020  H1384   1.110   .     S
C1020  H1383   1.110   .     S
C1021  O1462   1.414   .     S
C1021  H1385   1.113   .     S
C1021  C1022   1.529   .     S
C1021  H1386   1.113   .     S
C1022  H1387   1.112   .     S
C1022  C1023   1.525   .     S
C1022  H1388   1.111   .     S
C1023  H1391   1.111   .     S
C1023  H1389   1.109   .     S
C1023  H1392   1.111   .     S
C1024  O478    1.280   1_565 A
C1024  O404    1.281   1_565 A
C1024  C1122   1.414   .     S
C1025  O1463   1.420   .     S
C1025  H1394   1.116   .     S
C1025  C1026   1.534   .     S
C1025  H1393   1.108   .     S
C1026  H1395   1.110   .     S
C1026  C1027   1.526   .     S
C1026  H1396   1.110   .     S
C1027  H1398   1.110   .     S
C1027  H1399   1.109   .     S
C1027  H1397   1.109   .     S
C1028  H1400   1.115   .     S
C1028  C1029   1.529   .     S
C1028  O1464   1.412   .     S
C1028  H1179   1.115   .     S
C1029  C1030   1.526   .     S
C1029  H1181   1.111   .     S
C1029  H1180   1.112   .     S
C1030  H1182   1.111   .     S
C1030  H1183   1.111   1_556 S
C1030  H1184   1.111   1_556 S
C1031  C1032   1.534   .     S
C1031  H1185   1.111   .     S
C1031  O1465   1.416   .     S
C1031  H1186   1.115   .     S
C1032  H1187   1.111   .     S
C1032  C1033   1.525   .     S
C1032  H1188   1.111   .     S
C1033  H1191   1.111   .     S
C1033  H1190   1.111   .     S
C1033  H1192   1.109   .     S
C1034  O1466   1.414   .     S
C1034  H1194   1.115   .     S
C1034  C1036   1.524   .     S
C1034  H1193   1.114   .     S
C1035  O1405   1.277   .     A
C1035  C1111   1.413   .     S
C1036  C1037   1.521   .     S
C1036  H1195   1.110   .     S
C1037  H1197   1.111   .     S
C1037  H1199   1.111   .     S
C1038  H1202   1.119   .     S
C1038  O1468   1.417   .     S
C1038  H1201   1.112   .     S
C1038  C39     1.529   1_565 S
C1039  C1040   1.526   .     S
C1039  H1204   1.110   .     S
C1039  H1203   1.110   .     S
C1040  H1205   1.111   .     S
C1040  H1207   1.110   .     S
C1040  H1206   1.111   .     S
C1041  C1042   1.529   .     S
C1041  H1208   1.114   .     S
C1041  O1469   1.413   .     S
C1041  H1209   1.116   .     S
C1042  H1212   1.112   .     S
C1042  H1210   1.112   .     S
C1042  C1043   1.527   .     S
C1043  H1214   1.110   .     S
C1043  H1215   1.110   .     S
C1043  H1213   1.111   .     S
C1044  H1216   1.111   .     S
C1044  O1470   1.417   .     S
C1044  C1045   1.532   .     S
C1044  H1217   1.117   .     S
C1045  H1219   1.111   .     S
C1045  C1547   1.525   .     S
C1045  H1718   1.111   .     S
C1046  O1410   1.277   .     A
C1046  C1100   1.413   .     S
C1047  H1223   1.111   .     S
C1047  H1221   1.110   .     S
C1047  C1545   1.525   1_455 S
C1047  H1720   1.111   1_455 S
C1048  H1224   1.115   .     S
C1048  C1049   1.529   .     S
C1048  H1225   1.114   .     S
C1048  O1471   1.412   .     S
C1049  H1227   1.111   .     S
C1049  C1050   1.527   .     S
C1049  H1226   1.112   .     S
C1050  H1228   1.111   .     S
C1050  H1229   1.111   .     S
C1050  H1230   1.111   .     S
C1051  C1052   1.538   .     S
C1051  H1231   1.109   .     S
C1051  O1472   1.418   .     S
C1051  H1232   1.117   .     S
C1052  C1053   1.528   .     S
C1052  H1235   1.111   .     S
C1053  H1237   1.111   .     S
C1053  H1236   1.107   .     S
C1053  H1238   1.111   .     S
C1054  O1473   1.418   .     S
C1054  H1239   1.114   .     S
C1054  C1055   1.529   .     S
C1054  H1240   1.118   .     S
C1055  H1242   1.111   .     S
C1055  C1056   1.527   .     S
C1055  H1241   1.110   .     S
C1056  H1245   1.109   .     S
C1056  H1246   1.111   .     S
C1056  H1243   1.111   .     S
C1057  C1089   1.414   .     S
C1057  O1407   1.280   .     A
C1057  O1911   1.281   1_455 S
C1058  H1247   1.108   .     S
C1058  H1248   1.109   .     S
C1058  C1059   1.537   .     S
C1058  O1474   1.419   .     S
C1059  C1060   1.525   .     S
C1059  H1250   1.111   .     S
C1059  H1249   1.111   .     S
C1060  H1251   1.110   .     S
C1060  H1752   1.110   1_455 S
C1060  H1753   1.107   1_455 S
C1061  H1254   1.113   .     S
C1061  O1475   1.413   .     S
C1061  C1062   1.524   .     S
C1061  H1256   1.116   .     S
C1062  C1063   1.520   .     S
C1062  H1257   1.111   .     S
C1062  H258    1.111   1_565 S
C1063  H1259   1.110   .     S
C1063  H1261   1.110   .     S
C1063  H260    1.110   1_565 S
C1064  C1065   1.541   .     S
C1064  H1263   1.110   .     S
C1064  O1476   1.419   .     S
C1064  H1262   1.111   .     S
C1065  H1264   1.108   .     S
C1065  H1265   1.111   .     S
C1066  H1267   1.110   .     S
C1066  H1268   1.110   .     S
C1066  H1269   1.109   .     S
C1066  C65     1.524   1_565 S
C1067  H1270   1.113   .     S
C1067  H1271   1.116   .     S
C1067  O1477   1.415   .     S
C1067  C1069   1.528   .     S
C1068  O1413   1.280   .     A
C1068  O1908   1.280   1_455 S
C1069  C1070   1.526   .     S
C1069  H1272   1.111   .     S
C1069  H1773   1.112   1_455 S
C1070  H1276   1.111   .     S
C1070  H1274   1.110   .     S
C1070  H1775   1.110   1_455 S
C1071  H1278   1.111   .     S
C1071  H1279   1.119   .     S
C1071  O1479   1.415   .     S
C1071  C1572   1.526   .     S
C1072  C1073   1.525   .     S
C1072  H1280   1.107   .     S
C1072  H1281   1.111   .     S
C1072  C1571   1.526   1_455 S
C1073  H1282   1.111   .     S
C1073  H1283   1.111   .     S
C1073  H1284   1.110   .     S
C1074  H1286   1.115   .     S
C1074  O1480   1.412   .     S
C1074  H1285   1.115   .     S
C1074  C1075   1.528   .     S
C1075  H1287   1.112   .     S
C1075  H1290   1.112   .     S
C1075  C1076   1.527   .     S
C1076  H1291   1.111   .     S
C1076  H1293   1.111   .     S
C1076  H1292   1.111   .     S
C1077  H1294   1.109   .     S
C1077  C1078   1.534   .     S
C1077  H1295   1.117   .     S
C1077  O1481   1.419   .     S
C1078  H1297   1.110   .     S
C1078  C1080   1.525   .     S
C1078  H1296   1.111   .     S
C1079  C1146   1.467   .     S
C1079  O1447   1.280   .     A
C1079  O1414   1.276   .     A
C1080  H1298   1.111   .     S
C1080  H299    1.110   1_565 S
C1080  H301    1.109   1_565 S
C1081  H1303   1.117   .     S
C1081  H1302   1.110   .     S
C1081  C1082   1.530   .     S
C1081  O1482   1.422   .     S
C1082  H1305   1.111   .     S
C1082  H1304   1.111   .     S
C1082  C1083   1.527   .     S
C1083  H1308   1.111   .     S
C1083  H1306   1.111   .     S
C1083  H1307   1.110   .     S
C1084  C1085   1.536   .     S
C1084  H1309   1.109   .     S
C1084  H1310   1.110   .     S
C1084  O1483   1.421   .     S
C1085  C1086   1.527   .     S
C1085  H1312   1.109   .     S
C1085  H1313   1.111   .     S
C1086  H1314   1.110   .     S
C1086  H1815   1.108   1_455 S
C1086  H1816   1.109   1_455 S
C1087  C1147   1.468   .     S
C1087  O1415   1.279   .     A
C1087  O1448   1.277   .     A
C1088  C1139   1.454   .     S
C1088  O1444   1.276   .     A
C1088  O1416   1.274   .     A
C1089  C1001   1.193   1_556 S
C1090  O1446   1.277   .     A
C1090  C1140   1.466   .     S
C1090  O1417   1.280   .     A
C1091  C1141   1.459   .     S
C1091  O1418   1.278   .     A
C1091  O1442   1.274   .     A
C1092  O1443   1.279   .     A
C1092  O1419   1.276   .     A
C1092  C1142   1.465   .     S
C1093  O1440   1.272   .     A
C1093  O1420   1.278   .     A
C1093  C1143   1.454   .     S
C1094  C1145   1.454   .     S
C1094  O1441   1.274   .     A
C1094  O1421   1.276   .     A
C1095  O1438   1.278   .     A
C1095  O1422   1.279   .     A
C1095  C1154   1.467   .     S
C1096  O1439   1.279   .     A
C1096  C1156   1.467   .     S
C1096  O1424   1.278   .     A
C1097  O1425   1.278   .     A
C1097  C1148   1.466   .     S
C1097  O1436   1.277   .     A
C1098  O1426   1.279   .     A
C1098  C1149   1.467   .     S
C1098  O1437   1.277   .     A
C1099  O1433   1.274   .     A
C1099  O1427   1.275   .     A
C1099  C1150   1.454   .     S
C1100  C1111   1.193   1_554 S
C1101  C1151   1.466   .     S
C1101  O1435   1.277   .     A
C1101  O1428   1.280   .     A
C1102  O1431   1.274   .     A
C1102  C1152   1.460   .     S
C1102  O1429   1.278   .     A
C1103  O1432   1.277   .     A
C1103  O1430   1.276   .     A
C1103  C1153   1.462   .     S
C1104  C1116   1.396   .     A
C1104  C1151   1.413   .     A
C1104  O1449   1.384   .     S
C1105  C1150   1.402   .     A
C1105  C1115   1.403   .     A
C1105  O1450   1.386   .     S
C1106  O1451   1.386   .     S
C1106  C1114   1.403   .     A
C1106  C1149   1.412   .     A
C1107  C1113   1.396   .     A
C1107  C1148   1.412   .     A
C1107  O1452   1.388   .     S
C1108  C1120   1.407   .     A
C1108  O1453   1.388   .     S
C1108  C1156   1.414   .     A
C1109  C1119   1.399   .     A
C1109  O1454   1.390   .     S
C1109  C1154   1.415   .     A
C1110  C1118   1.397   .     A
C1110  C1153   1.408   .     A
C1110  O1455   1.386   .     S
C1111  C1100   1.193   1_556 S
C1112  C1117   1.409   .     A
C1112  O1457   1.388   .     S
C1112  C1152   1.409   .     A
C1113  C1142   1.410   .     A
C1113  O1458   1.383   .     S
C1114  C1141   1.407   .     A
C1114  O1459   1.387   .     S
C1115  O1460   1.387   .     S
C1115  C1140   1.414   .     A
C1116  O1461   1.385   .     S
C1116  C1139   1.400   .     A
C1117  O1462   1.387   .     S
C1117  C1147   1.413   .     A
C1118  O1463   1.385   .     S
C1118  C1146   1.408   .     A
C1119  C1145   1.406   .     A
C1119  O1464   1.385   .     S
C1120  O1465   1.387   .     S
C1120  C1143   1.406   .     A
C1121  O1466   1.383   .     S
C1121  C1140   1.412   .     A
C1121  C1134   1.397   .     A
C1122  C1133   1.193   .     T
C1123  O1468   1.384   .     S
C1123  C1132   1.401   .     A
C1123  C1139   1.405   .     A
C1124  C1142   1.413   .     A
C1124  C1131   1.398   .     A
C1124  O1469   1.384   .     S
C1125  O1470   1.386   .     S
C1125  C1141   1.404   .     A
C1125  C1130   1.402   .     A
C1126  C1145   1.406   .     A
C1126  O1471   1.385   .     S
C1126  C1138   1.397   .     A
C1127  C1143   1.399   .     A
C1127  O1472   1.384   .     S
C1127  C1137   1.401   .     A
C1128  O1473   1.383   .     S
C1128  C1147   1.410   .     A
C1128  C1136   1.392   .     A
C1129  C1135   1.398   .     A
C1129  C1146   1.413   .     A
C1129  O1474   1.389   .     S
C1130  O1475   1.384   .     S
C1130  C1149   1.411   .     A
C1131  O1476   1.388   .     S
C1131  C1148   1.411   .     A
C1132  O1477   1.386   .     S
C1132  C1151   1.413   .     A
C1134  O1479   1.383   .     S
C1134  C1150   1.401   .     A
C1135  O1480   1.384   .     S
C1135  C1153   1.411   .     A
C1136  C1152   1.403   .     A
C1136  O1481   1.383   .     S
C1137  O1482   1.387   .     S
C1137  C1156   1.411   .     A
C1138  C1154   1.415   .     A
C1138  O1483   1.389   .     S
C1144  C1155   1.193   .     T
C1155  C1166   1.413   .     S
C1157  C1158   1.527   .     S
C1157  H1288   1.116   .     S
C1157  O1449   1.416   .     S
C1157  H1177   1.115   .     S
C1158  C1159   1.527   .     S
C1158  H1335   1.112   .     S
C1158  H1324   1.111   .     S
C1159  H1357   1.110   .     S
C1159  H1346   1.111   .     S
C1159  H1368   1.111   .     S
C1160  H1390   1.116   .     S
C1160  H1379   1.110   .     S
C1160  O1450   1.417   .     S
C1160  C1161   1.532   .     S
C1161  C1162   1.526   .     S
C1161  H1178   1.111   .     S
C1161  H1189   1.110   .     S
C1162  H1200   1.111   .     S
C1162  H1211   1.110   .     S
C1162  H1222   1.110   .     S
C1163  O1451   1.415   .     S
C1163  H1244   1.116   .     S
C1163  H1233   1.113   .     S
C1163  C1164   1.528   .     S
C1164  C1165   1.526   .     S
C1164  H1266   1.111   .     S
C1164  H1255   1.111   .     S
C1165  H1300   1.111   .     S
C1165  H1289   1.111   .     S
C1165  H1277   1.111   .     S
C1166  O1945   1.277   .     S
C1166  O1984   1.277   .     S
C1167  H1317   1.109   .     S
C1167  O1452   1.419   .     S
C1167  C1168   1.537   .     S
C1167  H1311   1.109   .     S
C1168  H1318   1.110   .     S
C1168  C1169   1.525   .     S
C1168  H1319   1.111   .     S
C1169  H1322   1.109   .     S
C1169  H1321   1.110   .     S
C1169  H1320   1.110   .     S
C1170  O1453   1.419   .     S
C1170  C1171   1.528   .     S
C1170  H1323   1.111   .     S
C1170  H1325   1.117   .     S
C1171  H1327   1.111   .     S
C1171  C1172   1.523   .     S
C1171  H1326   1.111   .     S
C1172  H1328   1.111   .     S
C1172  H1329   1.110   .     S
C1172  H1330   1.111   .     S
C1173  O1454   1.422   .     S
C1173  H1332   1.115   .     S
C1173  H1331   1.111   .     S
C1173  C1174   1.532   .     S
C1174  H1333   1.112   .     S
C1174  C1175   1.529   .     S
C1174  H1334   1.110   .     S
C1175  H1337   1.110   .     S
C1175  H1336   1.108   .     S
C1175  H1338   1.111   .     S
C1176  H1339   1.113   .     S
C1176  O1455   1.414   .     S
C1176  H1340   1.117   .     S
H1183  C1030   1.111   1_554 S
H1184  C1030   1.111   1_554 S
H1196  C36     1.110   1_565 S
H1198  C37     1.110   1_565 S
H1218  C1545   1.111   1_455 S
H1220  C1547   1.111   .     S
H1234  C52     1.112   1_565 S
H1252  C1560   1.110   .     S
H1253  C1560   1.107   .     S
H1273  C1569   1.112   .     S
H1275  C1570   1.110   .     S
H1315  C1586   1.108   .     S
H1316  C1586   1.109   .     S
H1344  C1004   1.109   1_556 S
H1345  C1004   1.110   1_556 S
H1360  C1010   1.111   1_554 S
H1361  C1010   1.110   1_554 S
O1401  Zn1996  1.941   1_455 S
O1401  Zn1485  1.941   .     S
O1401  Zn1488  1.935   .     S
O1401  Zn1492  1.936   .     S
O1402  Zn1491  1.911   .     S
O1402  C1502   1.277   1_455 S
O1403  Zn1486  1.911   .     S
O1404  Zn1500  1.911   .     S
O1405  Zn1495  1.911   .     S
O1406  Zn1494  1.911   .     S
O1406  C46     1.277   1_565 S
O1407  Zn1497  1.911   .     S
O1408  Zn1496  1.911   .     S
O1408  C1568   1.280   .     S
O1409  Zn1499  1.911   .     S
O1409  C35     1.277   1_565 S
O1410  Zn1498  1.911   .     S
O1411  Zn1493  1.911   .     S
O1411  C1557   1.281   .     S
O1412  Zn1497  1.941   .     S
O1412  Zn1487  1.935   .     S
O1412  Zn1491  1.936   .     S
O1412  Zn1993  1.941   1_455 S
O1413  Zn1485  1.911   .     S
O1414  Zn1492  1.946   .     S
O1415  Zn1991  1.946   .     S
O1416  Zn486   1.939   1_565 S
O1417  Zn1500  1.939   .     S
O1418  Zn1988  1.946   .     S
O1419  Zn1487  1.946   .     S
O1420  Zn1490  1.939   .     S
O1421  Zn489   1.939   1_565 S
O1422  Zn1491  1.942   .     S
O1423  Zn1490  1.941   .     S
O1423  Zn1486  1.941   .     S
O1423  Zn1498  1.936   .     S
O1424  Zn1992  1.942   .     S
O1425  Zn1489  1.943   .     S
O1426  Zn490   1.943   1_565 S
O1427  Zn1987  1.942   .     S
O1428  Zn1488  1.942   .     S
O1429  Zn500   1.943   1_565 S
O1430  Zn1486  1.943   .     S
O1431  Zn1499  1.946   .     S
O1432  Zn1498  1.946   .     S
O1433  Zn1493  1.939   .     S
O1434  Zn1489  1.941   .     S
O1434  Zn1500  1.941   .     S
O1434  Zn1495  1.935   .     S
O1435  Zn1485  1.939   .     S
O1436  Zn1495  1.946   .     S
O1437  Zn1494  1.946   .     S
O1438  Zn1497  1.939   .     S
O1439  Zn1496  1.939   .     S
O1440  Zn1498  1.942   .     S
O1441  Zn1499  1.942   .     S
O1442  Zn1496  1.943   .     S
O1443  Zn1497  1.943   .     S
O1444  Zn1494  1.942   .     S
O1445  Zn1488  1.911   .     S
O1445  C1666   1.277   1_455 S
O1446  Zn1495  1.942   .     S
O1447  Zn1485  1.943   .     S
O1448  Zn1493  1.943   .     S
O1456  Zn1487  1.911   .     S
O1456  C1502   1.277   1_455 S
O1467  Zn1490  1.911   .     S
O1478  Zn1489  1.911   .     S
O1484  Zn1492  1.911   .     S
O1484  C1666   1.277   1_455 S
Zn1487 O1927   1.942   1_455 S
Zn1488 O1918   1.946   1_455 S
Zn1491 O1915   1.946   1_455 S
Zn1492 O1924   1.942   1_455 S
Zn1493 O1912   1.941   .     S
Zn1494 O423    1.935   1_565 S
Zn1496 O1901   1.941   .     S
Zn1499 O434    1.936   1_565 S
C1501  C1568   1.414   .     S
C1501  C1589   1.193   1_554 S
C1502  C1644   1.413   .     S
C1502  O1402   1.277   1_655 S
C1502  O1456   1.277   1_655 S
C1503  C1676   1.529   .     S
C1503  H1841   1.112   .     S
C1503  C1504   1.528   .     S
C1503  H1842   1.112   .     S
C1504  H1843   1.111   .     S
C1504  H1844   1.109   1_554 S
C1504  H1845   1.110   1_554 S
C1505  H1847   1.111   .     S
C1505  C1506   1.531   .     S
C1505  H1848   1.114   .     S
C1505  O1957   1.417   .     S
C1506  C1507   1.526   .     S
C1506  H1849   1.111   .     S
C1506  H1850   1.111   .     S
C1507  H1852   1.109   .     S
C1507  H1851   1.111   .     S
C1507  H1853   1.111   .     S
C1508  H1854   1.115   .     S
C1508  O1958   1.412   .     S
C1508  H1855   1.115   .     S
C1508  C1509   1.528   .     S
C1509  C1510   1.526   .     S
C1509  H1856   1.111   .     S
C1509  H1858   1.111   .     S
C1510  H1859   1.111   .     S
C1510  H1860   1.111   1_556 S
C1510  H1861   1.110   1_556 S
C1511  O1959   1.416   .     S
C1511  H1862   1.111   .     S
C1511  H1863   1.114   .     S
C1511  C1512   1.532   .     S
C1512  H1865   1.111   .     S
C1512  H1864   1.111   .     S
C1512  C1514   1.525   .     S
C1513  C1633   1.414   .     S
C1513  O903    1.280   1_565 S
C1513  O967    1.281   1_565 S
C1514  H1866   1.111   .     S
C1514  H1867   1.110   .     S
C1514  H1869   1.110   .     S
C1515  O1960   1.421   .     S
C1515  H1870   1.111   .     S
C1515  H1871   1.117   .     S
C1515  C1516   1.530   .     S
C1516  C1517   1.527   .     S
C1516  H1873   1.111   .     S
C1516  H1872   1.112   .     S
C1517  H1875   1.110   .     S
C1517  H1874   1.111   .     S
C1517  H1876   1.111   .     S
C1518  H1877   1.111   .     S
C1518  H1878   1.116   .     S
C1518  C1519   1.532   .     S
C1518  O1961   1.417   .     S
C1519  C1520   1.526   .     S
C1519  H1880   1.111   .     S
C1519  H1881   1.110   .     S
C1520  H1882   1.111   .     S
C1520  H1884   1.110   .     S
C1520  H1883   1.110   .     S
C1521  O1962   1.414   .     S
C1521  H1885   1.113   .     S
C1521  C1522   1.529   .     S
C1521  H1886   1.113   .     S
C1522  H1887   1.112   .     S
C1522  C1523   1.525   .     S
C1522  H1888   1.111   .     S
C1523  H1891   1.111   .     S
C1523  H1889   1.109   .     S
C1523  H1892   1.111   .     S
C1524  O978    1.280   1_565 A
C1524  O904    1.281   1_565 A
C1524  C1622   1.414   .     S
C1525  O1963   1.420   .     S
C1525  H1894   1.116   .     S
C1525  C1526   1.534   .     S
C1525  H1893   1.108   .     S
C1526  H1895   1.110   .     S
C1526  C1527   1.526   .     S
C1526  H1896   1.110   .     S
C1527  H1898   1.110   .     S
C1527  H1899   1.109   .     S
C1527  H1897   1.109   .     S
C1528  H1900   1.115   .     S
C1528  C1529   1.529   .     S
C1528  O1964   1.412   .     S
C1528  H1679   1.115   .     S
C1529  C1530   1.526   .     S
C1529  H1681   1.111   .     S
C1529  H1680   1.112   .     S
C1530  H1682   1.111   .     S
C1530  H1683   1.111   1_556 S
C1530  H1684   1.111   1_556 S
C1531  C1532   1.534   .     S
C1531  H1685   1.111   .     S
C1531  O1965   1.416   .     S
C1531  H1686   1.115   .     S
C1532  H1687   1.111   .     S
C1532  C1533   1.525   .     S
C1532  H1688   1.111   .     S
C1533  H1691   1.111   .     S
C1533  H1690   1.111   .     S
C1533  H1692   1.109   .     S
C1534  O1966   1.414   .     S
C1534  H1694   1.115   .     S
C1534  C1536   1.524   .     S
C1534  H1693   1.114   .     S
C1535  O1905   1.277   .     A
C1535  C1611   1.413   .     S
C1536  C1537   1.521   .     S
C1536  H1695   1.110   .     S
C1537  H1697   1.111   .     S
C1537  H1699   1.111   .     S
C1538  H1702   1.119   .     S
C1538  O1968   1.417   .     S
C1538  H1701   1.112   .     S
C1538  C539    1.529   1_565 S
C1539  C1540   1.526   .     S
C1539  H1704   1.110   .     S
C1539  H1703   1.110   .     S
C1540  H1705   1.111   .     S
C1540  H1707   1.110   .     S
C1540  H1706   1.111   .     S
C1541  C1542   1.529   .     S
C1541  H1708   1.114   .     S
C1541  O1969   1.413   .     S
C1541  H1709   1.116   .     S
C1542  H1712   1.112   .     S
C1542  H1710   1.112   .     S
C1542  C1543   1.527   .     S
C1543  H1714   1.110   .     S
C1543  H1715   1.110   .     S
C1543  H1713   1.111   .     S
C1544  H1716   1.111   .     S
C1544  O1970   1.417   .     S
C1544  C1545   1.532   .     S
C1544  H1717   1.117   .     S
C1545  H1719   1.111   .     S
C1545  C1047   1.525   1_655 S
C1545  H1218   1.111   1_655 S
C1546  O1910   1.277   .     A
C1546  C1600   1.413   .     S
C1547  H1723   1.111   .     S
C1547  H1721   1.110   .     S
C1548  H1724   1.115   .     S
C1548  C1549   1.529   .     S
C1548  H1725   1.114   .     S
C1548  O1971   1.412   .     S
C1549  H1727   1.111   .     S
C1549  C1550   1.527   .     S
C1549  H1726   1.112   .     S
C1550  H1728   1.111   .     S
C1550  H1729   1.111   .     S
C1550  H1730   1.111   .     S
C1551  C1552   1.538   .     S
C1551  H1731   1.109   .     S
C1551  O1972   1.418   .     S
C1551  H1732   1.117   .     S
C1552  C1553   1.528   .     S
C1552  H1735   1.111   .     S
C1553  H1737   1.111   .     S
C1553  H1736   1.107   .     S
C1553  H1738   1.111   .     S
C1554  O1973   1.418   .     S
C1554  H1739   1.114   .     S
C1554  C1555   1.529   .     S
C1554  H1740   1.118   .     S
C1555  H1742   1.111   .     S
C1555  C1556   1.527   .     S
C1555  H1741   1.110   .     S
C1556  H1745   1.109   .     S
C1556  H1746   1.111   .     S
C1556  H1743   1.111   .     S
C1557  C1589   1.414   .     S
C1557  O1907   1.280   .     A
C1558  H1747   1.108   .     S
C1558  H1748   1.109   .     S
C1558  C1559   1.537   .     S
C1558  O1974   1.419   .     S
C1559  C1560   1.525   .     S
C1559  H1750   1.111   .     S
C1559  H1749   1.111   .     S
C1560  H1751   1.110   .     S
C1561  H1754   1.113   .     S
C1561  O1975   1.413   .     S
C1561  C1562   1.524   .     S
C1561  H1756   1.116   .     S
C1562  C1563   1.520   .     S
C1562  H1757   1.111   .     S
C1562  H758    1.111   1_565 S
C1563  H1759   1.110   .     S
C1563  H1761   1.110   .     S
C1563  H760    1.110   1_565 S
C1564  C1565   1.541   .     S
C1564  H1763   1.110   .     S
C1564  O1976   1.419   .     S
C1564  H1762   1.111   .     S
C1565  H1764   1.108   .     S
C1565  H1765   1.111   .     S
C1566  H1767   1.110   .     S
C1566  H1768   1.110   .     S
C1566  H1769   1.109   .     S
C1566  C565    1.524   1_565 S
C1567  H1770   1.113   .     S
C1567  H1771   1.116   .     S
C1567  O1977   1.415   .     S
C1567  C1569   1.528   .     S
C1568  O1913   1.280   .     A
C1569  C1570   1.526   .     S
C1569  H1772   1.111   .     S
C1570  H1776   1.111   .     S
C1570  H1774   1.110   .     S
C1571  H1778   1.111   .     S
C1571  H1779   1.119   .     S
C1571  O1979   1.415   .     S
C1571  C1072   1.526   1_655 S
C1572  C1573   1.525   .     S
C1572  H1780   1.107   .     S
C1572  H1781   1.111   .     S
C1573  H1782   1.111   .     S
C1573  H1783   1.111   .     S
C1573  H1784   1.110   .     S
C1574  H1786   1.115   .     S
C1574  O1980   1.412   .     S
C1574  H1785   1.115   .     S
C1574  C1575   1.528   .     S
C1575  H1787   1.112   .     S
C1575  H1790   1.112   .     S
C1575  C1576   1.527   .     S
C1576  H1791   1.111   .     S
C1576  H1793   1.111   .     S
C1576  H1792   1.111   .     S
C1577  H1794   1.109   .     S
C1577  C1578   1.534   .     S
C1577  H1795   1.117   .     S
C1577  O1981   1.419   .     S
C1578  H1797   1.110   .     S
C1578  C1580   1.525   .     S
C1578  H1796   1.111   .     S
C1579  C1646   1.467   .     S
C1579  O1947   1.280   .     A
C1579  O1914   1.276   .     A
C1580  H1798   1.111   .     S
C1580  H799    1.110   1_565 S
C1580  H801    1.109   1_565 S
C1581  H1803   1.117   .     S
C1581  H1802   1.110   .     S
C1581  C1582   1.530   .     S
C1581  O1982   1.422   .     S
C1582  H1805   1.111   .     S
C1582  H1804   1.111   .     S
C1582  C1583   1.527   .     S
C1583  H1808   1.111   .     S
C1583  H1806   1.111   .     S
C1583  H1807   1.110   .     S
C1584  C1585   1.536   .     S
C1584  H1809   1.109   .     S
C1584  H1810   1.110   .     S
C1584  O1983   1.421   .     S
C1585  C1586   1.527   .     S
C1585  H1812   1.109   .     S
C1585  H1813   1.111   .     S
C1586  H1814   1.110   .     S
C1587  C1647   1.468   .     S
C1587  O1915   1.279   .     A
C1587  O1948   1.277   .     A
C1588  C1639   1.454   .     S
C1588  O1944   1.276   .     A
C1588  O1916   1.274   .     A
C1589  C1501   1.193   1_556 S
C1590  O1946   1.277   .     A
C1590  C1640   1.466   .     S
C1590  O1917   1.280   .     A
C1591  C1641   1.459   .     S
C1591  O1918   1.278   .     A
C1591  O1942   1.274   .     A
C1592  O1943   1.279   .     A
C1592  O1919   1.276   .     A
C1592  C1642   1.465   .     S
C1593  O1940   1.272   .     A
C1593  O1920   1.278   .     A
C1593  C1643   1.454   .     S
C1594  C1645   1.454   .     S
C1594  O1941   1.274   .     A
C1594  O1921   1.276   .     A
C1595  O1938   1.278   .     A
C1595  O1922   1.279   .     A
C1595  C1654   1.467   .     S
C1596  O1939   1.279   .     A
C1596  C1656   1.467   .     S
C1596  O1924   1.278   .     A
C1597  O1925   1.278   .     A
C1597  C1648   1.466   .     S
C1597  O1936   1.277   .     A
C1598  O1926   1.279   .     A
C1598  C1649   1.467   .     S
C1598  O1937   1.277   .     A
C1599  O1933   1.274   .     A
C1599  O1927   1.275   .     A
C1599  C1650   1.454   .     S
C1600  C1611   1.193   1_554 S
C1601  C1651   1.466   .     S
C1601  O1935   1.277   .     A
C1601  O1928   1.280   .     A
C1602  O1931   1.274   .     A
C1602  C1652   1.460   .     S
C1602  O1929   1.278   .     A
C1603  O1932   1.277   .     A
C1603  O1930   1.276   .     A
C1603  C1653   1.462   .     S
C1604  C1616   1.396   .     A
C1604  C1651   1.413   .     A
C1604  O1949   1.384   .     S
C1605  C1650   1.402   .     A
C1605  C1615   1.403   .     A
C1605  O1950   1.386   .     S
C1606  O1951   1.386   .     S
C1606  C1614   1.403   .     A
C1606  C1649   1.412   .     A
C1607  C1613   1.396   .     A
C1607  C1648   1.412   .     A
C1607  O1952   1.388   .     S
C1608  C1620   1.407   .     A
C1608  O1953   1.388   .     S
C1608  C1656   1.414   .     A
C1609  C1619   1.399   .     A
C1609  O1954   1.390   .     S
C1609  C1654   1.415   .     A
C1610  C1618   1.397   .     A
C1610  C1653   1.408   .     A
C1610  O1955   1.386   .     S
C1611  C1600   1.193   1_556 S
C1612  C1617   1.409   .     A
C1612  O1957   1.388   .     S
C1612  C1652   1.409   .     A
C1613  C1642   1.410   .     A
C1613  O1958   1.383   .     S
C1614  C1641   1.407   .     A
C1614  O1959   1.387   .     S
C1615  O1960   1.387   .     S
C1615  C1640   1.414   .     A
C1616  O1961   1.385   .     S
C1616  C1639   1.400   .     A
C1617  O1962   1.387   .     S
C1617  C1647   1.413   .     A
C1618  O1963   1.385   .     S
C1618  C1646   1.408   .     A
C1619  C1645   1.406   .     A
C1619  O1964   1.385   .     S
C1620  O1965   1.387   .     S
C1620  C1643   1.406   .     A
C1621  O1966   1.383   .     S
C1621  C1640   1.412   .     A
C1621  C1634   1.397   .     A
C1622  C1633   1.193   .     T
C1623  O1968   1.384   .     S
C1623  C1632   1.401   .     A
C1623  C1639   1.405   .     A
C1624  C1642   1.413   .     A
C1624  C1631   1.398   .     A
C1624  O1969   1.384   .     S
C1625  O1970   1.386   .     S
C1625  C1641   1.404   .     A
C1625  C1630   1.402   .     A
C1626  C1645   1.406   .     A
C1626  O1971   1.385   .     S
C1626  C1638   1.397   .     A
C1627  C1643   1.399   .     A
C1627  O1972   1.384   .     S
C1627  C1637   1.401   .     A
C1628  O1973   1.383   .     S
C1628  C1647   1.410   .     A
C1628  C1636   1.392   .     A
C1629  C1635   1.398   .     A
C1629  C1646   1.413   .     A
C1629  O1974   1.389   .     S
C1630  O1975   1.384   .     S
C1630  C1649   1.411   .     A
C1631  O1976   1.388   .     S
C1631  C1648   1.411   .     A
C1632  O1977   1.386   .     S
C1632  C1651   1.413   .     A
C1634  O1979   1.383   .     S
C1634  C1650   1.401   .     A
C1635  O1980   1.384   .     S
C1635  C1653   1.411   .     A
C1636  C1652   1.403   .     A
C1636  O1981   1.383   .     S
C1637  O1982   1.387   .     S
C1637  C1656   1.411   .     A
C1638  C1654   1.415   .     A
C1638  O1983   1.389   .     S
C1644  C1655   1.193   .     T
C1655  C1666   1.413   .     S
C1657  C1658   1.527   .     S
C1657  H1788   1.116   .     S
C1657  O1949   1.416   .     S
C1657  H1677   1.115   .     S
C1658  C1659   1.527   .     S
C1658  H1835   1.112   .     S
C1658  H1824   1.111   .     S
C1659  H1857   1.110   .     S
C1659  H1846   1.111   .     S
C1659  H1868   1.111   .     S
C1660  H1890   1.116   .     S
C1660  H1879   1.110   .     S
C1660  O1950   1.417   .     S
C1660  C1661   1.532   .     S
C1661  C1662   1.526   .     S
C1661  H1678   1.111   .     S
C1661  H1689   1.110   .     S
C1662  H1700   1.111   .     S
C1662  H1711   1.110   .     S
C1662  H1722   1.110   .     S
C1663  O1951   1.415   .     S
C1663  H1744   1.116   .     S
C1663  H1733   1.113   .     S
C1663  C1664   1.528   .     S
C1664  C1665   1.526   .     S
C1664  H1766   1.111   .     S
C1664  H1755   1.111   .     S
C1665  H1800   1.111   .     S
C1665  H1789   1.111   .     S
C1665  H1777   1.111   .     S
C1666  O1445   1.277   1_655 S
C1666  O1484   1.277   1_655 S
C1667  H1817   1.109   .     S
C1667  O1952   1.419   .     S
C1667  C1668   1.537   .     S
C1667  H1811   1.109   .     S
C1668  H1818   1.110   .     S
C1668  C1669   1.525   .     S
C1668  H1819   1.111   .     S
C1669  H1822   1.109   .     S
C1669  H1821   1.110   .     S
C1669  H1820   1.110   .     S
C1670  O1953   1.419   .     S
C1670  C1671   1.528   .     S
C1670  H1823   1.111   .     S
C1670  H1825   1.117   .     S
C1671  H1827   1.111   .     S
C1671  C1672   1.523   .     S
C1671  H1826   1.111   .     S
C1672  H1828   1.111   .     S
C1672  H1829   1.110   .     S
C1672  H1830   1.111   .     S
C1673  O1954   1.422   .     S
C1673  H1832   1.115   .     S
C1673  H1831   1.111   .     S
C1673  C1674   1.532   .     S
C1674  H1833   1.112   .     S
C1674  C1675   1.529   .     S
C1674  H1834   1.110   .     S
C1675  H1837   1.110   .     S
C1675  H1836   1.108   .     S
C1675  H1838   1.111   .     S
C1676  H1839   1.113   .     S
C1676  O1955   1.414   .     S
C1676  H1840   1.117   .     S
H1683  C1530   1.111   1_554 S
H1684  C1530   1.111   1_554 S
H1696  C536    1.110   1_565 S
H1698  C537    1.110   1_565 S
H1720  C1047   1.111   1_655 S
H1734  C552    1.112   1_565 S
H1752  C1060   1.110   1_655 S
H1753  C1060   1.107   1_655 S
H1773  C1069   1.112   1_655 S
H1775  C1070   1.110   1_655 S
H1815  C1086   1.108   1_655 S
H1816  C1086   1.109   1_655 S
H1844  C1504   1.109   1_556 S
H1845  C1504   1.110   1_556 S
H1860  C1510   1.111   1_554 S
H1861  C1510   1.110   1_554 S
O1901  Zn1985  1.941   .     S
O1901  Zn1988  1.935   .     S
O1901  Zn1992  1.936   .     S
O1902  Zn1991  1.911   .     S
O1903  Zn1986  1.911   .     S
O1904  Zn2000  1.911   .     S
O1905  Zn1995  1.911   .     S
O1906  Zn1994  1.911   .     S
O1906  C546    1.277   1_565 S
O1907  Zn1997  1.911   .     S
O1908  Zn1996  1.911   .     S
O1908  C1068   1.280   1_655 S
O1909  Zn1999  1.911   .     S
O1909  C535    1.277   1_565 S
O1910  Zn1998  1.911   .     S
O1911  Zn1993  1.911   .     S
O1911  C1057   1.281   1_655 S
O1912  Zn1997  1.941   .     S
O1912  Zn1987  1.935   .     S
O1912  Zn1991  1.936   .     S
O1913  Zn1985  1.911   .     S
O1914  Zn1992  1.946   .     S
O1915  Zn1491  1.946   1_655 S
O1916  Zn986   1.939   1_565 S
O1917  Zn2000  1.939   .     S
O1918  Zn1488  1.946   1_655 S
O1919  Zn1987  1.946   .     S
O1920  Zn1990  1.939   .     S
O1921  Zn989   1.939   1_565 S
O1922  Zn1991  1.942   .     S
O1923  Zn1990  1.941   .     S
O1923  Zn1986  1.941   .     S
O1923  Zn1998  1.936   .     S
O1924  Zn1492  1.942   1_655 S
O1925  Zn1989  1.943   .     S
O1926  Zn990   1.943   1_565 S
O1927  Zn1487  1.942   1_655 S
O1928  Zn1988  1.942   .     S
O1929  Zn1000  1.943   1_565 S
O1930  Zn1986  1.943   .     S
O1931  Zn1999  1.946   .     S
O1932  Zn1998  1.946   .     S
O1933  Zn1993  1.939   .     S
O1934  Zn1989  1.941   .     S
O1934  Zn2000  1.941   .     S
O1934  Zn1995  1.935   .     S
O1935  Zn1985  1.939   .     S
O1936  Zn1995  1.946   .     S
O1937  Zn1994  1.946   .     S
O1938  Zn1997  1.939   .     S
O1939  Zn1996  1.939   .     S
O1940  Zn1998  1.942   .     S
O1941  Zn1999  1.942   .     S
O1942  Zn1996  1.943   .     S
O1943  Zn1997  1.943   .     S
O1944  Zn1994  1.942   .     S
O1945  Zn1988  1.911   .     S
O1946  Zn1995  1.942   .     S
O1947  Zn1985  1.943   .     S
O1948  Zn1993  1.943   .     S
O1956  Zn1987  1.911   .     S
O1967  Zn1990  1.911   .     S
O1978  Zn1989  1.911   .     S
O1984  Zn1992  1.911   .     S
Zn1993 O1412   1.941   1_655 S
Zn1994 O923    1.935   1_565 S
Zn1996 O1401   1.941   1_655 S
Zn1999 O934    1.936   1_565 S
