data_str_m1_o10_o18_pcu_sym.150
_audit_creation_date              2020-01-03
_audit_creation_method            'Materials Studio'
_symmetry_space_group_name_H-M    'P1'
_symmetry_Int_Tables_number       1
_symmetry_cell_setting            triclinic
loop_
_symmetry_equiv_pos_as_xyz
  x,y,z
_cell_length_a                    32.7426
_cell_length_b                    32.5441
_cell_length_c                    35.4672
_cell_angle_alpha                 97.9667
_cell_angle_beta                  73.3965
_cell_angle_gamma                 98.6213
loop_
_atom_site_label
_atom_site_type_symbol
_atom_site_fract_x
_atom_site_fract_y
_atom_site_fract_z
_atom_site_U_iso_or_equiv
_atom_site_adp_type
_atom_site_occupancy
C1     C     0.05300   0.16038   0.25796   0.00000  Uiso   1.00
C2     C     0.16956   0.10746   0.46497   0.00000  Uiso   1.00
C3     C     0.19130   0.08908   0.48580   0.00000  Uiso   1.00
C4     C     0.28093   0.17326   0.24155   0.00000  Uiso   1.00
C5     C     0.19395   0.10581   0.02357   0.00000  Uiso   1.00
C6     C     0.17350   0.14139   0.04236   0.00000  Uiso   1.00
C7     C     0.21517   0.08552   0.04334   0.00000  Uiso   1.00
C8     C     0.21536   0.09887   0.08247   0.00000  Uiso   1.00
C9     C     0.17915   0.15881   0.07992   0.00000  Uiso   1.00
C10    C     0.32632   0.17491   0.23930   0.00000  Uiso   1.00
C11    C     0.00741   0.15579   0.26383   0.00000  Uiso   1.00
C12    C     0.09876   0.21629   0.42047   0.00000  Uiso   1.00
C13    C     0.18208   0.32240   0.23701   0.00000  Uiso   1.00
C14    C     0.15291   0.01216   0.26168   0.00000  Uiso   1.00
C15    C     0.15534   0.05623   0.25954   0.00000  Uiso   1.00
C16    C     0.17689   0.27764   0.24093   0.00000  Uiso   1.00
C17    C     0.18806   0.14523   0.14397   0.00000  Uiso   1.00
C18    C     0.14540   0.18761   0.35628   0.00000  Uiso   1.00
C19    C     0.13242   0.19292   0.39985   0.00000  Uiso   1.00
C20    C     0.19633   0.13535   0.10111   0.00000  Uiso   1.00
C21    C     0.08465   0.21994   0.46207   0.00000  Uiso   1.00
C22    C     0.31253   0.13017   0.29694   0.00000  Uiso   1.00
C23    C     0.15182   0.17237   0.42077   0.00000  Uiso   1.00
C24    C     0.00361   0.11205   0.32058   0.00000  Uiso   1.00
C25    C     0.21942   0.00730   0.20615   0.00000  Uiso   1.00
C26    C     0.17281   0.20314   0.09498   0.00000  Uiso   1.00
C27    C     0.23656   0.07439   0.10249   0.00000  Uiso   1.00
C28    C     0.04988   0.24762   0.48470   0.00000  Uiso   1.00
C29    C     0.03191   0.27129   0.45978   0.00000  Uiso   1.00
C30    C     0.15864   0.08049   0.42949   0.00000  Uiso   1.00
C31    C     0.11027   0.06867   0.43648   0.00000  Uiso   1.00
C32    C     0.13525   0.17066   0.46156   0.00000  Uiso   1.00
C33    C     0.10365   0.19717   0.48278   0.00000  Uiso   1.00
C34    C     0.15191   0.14559   0.48216   0.00000  Uiso   1.00
C35    C     0.14781   0.15765   0.02296   0.00000  Uiso   1.00
C36    C     0.11481   0.18208   0.04387   0.00000  Uiso   1.00
C37    C     0.09234   0.20049   0.02425   0.00000  Uiso   1.00
H38    H     0.06729   0.21866   0.04214   0.00000  Uiso   1.00
H39    H     0.02197   0.13748   0.33541   0.00000  Uiso   1.00
H40    H     0.31372   0.09416   0.34371   0.00000  Uiso   1.00
H41    H     0.29013   0.15034   0.31843   0.00000  Uiso   1.00
H42    H     0.29392   0.10335   0.28394   0.00000  Uiso   1.00
H43    H     0.26555   0.05531   0.19076   0.00000  Uiso   1.00
H44    H     0.14764   0.24465   0.14043   0.00000  Uiso   1.00
H45    H     0.25977   0.02035   0.10267   0.00000  Uiso   1.00
H46    H     0.05780   0.29262   0.44210   0.00000  Uiso   1.00
H47    H     0.01610   0.24909   0.44006   0.00000  Uiso   1.00
H48    H     0.00746   0.29049   0.47965   0.00000  Uiso   1.00
H49    H     0.23051   0.05817   0.02844   0.00000  Uiso   1.00
H50    H     0.02253   0.22788   0.00268   0.00000  Uiso   1.00
H51    H     0.06321   0.27132   0.00513   0.00000  Uiso   1.00
H52    H     0.09669   0.05359   0.46436   0.00000  Uiso   1.00
H53    H     0.09378   0.09651   0.43815   0.00000  Uiso   1.00
H54    H     0.10393   0.04626   0.41162   0.00000  Uiso   1.00
H55    H     0.17236   0.09447   0.40133   0.00000  Uiso   1.00
H56    H     0.17306   0.05064   0.42405   0.00000  Uiso   1.00
H57    H     0.01577   0.19249   0.21668   0.00000  Uiso   1.00
H58    H     0.12598   0.33175   0.28388   0.00000  Uiso   1.00
H59    H     0.20506   0.06031   0.47306   0.00000  Uiso   1.00
H60    H     0.08409   0.23192   0.40366   0.00000  Uiso   1.00
H61    H     0.18113   0.15928   0.40520   0.00000  Uiso   1.00
H62    H     0.10449   0.18562   0.07579   0.00000  Uiso   1.00
H63    H     0.02580   0.09049   0.30094   0.00000  Uiso   1.00
O64    O     0.16667   0.16667   0.25000   0.00000  Uiso   1.00
O65    O     0.15693   0.12393   0.16625   0.00000  Uiso   1.00
O66    O     0.12687   0.20646   0.33749   0.00000  Uiso   1.00
O67    O     0.21088   0.17493   0.15877   0.00000  Uiso   1.00
O68    O     0.17198   0.16135   0.33749   0.00000  Uiso   1.00
O69    O     0.23258   0.32019   0.17443   0.00000  Uiso   1.00
O70    O     0.24013   0.04716   0.21360   0.00000  Uiso   1.00
O71    O     0.18786   0.23055   0.07285   0.00000  Uiso   1.00
O72    O     0.14945   0.21353   0.13399   0.00000  Uiso   1.00
O73    O     0.24811   0.09001   0.13171   0.00000  Uiso   1.00
O74    O     0.24438   0.03347   0.08714   0.00000  Uiso   1.00
O75    O     0.17849   0.08101   0.27820   0.00000  Uiso   1.00
O76    O     0.14581   0.26136   0.26767   0.00000  Uiso   1.00
O77    O     0.07452   0.13251   0.23607   0.00000  Uiso   1.00
O78    O     0.26785   0.19179   0.21806   0.00000  Uiso   1.00
O79    O     0.06990   0.18960   0.27820   0.00000  Uiso   1.00
O80    O     0.25440   0.15277   0.26768   0.00000  Uiso   1.00
O81    O     0.13800   0.06903   0.23607   0.00000  Uiso   1.00
O82    O     0.20437   0.25527   0.21805   0.00000  Uiso   1.00
Zn83   Zn    0.19244   0.14090   0.28277   0.00000  Uiso   1.00
Zn84   Zn    0.13459   0.12378   0.22257   0.00000  Uiso   1.00
Zn85   Zn    0.21166   0.19664   0.21188   0.00000  Uiso   1.00
Zn86   Zn    0.12798   0.20535   0.28277   0.00000  Uiso   1.00
C87    C     0.38633   0.16038   0.25796   0.00000  Uiso   1.00
C88    C     0.50289   0.10746   0.46497   0.00000  Uiso   1.00
C89    C     0.52463   0.08908   0.48580   0.00000  Uiso   1.00
C90    C     0.61426   0.17326   0.24155   0.00000  Uiso   1.00
C91    C     0.52728   0.10581   0.02357   0.00000  Uiso   1.00
C92    C     0.50683   0.14139   0.04236   0.00000  Uiso   1.00
C93    C     0.54851   0.08552   0.04334   0.00000  Uiso   1.00
C94    C     0.54870   0.09887   0.08247   0.00000  Uiso   1.00
C95    C     0.51249   0.15881   0.07992   0.00000  Uiso   1.00
C96    C     0.65966   0.17491   0.23930   0.00000  Uiso   1.00
C97    C     0.34074   0.15579   0.26383   0.00000  Uiso   1.00
C98    C     0.43209   0.21629   0.42047   0.00000  Uiso   1.00
C99    C     0.51542   0.32240   0.23701   0.00000  Uiso   1.00
C100   C     0.48624   0.01216   0.26168   0.00000  Uiso   1.00
C101   C     0.48867   0.05623   0.25954   0.00000  Uiso   1.00
C102   C     0.51022   0.27764   0.24093   0.00000  Uiso   1.00
C103   C     0.52139   0.14523   0.14397   0.00000  Uiso   1.00
C104   C     0.47873   0.18761   0.35628   0.00000  Uiso   1.00
C105   C     0.46575   0.19292   0.39985   0.00000  Uiso   1.00
C106   C     0.52967   0.13535   0.10111   0.00000  Uiso   1.00
C107   C     0.41798   0.21994   0.46207   0.00000  Uiso   1.00
C108   C     0.64587   0.13017   0.29694   0.00000  Uiso   1.00
C109   C     0.48515   0.17237   0.42077   0.00000  Uiso   1.00
C110   C     0.33694   0.11205   0.32058   0.00000  Uiso   1.00
C111   C     0.55275   0.00730   0.20615   0.00000  Uiso   1.00
C112   C     0.50614   0.20314   0.09498   0.00000  Uiso   1.00
C113   C     0.56990   0.07439   0.10249   0.00000  Uiso   1.00
C114   C     0.38321   0.24762   0.48470   0.00000  Uiso   1.00
C115   C     0.36524   0.27129   0.45978   0.00000  Uiso   1.00
C116   C     0.49198   0.08049   0.42949   0.00000  Uiso   1.00
C117   C     0.44360   0.06867   0.43648   0.00000  Uiso   1.00
C118   C     0.46858   0.17066   0.46156   0.00000  Uiso   1.00
C119   C     0.43699   0.19717   0.48278   0.00000  Uiso   1.00
C120   C     0.48525   0.14559   0.48216   0.00000  Uiso   1.00
C121   C     0.48114   0.15765   0.02296   0.00000  Uiso   1.00
C122   C     0.44815   0.18208   0.04387   0.00000  Uiso   1.00
C123   C     0.42567   0.20049   0.02425   0.00000  Uiso   1.00
H124   H     0.40062   0.21866   0.04214   0.00000  Uiso   1.00
H125   H     0.35531   0.13748   0.33541   0.00000  Uiso   1.00
H126   H     0.64705   0.09416   0.34371   0.00000  Uiso   1.00
H127   H     0.62347   0.15034   0.31843   0.00000  Uiso   1.00
H128   H     0.62725   0.10335   0.28394   0.00000  Uiso   1.00
H129   H     0.59888   0.05531   0.19076   0.00000  Uiso   1.00
H130   H     0.48098   0.24465   0.14043   0.00000  Uiso   1.00
H131   H     0.59310   0.02035   0.10267   0.00000  Uiso   1.00
H132   H     0.39113   0.29262   0.44210   0.00000  Uiso   1.00
H133   H     0.34943   0.24909   0.44006   0.00000  Uiso   1.00
H134   H     0.34079   0.29049   0.47965   0.00000  Uiso   1.00
H135   H     0.56385   0.05817   0.02844   0.00000  Uiso   1.00
H136   H     0.35587   0.22788   0.00268   0.00000  Uiso   1.00
H137   H     0.39655   0.27132   0.00513   0.00000  Uiso   1.00
H138   H     0.43002   0.05359   0.46436   0.00000  Uiso   1.00
H139   H     0.42712   0.09651   0.43815   0.00000  Uiso   1.00
H140   H     0.43726   0.04626   0.41162   0.00000  Uiso   1.00
H141   H     0.50569   0.09447   0.40133   0.00000  Uiso   1.00
H142   H     0.50639   0.05064   0.42405   0.00000  Uiso   1.00
H143   H     0.34910   0.19249   0.21668   0.00000  Uiso   1.00
H144   H     0.45931   0.33175   0.28388   0.00000  Uiso   1.00
H145   H     0.53839   0.06031   0.47306   0.00000  Uiso   1.00
H146   H     0.41743   0.23192   0.40366   0.00000  Uiso   1.00
H147   H     0.51446   0.15928   0.40520   0.00000  Uiso   1.00
H148   H     0.43782   0.18562   0.07579   0.00000  Uiso   1.00
H149   H     0.35913   0.09049   0.30094   0.00000  Uiso   1.00
O150   O     0.50000   0.16667   0.25000   0.00000  Uiso   1.00
O151   O     0.49027   0.12393   0.16625   0.00000  Uiso   1.00
O152   O     0.46020   0.20646   0.33749   0.00000  Uiso   1.00
O153   O     0.54421   0.17493   0.15877   0.00000  Uiso   1.00
O154   O     0.50532   0.16135   0.33749   0.00000  Uiso   1.00
O155   O     0.56591   0.32019   0.17443   0.00000  Uiso   1.00
O156   O     0.57346   0.04716   0.21360   0.00000  Uiso   1.00
O157   O     0.52119   0.23055   0.07285   0.00000  Uiso   1.00
O158   O     0.48279   0.21353   0.13399   0.00000  Uiso   1.00
O159   O     0.58144   0.09001   0.13171   0.00000  Uiso   1.00
O160   O     0.57772   0.03347   0.08714   0.00000  Uiso   1.00
O161   O     0.51182   0.08101   0.27820   0.00000  Uiso   1.00
O162   O     0.47914   0.26136   0.26767   0.00000  Uiso   1.00
O163   O     0.40785   0.13251   0.23607   0.00000  Uiso   1.00
O164   O     0.60119   0.19179   0.21806   0.00000  Uiso   1.00
O165   O     0.40323   0.18960   0.27820   0.00000  Uiso   1.00
O166   O     0.58773   0.15277   0.26768   0.00000  Uiso   1.00
O167   O     0.47133   0.06903   0.23607   0.00000  Uiso   1.00
O168   O     0.53771   0.25527   0.21805   0.00000  Uiso   1.00
Zn169  Zn    0.52577   0.14090   0.28277   0.00000  Uiso   1.00
Zn170  Zn    0.46792   0.12378   0.22257   0.00000  Uiso   1.00
Zn171  Zn    0.54500   0.19664   0.21188   0.00000  Uiso   1.00
Zn172  Zn    0.46131   0.20535   0.28277   0.00000  Uiso   1.00
C173   C     0.71967   0.16038   0.25796   0.00000  Uiso   1.00
C174   C     0.83623   0.10746   0.46497   0.00000  Uiso   1.00
C175   C     0.85797   0.08908   0.48580   0.00000  Uiso   1.00
C176   C     0.94759   0.17326   0.24155   0.00000  Uiso   1.00
C177   C     0.86062   0.10581   0.02357   0.00000  Uiso   1.00
C178   C     0.84016   0.14139   0.04236   0.00000  Uiso   1.00
C179   C     0.88184   0.08552   0.04334   0.00000  Uiso   1.00
C180   C     0.88203   0.09887   0.08247   0.00000  Uiso   1.00
C181   C     0.84582   0.15881   0.07992   0.00000  Uiso   1.00
C182   C     0.99299   0.17491   0.23930   0.00000  Uiso   1.00
C183   C     0.67408   0.15579   0.26383   0.00000  Uiso   1.00
C184   C     0.76542   0.21629   0.42047   0.00000  Uiso   1.00
C185   C     0.84875   0.32240   0.23701   0.00000  Uiso   1.00
C186   C     0.81957   0.01216   0.26168   0.00000  Uiso   1.00
C187   C     0.82200   0.05623   0.25954   0.00000  Uiso   1.00
C188   C     0.84356   0.27764   0.24093   0.00000  Uiso   1.00
C189   C     0.85473   0.14523   0.14397   0.00000  Uiso   1.00
C190   C     0.81206   0.18761   0.35628   0.00000  Uiso   1.00
C191   C     0.79909   0.19292   0.39985   0.00000  Uiso   1.00
C192   C     0.86300   0.13535   0.10111   0.00000  Uiso   1.00
C193   C     0.75131   0.21994   0.46207   0.00000  Uiso   1.00
C194   C     0.97920   0.13017   0.29694   0.00000  Uiso   1.00
C195   C     0.81849   0.17237   0.42077   0.00000  Uiso   1.00
C196   C     0.67027   0.11205   0.32058   0.00000  Uiso   1.00
C197   C     0.88608   0.00730   0.20615   0.00000  Uiso   1.00
C198   C     0.83947   0.20314   0.09498   0.00000  Uiso   1.00
C199   C     0.90323   0.07439   0.10249   0.00000  Uiso   1.00
C200   C     0.71655   0.24762   0.48470   0.00000  Uiso   1.00
C201   C     0.69858   0.27129   0.45978   0.00000  Uiso   1.00
C202   C     0.82531   0.08049   0.42949   0.00000  Uiso   1.00
C203   C     0.77694   0.06867   0.43648   0.00000  Uiso   1.00
C204   C     0.80192   0.17066   0.46156   0.00000  Uiso   1.00
C205   C     0.77032   0.19717   0.48278   0.00000  Uiso   1.00
C206   C     0.81858   0.14559   0.48216   0.00000  Uiso   1.00
C207   C     0.81448   0.15765   0.02296   0.00000  Uiso   1.00
C208   C     0.78148   0.18208   0.04387   0.00000  Uiso   1.00
C209   C     0.75901   0.20049   0.02425   0.00000  Uiso   1.00
H210   H     0.73396   0.21866   0.04214   0.00000  Uiso   1.00
H211   H     0.68864   0.13748   0.33541   0.00000  Uiso   1.00
H212   H     0.98039   0.09416   0.34371   0.00000  Uiso   1.00
H213   H     0.95680   0.15034   0.31843   0.00000  Uiso   1.00
H214   H     0.96059   0.10335   0.28394   0.00000  Uiso   1.00
H215   H     0.93221   0.05531   0.19076   0.00000  Uiso   1.00
H216   H     0.81431   0.24465   0.14043   0.00000  Uiso   1.00
H217   H     0.92643   0.02035   0.10267   0.00000  Uiso   1.00
H218   H     0.72447   0.29262   0.44210   0.00000  Uiso   1.00
H219   H     0.68276   0.24909   0.44006   0.00000  Uiso   1.00
H220   H     0.67413   0.29049   0.47965   0.00000  Uiso   1.00
H221   H     0.89718   0.05817   0.02844   0.00000  Uiso   1.00
H222   H     0.68920   0.22788   0.00268   0.00000  Uiso   1.00
H223   H     0.72988   0.27132   0.00513   0.00000  Uiso   1.00
H224   H     0.76335   0.05359   0.46436   0.00000  Uiso   1.00
H225   H     0.76045   0.09651   0.43815   0.00000  Uiso   1.00
H226   H     0.77060   0.04626   0.41162   0.00000  Uiso   1.00
H227   H     0.83902   0.09447   0.40133   0.00000  Uiso   1.00
H228   H     0.83973   0.05064   0.42405   0.00000  Uiso   1.00
H229   H     0.68244   0.19249   0.21668   0.00000  Uiso   1.00
H230   H     0.79265   0.33175   0.28388   0.00000  Uiso   1.00
H231   H     0.87173   0.06031   0.47306   0.00000  Uiso   1.00
H232   H     0.75076   0.23192   0.40366   0.00000  Uiso   1.00
H233   H     0.84779   0.15928   0.40520   0.00000  Uiso   1.00
H234   H     0.77115   0.18562   0.07579   0.00000  Uiso   1.00
H235   H     0.69246   0.09049   0.30094   0.00000  Uiso   1.00
O236   O     0.83333   0.16667   0.25000   0.00000  Uiso   1.00
O237   O     0.82360   0.12393   0.16625   0.00000  Uiso   1.00
O238   O     0.79354   0.20646   0.33749   0.00000  Uiso   1.00
O239   O     0.87755   0.17493   0.15877   0.00000  Uiso   1.00
O240   O     0.83865   0.16135   0.33749   0.00000  Uiso   1.00
O241   O     0.89925   0.32019   0.17443   0.00000  Uiso   1.00
O242   O     0.90679   0.04716   0.21360   0.00000  Uiso   1.00
O243   O     0.85452   0.23055   0.07285   0.00000  Uiso   1.00
O244   O     0.81612   0.21353   0.13399   0.00000  Uiso   1.00
O245   O     0.91477   0.09001   0.13171   0.00000  Uiso   1.00
O246   O     0.91105   0.03347   0.08714   0.00000  Uiso   1.00
O247   O     0.84515   0.08101   0.27820   0.00000  Uiso   1.00
O248   O     0.81247   0.26136   0.26767   0.00000  Uiso   1.00
O249   O     0.74119   0.13251   0.23607   0.00000  Uiso   1.00
O250   O     0.93452   0.19179   0.21806   0.00000  Uiso   1.00
O251   O     0.73656   0.18960   0.27820   0.00000  Uiso   1.00
O252   O     0.92106   0.15277   0.26768   0.00000  Uiso   1.00
O253   O     0.80467   0.06903   0.23607   0.00000  Uiso   1.00
O254   O     0.87104   0.25527   0.21805   0.00000  Uiso   1.00
Zn255  Zn    0.85910   0.14090   0.28277   0.00000  Uiso   1.00
Zn256  Zn    0.80125   0.12378   0.22257   0.00000  Uiso   1.00
Zn257  Zn    0.87833   0.19664   0.21188   0.00000  Uiso   1.00
Zn258  Zn    0.79465   0.20535   0.28277   0.00000  Uiso   1.00
C259   C     0.05300   0.49371   0.25796   0.00000  Uiso   1.00
C260   C     0.16956   0.44080   0.46497   0.00000  Uiso   1.00
C261   C     0.19130   0.42242   0.48580   0.00000  Uiso   1.00
C262   C     0.28093   0.50659   0.24155   0.00000  Uiso   1.00
C263   C     0.19395   0.43914   0.02357   0.00000  Uiso   1.00
C264   C     0.17350   0.47473   0.04236   0.00000  Uiso   1.00
C265   C     0.21517   0.41886   0.04334   0.00000  Uiso   1.00
C266   C     0.21536   0.43221   0.08247   0.00000  Uiso   1.00
C267   C     0.17915   0.49214   0.07992   0.00000  Uiso   1.00
C268   C     0.32632   0.50825   0.23930   0.00000  Uiso   1.00
C269   C     0.00741   0.48912   0.26383   0.00000  Uiso   1.00
C270   C     0.09876   0.54962   0.42047   0.00000  Uiso   1.00
C271   C     0.18208   0.65573   0.23701   0.00000  Uiso   1.00
C272   C     0.15291   0.34549   0.26168   0.00000  Uiso   1.00
C273   C     0.15534   0.38956   0.25954   0.00000  Uiso   1.00
C274   C     0.17689   0.61098   0.24093   0.00000  Uiso   1.00
C275   C     0.18806   0.47856   0.14397   0.00000  Uiso   1.00
C276   C     0.14540   0.52094   0.35628   0.00000  Uiso   1.00
C277   C     0.13242   0.52626   0.39985   0.00000  Uiso   1.00
C278   C     0.19633   0.46869   0.10111   0.00000  Uiso   1.00
C279   C     0.08465   0.55328   0.46207   0.00000  Uiso   1.00
C280   C     0.31253   0.46350   0.29694   0.00000  Uiso   1.00
C281   C     0.15182   0.50571   0.42077   0.00000  Uiso   1.00
C282   C     0.00361   0.44539   0.32058   0.00000  Uiso   1.00
C283   C     0.21942   0.34063   0.20615   0.00000  Uiso   1.00
C284   C     0.17281   0.53648   0.09498   0.00000  Uiso   1.00
C285   C     0.23656   0.40773   0.10249   0.00000  Uiso   1.00
C286   C     0.04988   0.58096   0.48470   0.00000  Uiso   1.00
C287   C     0.03191   0.60462   0.45978   0.00000  Uiso   1.00
C288   C     0.15864   0.41382   0.42949   0.00000  Uiso   1.00
C289   C     0.11027   0.40200   0.43648   0.00000  Uiso   1.00
C290   C     0.13525   0.50399   0.46156   0.00000  Uiso   1.00
C291   C     0.10365   0.53051   0.48278   0.00000  Uiso   1.00
C292   C     0.15191   0.47892   0.48216   0.00000  Uiso   1.00
C293   C     0.14781   0.49098   0.02296   0.00000  Uiso   1.00
C294   C     0.11481   0.51541   0.04387   0.00000  Uiso   1.00
C295   C     0.09234   0.53383   0.02425   0.00000  Uiso   1.00
H296   H     0.06729   0.55199   0.04214   0.00000  Uiso   1.00
H297   H     0.02197   0.47082   0.33541   0.00000  Uiso   1.00
H298   H     0.31372   0.42749   0.34371   0.00000  Uiso   1.00
H299   H     0.29013   0.48367   0.31843   0.00000  Uiso   1.00
H300   H     0.29392   0.43668   0.28394   0.00000  Uiso   1.00
H301   H     0.26555   0.38864   0.19076   0.00000  Uiso   1.00
H302   H     0.14764   0.57799   0.14043   0.00000  Uiso   1.00
H303   H     0.25977   0.35368   0.10267   0.00000  Uiso   1.00
H304   H     0.05780   0.62596   0.44210   0.00000  Uiso   1.00
H305   H     0.01610   0.58242   0.44006   0.00000  Uiso   1.00
H306   H     0.00746   0.62382   0.47965   0.00000  Uiso   1.00
H307   H     0.23051   0.39150   0.02844   0.00000  Uiso   1.00
H308   H     0.02253   0.56121   0.00268   0.00000  Uiso   1.00
H309   H     0.06321   0.60466   0.00513   0.00000  Uiso   1.00
H310   H     0.09669   0.38692   0.46436   0.00000  Uiso   1.00
H311   H     0.09378   0.42984   0.43815   0.00000  Uiso   1.00
H312   H     0.10393   0.37959   0.41162   0.00000  Uiso   1.00
H313   H     0.17236   0.42781   0.40133   0.00000  Uiso   1.00
H314   H     0.17306   0.38398   0.42405   0.00000  Uiso   1.00
H315   H     0.01577   0.52582   0.21668   0.00000  Uiso   1.00
H316   H     0.12598   0.66508   0.28388   0.00000  Uiso   1.00
H317   H     0.20506   0.39364   0.47306   0.00000  Uiso   1.00
H318   H     0.08409   0.56525   0.40366   0.00000  Uiso   1.00
H319   H     0.18113   0.49261   0.40520   0.00000  Uiso   1.00
H320   H     0.10449   0.51895   0.07579   0.00000  Uiso   1.00
H321   H     0.02580   0.42382   0.30094   0.00000  Uiso   1.00
O322   O     0.16667   0.50000   0.25000   0.00000  Uiso   1.00
O323   O     0.15693   0.45726   0.16625   0.00000  Uiso   1.00
O324   O     0.12687   0.53979   0.33749   0.00000  Uiso   1.00
O325   O     0.21088   0.50826   0.15877   0.00000  Uiso   1.00
O326   O     0.17198   0.49468   0.33749   0.00000  Uiso   1.00
O327   O     0.23258   0.65353   0.17443   0.00000  Uiso   1.00
O328   O     0.24013   0.38049   0.21360   0.00000  Uiso   1.00
O329   O     0.18786   0.56389   0.07285   0.00000  Uiso   1.00
O330   O     0.14945   0.54686   0.13399   0.00000  Uiso   1.00
O331   O     0.24811   0.42334   0.13171   0.00000  Uiso   1.00
O332   O     0.24438   0.36680   0.08714   0.00000  Uiso   1.00
O333   O     0.17849   0.41434   0.27820   0.00000  Uiso   1.00
O334   O     0.14581   0.59469   0.26767   0.00000  Uiso   1.00
O335   O     0.07452   0.46584   0.23607   0.00000  Uiso   1.00
O336   O     0.26785   0.52512   0.21806   0.00000  Uiso   1.00
O337   O     0.06990   0.52293   0.27820   0.00000  Uiso   1.00
O338   O     0.25440   0.48610   0.26768   0.00000  Uiso   1.00
O339   O     0.13800   0.40236   0.23607   0.00000  Uiso   1.00
O340   O     0.20437   0.58860   0.21805   0.00000  Uiso   1.00
Zn341  Zn    0.19244   0.47423   0.28277   0.00000  Uiso   1.00
Zn342  Zn    0.13459   0.45711   0.22257   0.00000  Uiso   1.00
Zn343  Zn    0.21166   0.52997   0.21188   0.00000  Uiso   1.00
Zn344  Zn    0.12798   0.53868   0.28277   0.00000  Uiso   1.00
C345   C     0.38633   0.49371   0.25796   0.00000  Uiso   1.00
C346   C     0.50289   0.44080   0.46497   0.00000  Uiso   1.00
C347   C     0.52463   0.42242   0.48580   0.00000  Uiso   1.00
C348   C     0.61426   0.50659   0.24155   0.00000  Uiso   1.00
C349   C     0.52728   0.43914   0.02357   0.00000  Uiso   1.00
C350   C     0.50683   0.47473   0.04236   0.00000  Uiso   1.00
C351   C     0.54851   0.41886   0.04334   0.00000  Uiso   1.00
C352   C     0.54870   0.43221   0.08247   0.00000  Uiso   1.00
C353   C     0.51249   0.49214   0.07992   0.00000  Uiso   1.00
C354   C     0.65966   0.50825   0.23930   0.00000  Uiso   1.00
C355   C     0.34074   0.48912   0.26383   0.00000  Uiso   1.00
C356   C     0.43209   0.54962   0.42047   0.00000  Uiso   1.00
C357   C     0.51542   0.65573   0.23701   0.00000  Uiso   1.00
C358   C     0.48624   0.34549   0.26168   0.00000  Uiso   1.00
C359   C     0.48867   0.38956   0.25954   0.00000  Uiso   1.00
C360   C     0.51022   0.61098   0.24093   0.00000  Uiso   1.00
C361   C     0.52139   0.47856   0.14397   0.00000  Uiso   1.00
C362   C     0.47873   0.52094   0.35628   0.00000  Uiso   1.00
C363   C     0.46575   0.52626   0.39985   0.00000  Uiso   1.00
C364   C     0.52967   0.46869   0.10111   0.00000  Uiso   1.00
C365   C     0.41798   0.55328   0.46207   0.00000  Uiso   1.00
C366   C     0.64587   0.46350   0.29694   0.00000  Uiso   1.00
C367   C     0.48515   0.50571   0.42077   0.00000  Uiso   1.00
C368   C     0.33694   0.44539   0.32058   0.00000  Uiso   1.00
C369   C     0.55275   0.34063   0.20615   0.00000  Uiso   1.00
C370   C     0.50614   0.53648   0.09498   0.00000  Uiso   1.00
C371   C     0.56990   0.40773   0.10249   0.00000  Uiso   1.00
C372   C     0.38321   0.58096   0.48470   0.00000  Uiso   1.00
C373   C     0.36524   0.60462   0.45978   0.00000  Uiso   1.00
C374   C     0.49198   0.41382   0.42949   0.00000  Uiso   1.00
C375   C     0.44360   0.40200   0.43648   0.00000  Uiso   1.00
C376   C     0.46858   0.50399   0.46156   0.00000  Uiso   1.00
C377   C     0.43699   0.53051   0.48278   0.00000  Uiso   1.00
C378   C     0.48525   0.47892   0.48216   0.00000  Uiso   1.00
C379   C     0.48114   0.49098   0.02296   0.00000  Uiso   1.00
C380   C     0.44815   0.51541   0.04387   0.00000  Uiso   1.00
C381   C     0.42567   0.53383   0.02425   0.00000  Uiso   1.00
H382   H     0.40062   0.55199   0.04214   0.00000  Uiso   1.00
H383   H     0.35531   0.47082   0.33541   0.00000  Uiso   1.00
H384   H     0.64705   0.42749   0.34371   0.00000  Uiso   1.00
H385   H     0.62347   0.48367   0.31843   0.00000  Uiso   1.00
H386   H     0.62725   0.43668   0.28394   0.00000  Uiso   1.00
H387   H     0.59888   0.38864   0.19076   0.00000  Uiso   1.00
H388   H     0.48098   0.57799   0.14043   0.00000  Uiso   1.00
H389   H     0.59310   0.35368   0.10267   0.00000  Uiso   1.00
H390   H     0.39113   0.62596   0.44210   0.00000  Uiso   1.00
H391   H     0.34943   0.58242   0.44006   0.00000  Uiso   1.00
H392   H     0.34079   0.62382   0.47965   0.00000  Uiso   1.00
H393   H     0.56385   0.39150   0.02844   0.00000  Uiso   1.00
H394   H     0.35587   0.56121   0.00268   0.00000  Uiso   1.00
H395   H     0.39655   0.60466   0.00513   0.00000  Uiso   1.00
H396   H     0.43002   0.38692   0.46436   0.00000  Uiso   1.00
H397   H     0.42712   0.42984   0.43815   0.00000  Uiso   1.00
H398   H     0.43726   0.37959   0.41162   0.00000  Uiso   1.00
H399   H     0.50569   0.42781   0.40133   0.00000  Uiso   1.00
H400   H     0.50639   0.38398   0.42405   0.00000  Uiso   1.00
H401   H     0.34910   0.52582   0.21668   0.00000  Uiso   1.00
H402   H     0.45931   0.66508   0.28388   0.00000  Uiso   1.00
H403   H     0.53839   0.39364   0.47306   0.00000  Uiso   1.00
H404   H     0.41743   0.56525   0.40366   0.00000  Uiso   1.00
H405   H     0.51446   0.49261   0.40520   0.00000  Uiso   1.00
H406   H     0.43782   0.51895   0.07579   0.00000  Uiso   1.00
H407   H     0.35913   0.42382   0.30094   0.00000  Uiso   1.00
O408   O     0.50000   0.50000   0.25000   0.00000  Uiso   1.00
O409   O     0.49027   0.45726   0.16625   0.00000  Uiso   1.00
O410   O     0.46020   0.53979   0.33749   0.00000  Uiso   1.00
O411   O     0.54421   0.50826   0.15877   0.00000  Uiso   1.00
O412   O     0.50532   0.49468   0.33749   0.00000  Uiso   1.00
O413   O     0.56591   0.65353   0.17443   0.00000  Uiso   1.00
O414   O     0.57346   0.38049   0.21360   0.00000  Uiso   1.00
O415   O     0.52119   0.56389   0.07285   0.00000  Uiso   1.00
O416   O     0.48279   0.54686   0.13399   0.00000  Uiso   1.00
O417   O     0.58144   0.42334   0.13171   0.00000  Uiso   1.00
O418   O     0.57772   0.36680   0.08714   0.00000  Uiso   1.00
O419   O     0.51182   0.41434   0.27820   0.00000  Uiso   1.00
O420   O     0.47914   0.59469   0.26767   0.00000  Uiso   1.00
O421   O     0.40785   0.46584   0.23607   0.00000  Uiso   1.00
O422   O     0.60119   0.52512   0.21806   0.00000  Uiso   1.00
O423   O     0.40323   0.52293   0.27820   0.00000  Uiso   1.00
O424   O     0.58773   0.48610   0.26768   0.00000  Uiso   1.00
O425   O     0.47133   0.40236   0.23607   0.00000  Uiso   1.00
O426   O     0.53771   0.58860   0.21805   0.00000  Uiso   1.00
Zn427  Zn    0.52577   0.47423   0.28277   0.00000  Uiso   1.00
Zn428  Zn    0.46792   0.45711   0.22257   0.00000  Uiso   1.00
Zn429  Zn    0.54500   0.52997   0.21188   0.00000  Uiso   1.00
Zn430  Zn    0.46131   0.53868   0.28277   0.00000  Uiso   1.00
C431   C     0.71967   0.49371   0.25796   0.00000  Uiso   1.00
C432   C     0.83623   0.44080   0.46497   0.00000  Uiso   1.00
C433   C     0.85797   0.42242   0.48580   0.00000  Uiso   1.00
C434   C     0.94759   0.50659   0.24155   0.00000  Uiso   1.00
C435   C     0.86062   0.43914   0.02357   0.00000  Uiso   1.00
C436   C     0.84016   0.47473   0.04236   0.00000  Uiso   1.00
C437   C     0.88184   0.41886   0.04334   0.00000  Uiso   1.00
C438   C     0.88203   0.43221   0.08247   0.00000  Uiso   1.00
C439   C     0.84582   0.49214   0.07992   0.00000  Uiso   1.00
C440   C     0.99299   0.50825   0.23930   0.00000  Uiso   1.00
C441   C     0.67408   0.48912   0.26383   0.00000  Uiso   1.00
C442   C     0.76542   0.54962   0.42047   0.00000  Uiso   1.00
C443   C     0.84875   0.65573   0.23701   0.00000  Uiso   1.00
C444   C     0.81957   0.34549   0.26168   0.00000  Uiso   1.00
C445   C     0.82200   0.38956   0.25954   0.00000  Uiso   1.00
C446   C     0.84356   0.61098   0.24093   0.00000  Uiso   1.00
C447   C     0.85473   0.47856   0.14397   0.00000  Uiso   1.00
C448   C     0.81206   0.52094   0.35628   0.00000  Uiso   1.00
C449   C     0.79909   0.52626   0.39985   0.00000  Uiso   1.00
C450   C     0.86300   0.46869   0.10111   0.00000  Uiso   1.00
C451   C     0.75131   0.55328   0.46207   0.00000  Uiso   1.00
C452   C     0.97920   0.46350   0.29694   0.00000  Uiso   1.00
C453   C     0.81849   0.50571   0.42077   0.00000  Uiso   1.00
C454   C     0.67027   0.44539   0.32058   0.00000  Uiso   1.00
C455   C     0.88608   0.34063   0.20615   0.00000  Uiso   1.00
C456   C     0.83947   0.53648   0.09498   0.00000  Uiso   1.00
C457   C     0.90323   0.40773   0.10249   0.00000  Uiso   1.00
C458   C     0.71655   0.58096   0.48470   0.00000  Uiso   1.00
C459   C     0.69858   0.60462   0.45978   0.00000  Uiso   1.00
C460   C     0.82531   0.41382   0.42949   0.00000  Uiso   1.00
C461   C     0.77694   0.40200   0.43648   0.00000  Uiso   1.00
C462   C     0.80192   0.50399   0.46156   0.00000  Uiso   1.00
C463   C     0.77032   0.53051   0.48278   0.00000  Uiso   1.00
C464   C     0.81858   0.47892   0.48216   0.00000  Uiso   1.00
C465   C     0.81448   0.49098   0.02296   0.00000  Uiso   1.00
C466   C     0.78148   0.51541   0.04387   0.00000  Uiso   1.00
C467   C     0.75901   0.53383   0.02425   0.00000  Uiso   1.00
H468   H     0.73396   0.55199   0.04214   0.00000  Uiso   1.00
H469   H     0.68864   0.47082   0.33541   0.00000  Uiso   1.00
H470   H     0.98039   0.42749   0.34371   0.00000  Uiso   1.00
H471   H     0.95680   0.48367   0.31843   0.00000  Uiso   1.00
H472   H     0.96059   0.43668   0.28394   0.00000  Uiso   1.00
H473   H     0.93221   0.38864   0.19076   0.00000  Uiso   1.00
H474   H     0.81431   0.57799   0.14043   0.00000  Uiso   1.00
H475   H     0.92643   0.35368   0.10267   0.00000  Uiso   1.00
H476   H     0.72447   0.62596   0.44210   0.00000  Uiso   1.00
H477   H     0.68276   0.58242   0.44006   0.00000  Uiso   1.00
H478   H     0.67413   0.62382   0.47965   0.00000  Uiso   1.00
H479   H     0.89718   0.39150   0.02844   0.00000  Uiso   1.00
H480   H     0.68920   0.56121   0.00268   0.00000  Uiso   1.00
H481   H     0.72988   0.60466   0.00513   0.00000  Uiso   1.00
H482   H     0.76335   0.38692   0.46436   0.00000  Uiso   1.00
H483   H     0.76045   0.42984   0.43815   0.00000  Uiso   1.00
H484   H     0.77060   0.37959   0.41162   0.00000  Uiso   1.00
H485   H     0.83902   0.42781   0.40133   0.00000  Uiso   1.00
H486   H     0.83973   0.38398   0.42405   0.00000  Uiso   1.00
H487   H     0.68244   0.52582   0.21668   0.00000  Uiso   1.00
H488   H     0.79265   0.66508   0.28388   0.00000  Uiso   1.00
H489   H     0.87173   0.39364   0.47306   0.00000  Uiso   1.00
H490   H     0.75076   0.56525   0.40366   0.00000  Uiso   1.00
H491   H     0.84779   0.49261   0.40520   0.00000  Uiso   1.00
H492   H     0.77115   0.51895   0.07579   0.00000  Uiso   1.00
H493   H     0.69246   0.42382   0.30094   0.00000  Uiso   1.00
O494   O     0.83333   0.50000   0.25000   0.00000  Uiso   1.00
O495   O     0.82360   0.45726   0.16625   0.00000  Uiso   1.00
O496   O     0.79354   0.53979   0.33749   0.00000  Uiso   1.00
O497   O     0.87755   0.50826   0.15877   0.00000  Uiso   1.00
O498   O     0.83865   0.49468   0.33749   0.00000  Uiso   1.00
O499   O     0.89925   0.65353   0.17443   0.00000  Uiso   1.00
O500   O     0.90679   0.38049   0.21360   0.00000  Uiso   1.00
O501   O     0.85452   0.56389   0.07285   0.00000  Uiso   1.00
O502   O     0.81612   0.54686   0.13399   0.00000  Uiso   1.00
O503   O     0.91477   0.42334   0.13171   0.00000  Uiso   1.00
O504   O     0.91105   0.36680   0.08714   0.00000  Uiso   1.00
O505   O     0.84515   0.41434   0.27820   0.00000  Uiso   1.00
O506   O     0.81247   0.59469   0.26767   0.00000  Uiso   1.00
O507   O     0.74119   0.46584   0.23607   0.00000  Uiso   1.00
O508   O     0.93452   0.52512   0.21806   0.00000  Uiso   1.00
O509   O     0.73656   0.52293   0.27820   0.00000  Uiso   1.00
O510   O     0.92106   0.48610   0.26768   0.00000  Uiso   1.00
O511   O     0.80467   0.40236   0.23607   0.00000  Uiso   1.00
O512   O     0.87104   0.58860   0.21805   0.00000  Uiso   1.00
Zn513  Zn    0.85910   0.47423   0.28277   0.00000  Uiso   1.00
Zn514  Zn    0.80125   0.45711   0.22257   0.00000  Uiso   1.00
Zn515  Zn    0.87833   0.52997   0.21188   0.00000  Uiso   1.00
Zn516  Zn    0.79465   0.53868   0.28277   0.00000  Uiso   1.00
C517   C     0.05300   0.82705   0.25796   0.00000  Uiso   1.00
C518   C     0.16956   0.77413   0.46497   0.00000  Uiso   1.00
C519   C     0.19130   0.75575   0.48580   0.00000  Uiso   1.00
C520   C     0.28093   0.83993   0.24155   0.00000  Uiso   1.00
C521   C     0.19395   0.77247   0.02357   0.00000  Uiso   1.00
C522   C     0.17350   0.80806   0.04236   0.00000  Uiso   1.00
C523   C     0.21517   0.75219   0.04334   0.00000  Uiso   1.00
C524   C     0.21536   0.76554   0.08247   0.00000  Uiso   1.00
C525   C     0.17915   0.82548   0.07992   0.00000  Uiso   1.00
C526   C     0.32632   0.84158   0.23930   0.00000  Uiso   1.00
C527   C     0.00741   0.82245   0.26383   0.00000  Uiso   1.00
C528   C     0.09876   0.88295   0.42047   0.00000  Uiso   1.00
C529   C     0.18208   0.98907   0.23701   0.00000  Uiso   1.00
C530   C     0.15291   0.67883   0.26168   0.00000  Uiso   1.00
C531   C     0.15534   0.72290   0.25954   0.00000  Uiso   1.00
C532   C     0.17689   0.94431   0.24093   0.00000  Uiso   1.00
C533   C     0.18806   0.81190   0.14397   0.00000  Uiso   1.00
C534   C     0.14540   0.85427   0.35628   0.00000  Uiso   1.00
C535   C     0.13242   0.85959   0.39985   0.00000  Uiso   1.00
C536   C     0.19633   0.80202   0.10111   0.00000  Uiso   1.00
C537   C     0.08465   0.88661   0.46207   0.00000  Uiso   1.00
C538   C     0.31253   0.79684   0.29694   0.00000  Uiso   1.00
C539   C     0.15182   0.83904   0.42077   0.00000  Uiso   1.00
C540   C     0.00361   0.77872   0.32058   0.00000  Uiso   1.00
C541   C     0.21942   0.67396   0.20615   0.00000  Uiso   1.00
C542   C     0.17281   0.86981   0.09498   0.00000  Uiso   1.00
C543   C     0.23656   0.74106   0.10249   0.00000  Uiso   1.00
C544   C     0.04988   0.91429   0.48470   0.00000  Uiso   1.00
C545   C     0.03191   0.93795   0.45978   0.00000  Uiso   1.00
C546   C     0.15864   0.74715   0.42949   0.00000  Uiso   1.00
C547   C     0.11027   0.73534   0.43648   0.00000  Uiso   1.00
C548   C     0.13525   0.83732   0.46156   0.00000  Uiso   1.00
C549   C     0.10365   0.86384   0.48278   0.00000  Uiso   1.00
C550   C     0.15191   0.81225   0.48216   0.00000  Uiso   1.00
C551   C     0.14781   0.82431   0.02296   0.00000  Uiso   1.00
C552   C     0.11481   0.84874   0.04387   0.00000  Uiso   1.00
C553   C     0.09234   0.86716   0.02425   0.00000  Uiso   1.00
H554   H     0.06729   0.88532   0.04214   0.00000  Uiso   1.00
H555   H     0.02197   0.80415   0.33541   0.00000  Uiso   1.00
H556   H     0.31372   0.76082   0.34371   0.00000  Uiso   1.00
H557   H     0.29013   0.81700   0.31843   0.00000  Uiso   1.00
H558   H     0.29392   0.77001   0.28394   0.00000  Uiso   1.00
H559   H     0.26555   0.72197   0.19076   0.00000  Uiso   1.00
H560   H     0.14764   0.91132   0.14043   0.00000  Uiso   1.00
H561   H     0.25977   0.68702   0.10267   0.00000  Uiso   1.00
H562   H     0.05780   0.95929   0.44210   0.00000  Uiso   1.00
H563   H     0.01610   0.91575   0.44006   0.00000  Uiso   1.00
H564   H     0.00746   0.95715   0.47965   0.00000  Uiso   1.00
H565   H     0.23051   0.72483   0.02844   0.00000  Uiso   1.00
H566   H     0.02253   0.89455   0.00268   0.00000  Uiso   1.00
H567   H     0.06321   0.93799   0.00513   0.00000  Uiso   1.00
H568   H     0.09669   0.72025   0.46436   0.00000  Uiso   1.00
H569   H     0.09378   0.76317   0.43815   0.00000  Uiso   1.00
H570   H     0.10393   0.71292   0.41162   0.00000  Uiso   1.00
H571   H     0.17236   0.76114   0.40133   0.00000  Uiso   1.00
H572   H     0.17306   0.71731   0.42405   0.00000  Uiso   1.00
H573   H     0.01577   0.85915   0.21668   0.00000  Uiso   1.00
H574   H     0.12598   0.99841   0.28388   0.00000  Uiso   1.00
H575   H     0.20506   0.72698   0.47306   0.00000  Uiso   1.00
H576   H     0.08409   0.89859   0.40366   0.00000  Uiso   1.00
H577   H     0.18113   0.82595   0.40520   0.00000  Uiso   1.00
H578   H     0.10449   0.85228   0.07579   0.00000  Uiso   1.00
H579   H     0.02580   0.75715   0.30094   0.00000  Uiso   1.00
O580   O     0.16667   0.83333   0.25000   0.00000  Uiso   1.00
O581   O     0.15693   0.79060   0.16625   0.00000  Uiso   1.00
O582   O     0.12687   0.87313   0.33749   0.00000  Uiso   1.00
O583   O     0.21088   0.84159   0.15877   0.00000  Uiso   1.00
O584   O     0.17198   0.82802   0.33749   0.00000  Uiso   1.00
O585   O     0.23258   0.98686   0.17443   0.00000  Uiso   1.00
O586   O     0.24013   0.71383   0.21360   0.00000  Uiso   1.00
O587   O     0.18786   0.89722   0.07285   0.00000  Uiso   1.00
O588   O     0.14945   0.88020   0.13399   0.00000  Uiso   1.00
O589   O     0.24811   0.75667   0.13171   0.00000  Uiso   1.00
O590   O     0.24438   0.70013   0.08714   0.00000  Uiso   1.00
O591   O     0.17849   0.74768   0.27820   0.00000  Uiso   1.00
O592   O     0.14581   0.92803   0.26767   0.00000  Uiso   1.00
O593   O     0.07452   0.79917   0.23607   0.00000  Uiso   1.00
O594   O     0.26785   0.85845   0.21806   0.00000  Uiso   1.00
O595   O     0.06990   0.85627   0.27820   0.00000  Uiso   1.00
O596   O     0.25440   0.81944   0.26768   0.00000  Uiso   1.00
O597   O     0.13800   0.73570   0.23607   0.00000  Uiso   1.00
O598   O     0.20437   0.92193   0.21805   0.00000  Uiso   1.00
Zn599  Zn    0.19244   0.80756   0.28277   0.00000  Uiso   1.00
Zn600  Zn    0.13459   0.79044   0.22257   0.00000  Uiso   1.00
Zn601  Zn    0.21166   0.86331   0.21188   0.00000  Uiso   1.00
Zn602  Zn    0.12798   0.87202   0.28277   0.00000  Uiso   1.00
C603   C     0.38633   0.82705   0.25796   0.00000  Uiso   1.00
C604   C     0.50289   0.77413   0.46497   0.00000  Uiso   1.00
C605   C     0.52463   0.75575   0.48580   0.00000  Uiso   1.00
C606   C     0.61426   0.83993   0.24155   0.00000  Uiso   1.00
C607   C     0.52728   0.77247   0.02357   0.00000  Uiso   1.00
C608   C     0.50683   0.80806   0.04236   0.00000  Uiso   1.00
C609   C     0.54851   0.75219   0.04334   0.00000  Uiso   1.00
C610   C     0.54870   0.76554   0.08247   0.00000  Uiso   1.00
C611   C     0.51249   0.82548   0.07992   0.00000  Uiso   1.00
C612   C     0.65966   0.84158   0.23930   0.00000  Uiso   1.00
C613   C     0.34074   0.82245   0.26383   0.00000  Uiso   1.00
C614   C     0.43209   0.88295   0.42047   0.00000  Uiso   1.00
C615   C     0.51542   0.98907   0.23701   0.00000  Uiso   1.00
C616   C     0.48624   0.67883   0.26168   0.00000  Uiso   1.00
C617   C     0.48867   0.72290   0.25954   0.00000  Uiso   1.00
C618   C     0.51022   0.94431   0.24093   0.00000  Uiso   1.00
C619   C     0.52139   0.81190   0.14397   0.00000  Uiso   1.00
C620   C     0.47873   0.85427   0.35628   0.00000  Uiso   1.00
C621   C     0.46575   0.85959   0.39985   0.00000  Uiso   1.00
C622   C     0.52967   0.80202   0.10111   0.00000  Uiso   1.00
C623   C     0.41798   0.88661   0.46207   0.00000  Uiso   1.00
C624   C     0.64587   0.79684   0.29694   0.00000  Uiso   1.00
C625   C     0.48515   0.83904   0.42077   0.00000  Uiso   1.00
C626   C     0.33694   0.77872   0.32058   0.00000  Uiso   1.00
C627   C     0.55275   0.67396   0.20615   0.00000  Uiso   1.00
C628   C     0.50614   0.86981   0.09498   0.00000  Uiso   1.00
C629   C     0.56990   0.74106   0.10249   0.00000  Uiso   1.00
C630   C     0.38321   0.91429   0.48470   0.00000  Uiso   1.00
C631   C     0.36524   0.93795   0.45978   0.00000  Uiso   1.00
C632   C     0.49198   0.74715   0.42949   0.00000  Uiso   1.00
C633   C     0.44360   0.73534   0.43648   0.00000  Uiso   1.00
C634   C     0.46858   0.83732   0.46156   0.00000  Uiso   1.00
C635   C     0.43699   0.86384   0.48278   0.00000  Uiso   1.00
C636   C     0.48525   0.81225   0.48216   0.00000  Uiso   1.00
C637   C     0.48114   0.82431   0.02296   0.00000  Uiso   1.00
C638   C     0.44815   0.84874   0.04387   0.00000  Uiso   1.00
C639   C     0.42567   0.86716   0.02425   0.00000  Uiso   1.00
H640   H     0.40062   0.88532   0.04214   0.00000  Uiso   1.00
H641   H     0.35531   0.80415   0.33541   0.00000  Uiso   1.00
H642   H     0.64705   0.76082   0.34371   0.00000  Uiso   1.00
H643   H     0.62347   0.81700   0.31843   0.00000  Uiso   1.00
H644   H     0.62725   0.77001   0.28394   0.00000  Uiso   1.00
H645   H     0.59888   0.72197   0.19076   0.00000  Uiso   1.00
H646   H     0.48098   0.91132   0.14043   0.00000  Uiso   1.00
H647   H     0.59310   0.68702   0.10267   0.00000  Uiso   1.00
H648   H     0.39113   0.95929   0.44210   0.00000  Uiso   1.00
H649   H     0.34943   0.91575   0.44006   0.00000  Uiso   1.00
H650   H     0.34079   0.95715   0.47965   0.00000  Uiso   1.00
H651   H     0.56385   0.72483   0.02844   0.00000  Uiso   1.00
H652   H     0.35587   0.89455   0.00268   0.00000  Uiso   1.00
H653   H     0.39655   0.93799   0.00513   0.00000  Uiso   1.00
H654   H     0.43002   0.72025   0.46436   0.00000  Uiso   1.00
H655   H     0.42712   0.76317   0.43815   0.00000  Uiso   1.00
H656   H     0.43726   0.71292   0.41162   0.00000  Uiso   1.00
H657   H     0.50569   0.76114   0.40133   0.00000  Uiso   1.00
H658   H     0.50639   0.71731   0.42405   0.00000  Uiso   1.00
H659   H     0.34910   0.85915   0.21668   0.00000  Uiso   1.00
H660   H     0.45931   0.99841   0.28388   0.00000  Uiso   1.00
H661   H     0.53839   0.72698   0.47306   0.00000  Uiso   1.00
H662   H     0.41743   0.89859   0.40366   0.00000  Uiso   1.00
H663   H     0.51446   0.82595   0.40520   0.00000  Uiso   1.00
H664   H     0.43782   0.85228   0.07579   0.00000  Uiso   1.00
H665   H     0.35913   0.75715   0.30094   0.00000  Uiso   1.00
O666   O     0.50000   0.83333   0.25000   0.00000  Uiso   1.00
O667   O     0.49027   0.79060   0.16625   0.00000  Uiso   1.00
O668   O     0.46020   0.87313   0.33749   0.00000  Uiso   1.00
O669   O     0.54421   0.84159   0.15877   0.00000  Uiso   1.00
O670   O     0.50532   0.82802   0.33749   0.00000  Uiso   1.00
O671   O     0.56591   0.98686   0.17443   0.00000  Uiso   1.00
O672   O     0.57346   0.71383   0.21360   0.00000  Uiso   1.00
O673   O     0.52119   0.89722   0.07285   0.00000  Uiso   1.00
O674   O     0.48279   0.88020   0.13399   0.00000  Uiso   1.00
O675   O     0.58144   0.75667   0.13171   0.00000  Uiso   1.00
O676   O     0.57772   0.70013   0.08714   0.00000  Uiso   1.00
O677   O     0.51182   0.74768   0.27820   0.00000  Uiso   1.00
O678   O     0.47914   0.92803   0.26767   0.00000  Uiso   1.00
O679   O     0.40785   0.79917   0.23607   0.00000  Uiso   1.00
O680   O     0.60119   0.85845   0.21806   0.00000  Uiso   1.00
O681   O     0.40323   0.85627   0.27820   0.00000  Uiso   1.00
O682   O     0.58773   0.81944   0.26768   0.00000  Uiso   1.00
O683   O     0.47133   0.73570   0.23607   0.00000  Uiso   1.00
O684   O     0.53771   0.92193   0.21805   0.00000  Uiso   1.00
Zn685  Zn    0.52577   0.80756   0.28277   0.00000  Uiso   1.00
Zn686  Zn    0.46792   0.79044   0.22257   0.00000  Uiso   1.00
Zn687  Zn    0.54500   0.86331   0.21188   0.00000  Uiso   1.00
Zn688  Zn    0.46131   0.87202   0.28277   0.00000  Uiso   1.00
C689   C     0.71967   0.82705   0.25796   0.00000  Uiso   1.00
C690   C     0.83623   0.77413   0.46497   0.00000  Uiso   1.00
C691   C     0.85797   0.75575   0.48580   0.00000  Uiso   1.00
C692   C     0.94759   0.83993   0.24155   0.00000  Uiso   1.00
C693   C     0.86062   0.77247   0.02357   0.00000  Uiso   1.00
C694   C     0.84016   0.80806   0.04236   0.00000  Uiso   1.00
C695   C     0.88184   0.75219   0.04334   0.00000  Uiso   1.00
C696   C     0.88203   0.76554   0.08247   0.00000  Uiso   1.00
C697   C     0.84582   0.82548   0.07992   0.00000  Uiso   1.00
C698   C     0.99299   0.84158   0.23930   0.00000  Uiso   1.00
C699   C     0.67408   0.82245   0.26383   0.00000  Uiso   1.00
C700   C     0.76542   0.88295   0.42047   0.00000  Uiso   1.00
C701   C     0.84875   0.98907   0.23701   0.00000  Uiso   1.00
C702   C     0.81957   0.67883   0.26168   0.00000  Uiso   1.00
C703   C     0.82200   0.72290   0.25954   0.00000  Uiso   1.00
C704   C     0.84356   0.94431   0.24093   0.00000  Uiso   1.00
C705   C     0.85473   0.81190   0.14397   0.00000  Uiso   1.00
C706   C     0.81206   0.85427   0.35628   0.00000  Uiso   1.00
C707   C     0.79909   0.85959   0.39985   0.00000  Uiso   1.00
C708   C     0.86300   0.80202   0.10111   0.00000  Uiso   1.00
C709   C     0.75131   0.88661   0.46207   0.00000  Uiso   1.00
C710   C     0.97920   0.79684   0.29694   0.00000  Uiso   1.00
C711   C     0.81849   0.83904   0.42077   0.00000  Uiso   1.00
C712   C     0.67027   0.77872   0.32058   0.00000  Uiso   1.00
C713   C     0.88608   0.67396   0.20615   0.00000  Uiso   1.00
C714   C     0.83947   0.86981   0.09498   0.00000  Uiso   1.00
C715   C     0.90323   0.74106   0.10249   0.00000  Uiso   1.00
C716   C     0.71655   0.91429   0.48470   0.00000  Uiso   1.00
C717   C     0.69858   0.93795   0.45978   0.00000  Uiso   1.00
C718   C     0.82531   0.74715   0.42949   0.00000  Uiso   1.00
C719   C     0.77694   0.73534   0.43648   0.00000  Uiso   1.00
C720   C     0.80192   0.83732   0.46156   0.00000  Uiso   1.00
C721   C     0.77032   0.86384   0.48278   0.00000  Uiso   1.00
C722   C     0.81858   0.81225   0.48216   0.00000  Uiso   1.00
C723   C     0.81448   0.82431   0.02296   0.00000  Uiso   1.00
C724   C     0.78148   0.84874   0.04387   0.00000  Uiso   1.00
C725   C     0.75901   0.86716   0.02425   0.00000  Uiso   1.00
H726   H     0.73396   0.88532   0.04214   0.00000  Uiso   1.00
H727   H     0.68864   0.80415   0.33541   0.00000  Uiso   1.00
H728   H     0.98039   0.76082   0.34371   0.00000  Uiso   1.00
H729   H     0.95680   0.81700   0.31843   0.00000  Uiso   1.00
H730   H     0.96059   0.77001   0.28394   0.00000  Uiso   1.00
H731   H     0.93221   0.72197   0.19076   0.00000  Uiso   1.00
H732   H     0.81431   0.91132   0.14043   0.00000  Uiso   1.00
H733   H     0.92643   0.68702   0.10267   0.00000  Uiso   1.00
H734   H     0.72447   0.95929   0.44210   0.00000  Uiso   1.00
H735   H     0.68276   0.91575   0.44006   0.00000  Uiso   1.00
H736   H     0.67413   0.95715   0.47965   0.00000  Uiso   1.00
H737   H     0.89718   0.72483   0.02844   0.00000  Uiso   1.00
H738   H     0.68920   0.89455   0.00268   0.00000  Uiso   1.00
H739   H     0.72988   0.93799   0.00513   0.00000  Uiso   1.00
H740   H     0.76335   0.72025   0.46436   0.00000  Uiso   1.00
H741   H     0.76045   0.76317   0.43815   0.00000  Uiso   1.00
H742   H     0.77060   0.71292   0.41162   0.00000  Uiso   1.00
H743   H     0.83902   0.76114   0.40133   0.00000  Uiso   1.00
H744   H     0.83973   0.71731   0.42405   0.00000  Uiso   1.00
H745   H     0.68244   0.85915   0.21668   0.00000  Uiso   1.00
H746   H     0.79265   0.99841   0.28388   0.00000  Uiso   1.00
H747   H     0.87173   0.72698   0.47306   0.00000  Uiso   1.00
H748   H     0.75076   0.89859   0.40366   0.00000  Uiso   1.00
H749   H     0.84779   0.82595   0.40520   0.00000  Uiso   1.00
H750   H     0.77115   0.85228   0.07579   0.00000  Uiso   1.00
H751   H     0.69246   0.75715   0.30094   0.00000  Uiso   1.00
O752   O     0.83333   0.83333   0.25000   0.00000  Uiso   1.00
O753   O     0.82360   0.79060   0.16625   0.00000  Uiso   1.00
O754   O     0.79354   0.87313   0.33749   0.00000  Uiso   1.00
O755   O     0.87755   0.84159   0.15877   0.00000  Uiso   1.00
O756   O     0.83865   0.82802   0.33749   0.00000  Uiso   1.00
O757   O     0.89925   0.98686   0.17443   0.00000  Uiso   1.00
O758   O     0.90679   0.71383   0.21360   0.00000  Uiso   1.00
O759   O     0.85452   0.89722   0.07285   0.00000  Uiso   1.00
O760   O     0.81612   0.88020   0.13399   0.00000  Uiso   1.00
O761   O     0.91477   0.75667   0.13171   0.00000  Uiso   1.00
O762   O     0.91105   0.70013   0.08714   0.00000  Uiso   1.00
O763   O     0.84515   0.74768   0.27820   0.00000  Uiso   1.00
O764   O     0.81247   0.92803   0.26767   0.00000  Uiso   1.00
O765   O     0.74119   0.79917   0.23607   0.00000  Uiso   1.00
O766   O     0.93452   0.85845   0.21806   0.00000  Uiso   1.00
O767   O     0.73656   0.85627   0.27820   0.00000  Uiso   1.00
O768   O     0.92106   0.81944   0.26768   0.00000  Uiso   1.00
O769   O     0.80467   0.73570   0.23607   0.00000  Uiso   1.00
O770   O     0.87104   0.92193   0.21805   0.00000  Uiso   1.00
Zn771  Zn    0.85910   0.80756   0.28277   0.00000  Uiso   1.00
Zn772  Zn    0.80125   0.79044   0.22257   0.00000  Uiso   1.00
Zn773  Zn    0.87833   0.86331   0.21188   0.00000  Uiso   1.00
Zn774  Zn    0.79465   0.87202   0.28277   0.00000  Uiso   1.00
C775   C     0.05300   0.16038   0.75796   0.00000  Uiso   1.00
C776   C     0.16956   0.10746   0.96497   0.00000  Uiso   1.00
C777   C     0.19130   0.08908   0.98580   0.00000  Uiso   1.00
C778   C     0.28093   0.17326   0.74155   0.00000  Uiso   1.00
C779   C     0.19395   0.10581   0.52357   0.00000  Uiso   1.00
C780   C     0.17350   0.14139   0.54236   0.00000  Uiso   1.00
C781   C     0.21517   0.08552   0.54334   0.00000  Uiso   1.00
C782   C     0.21536   0.09887   0.58247   0.00000  Uiso   1.00
C783   C     0.17915   0.15881   0.57992   0.00000  Uiso   1.00
C784   C     0.32632   0.17491   0.73930   0.00000  Uiso   1.00
C785   C     0.00741   0.15579   0.76383   0.00000  Uiso   1.00
C786   C     0.09876   0.21629   0.92047   0.00000  Uiso   1.00
C787   C     0.18208   0.32240   0.73701   0.00000  Uiso   1.00
C788   C     0.15291   0.01216   0.76168   0.00000  Uiso   1.00
C789   C     0.15534   0.05623   0.75954   0.00000  Uiso   1.00
C790   C     0.17689   0.27764   0.74093   0.00000  Uiso   1.00
C791   C     0.18806   0.14523   0.64397   0.00000  Uiso   1.00
C792   C     0.14540   0.18761   0.85628   0.00000  Uiso   1.00
C793   C     0.13242   0.19292   0.89985   0.00000  Uiso   1.00
C794   C     0.19633   0.13535   0.60111   0.00000  Uiso   1.00
C795   C     0.08465   0.21994   0.96207   0.00000  Uiso   1.00
C796   C     0.31253   0.13017   0.79694   0.00000  Uiso   1.00
C797   C     0.15182   0.17237   0.92077   0.00000  Uiso   1.00
C798   C     0.00361   0.11205   0.82058   0.00000  Uiso   1.00
C799   C     0.21942   0.00730   0.70615   0.00000  Uiso   1.00
C800   C     0.17281   0.20314   0.59498   0.00000  Uiso   1.00
C801   C     0.23656   0.07439   0.60249   0.00000  Uiso   1.00
C802   C     0.04988   0.24762   0.98470   0.00000  Uiso   1.00
C803   C     0.03191   0.27129   0.95978   0.00000  Uiso   1.00
C804   C     0.15864   0.08049   0.92949   0.00000  Uiso   1.00
C805   C     0.11027   0.06867   0.93648   0.00000  Uiso   1.00
C806   C     0.13525   0.17066   0.96156   0.00000  Uiso   1.00
C807   C     0.10365   0.19717   0.98278   0.00000  Uiso   1.00
C808   C     0.15191   0.14559   0.98216   0.00000  Uiso   1.00
C809   C     0.14781   0.15765   0.52296   0.00000  Uiso   1.00
C810   C     0.11481   0.18208   0.54387   0.00000  Uiso   1.00
C811   C     0.09234   0.20049   0.52425   0.00000  Uiso   1.00
H812   H     0.06729   0.21866   0.54214   0.00000  Uiso   1.00
H813   H     0.02197   0.13748   0.83541   0.00000  Uiso   1.00
H814   H     0.31372   0.09416   0.84371   0.00000  Uiso   1.00
H815   H     0.29013   0.15034   0.81843   0.00000  Uiso   1.00
H816   H     0.29392   0.10335   0.78394   0.00000  Uiso   1.00
H817   H     0.26555   0.05531   0.69076   0.00000  Uiso   1.00
H818   H     0.14764   0.24465   0.64043   0.00000  Uiso   1.00
H819   H     0.25977   0.02035   0.60267   0.00000  Uiso   1.00
H820   H     0.05780   0.29262   0.94210   0.00000  Uiso   1.00
H821   H     0.01610   0.24909   0.94006   0.00000  Uiso   1.00
H822   H     0.00746   0.29049   0.97965   0.00000  Uiso   1.00
H823   H     0.23051   0.05817   0.52844   0.00000  Uiso   1.00
H824   H     0.02253   0.22788   0.50268   0.00000  Uiso   1.00
H825   H     0.06321   0.27132   0.50513   0.00000  Uiso   1.00
H826   H     0.09669   0.05359   0.96436   0.00000  Uiso   1.00
H827   H     0.09378   0.09651   0.93815   0.00000  Uiso   1.00
H828   H     0.10393   0.04626   0.91162   0.00000  Uiso   1.00
H829   H     0.17236   0.09447   0.90133   0.00000  Uiso   1.00
H830   H     0.17306   0.05064   0.92405   0.00000  Uiso   1.00
H831   H     0.01577   0.19249   0.71668   0.00000  Uiso   1.00
H832   H     0.12598   0.33175   0.78388   0.00000  Uiso   1.00
H833   H     0.20506   0.06031   0.97306   0.00000  Uiso   1.00
H834   H     0.08409   0.23192   0.90366   0.00000  Uiso   1.00
H835   H     0.18113   0.15928   0.90520   0.00000  Uiso   1.00
H836   H     0.10449   0.18562   0.57579   0.00000  Uiso   1.00
H837   H     0.02580   0.09049   0.80094   0.00000  Uiso   1.00
O838   O     0.16667   0.16667   0.75000   0.00000  Uiso   1.00
O839   O     0.15693   0.12393   0.66625   0.00000  Uiso   1.00
O840   O     0.12687   0.20646   0.83749   0.00000  Uiso   1.00
O841   O     0.21088   0.17493   0.65877   0.00000  Uiso   1.00
O842   O     0.17198   0.16135   0.83749   0.00000  Uiso   1.00
O843   O     0.23258   0.32019   0.67443   0.00000  Uiso   1.00
O844   O     0.24013   0.04716   0.71360   0.00000  Uiso   1.00
O845   O     0.18786   0.23055   0.57285   0.00000  Uiso   1.00
O846   O     0.14945   0.21353   0.63399   0.00000  Uiso   1.00
O847   O     0.24811   0.09001   0.63171   0.00000  Uiso   1.00
O848   O     0.24438   0.03347   0.58714   0.00000  Uiso   1.00
O849   O     0.17849   0.08101   0.77820   0.00000  Uiso   1.00
O850   O     0.14581   0.26136   0.76767   0.00000  Uiso   1.00
O851   O     0.07452   0.13251   0.73607   0.00000  Uiso   1.00
O852   O     0.26785   0.19179   0.71806   0.00000  Uiso   1.00
O853   O     0.06990   0.18960   0.77820   0.00000  Uiso   1.00
O854   O     0.25440   0.15277   0.76768   0.00000  Uiso   1.00
O855   O     0.13800   0.06903   0.73607   0.00000  Uiso   1.00
O856   O     0.20437   0.25527   0.71805   0.00000  Uiso   1.00
Zn857  Zn    0.19244   0.14090   0.78277   0.00000  Uiso   1.00
Zn858  Zn    0.13459   0.12378   0.72257   0.00000  Uiso   1.00
Zn859  Zn    0.21166   0.19664   0.71188   0.00000  Uiso   1.00
Zn860  Zn    0.12798   0.20535   0.78277   0.00000  Uiso   1.00
C861   C     0.38633   0.16038   0.75796   0.00000  Uiso   1.00
C862   C     0.50289   0.10746   0.96497   0.00000  Uiso   1.00
C863   C     0.52463   0.08908   0.98580   0.00000  Uiso   1.00
C864   C     0.61426   0.17326   0.74155   0.00000  Uiso   1.00
C865   C     0.52728   0.10581   0.52357   0.00000  Uiso   1.00
C866   C     0.50683   0.14139   0.54236   0.00000  Uiso   1.00
C867   C     0.54851   0.08552   0.54334   0.00000  Uiso   1.00
C868   C     0.54870   0.09887   0.58247   0.00000  Uiso   1.00
C869   C     0.51249   0.15881   0.57992   0.00000  Uiso   1.00
C870   C     0.65966   0.17491   0.73930   0.00000  Uiso   1.00
C871   C     0.34074   0.15579   0.76383   0.00000  Uiso   1.00
C872   C     0.43209   0.21629   0.92047   0.00000  Uiso   1.00
C873   C     0.51542   0.32240   0.73701   0.00000  Uiso   1.00
C874   C     0.48624   0.01216   0.76168   0.00000  Uiso   1.00
C875   C     0.48867   0.05623   0.75954   0.00000  Uiso   1.00
C876   C     0.51022   0.27764   0.74093   0.00000  Uiso   1.00
C877   C     0.52139   0.14523   0.64397   0.00000  Uiso   1.00
C878   C     0.47873   0.18761   0.85628   0.00000  Uiso   1.00
C879   C     0.46575   0.19292   0.89985   0.00000  Uiso   1.00
C880   C     0.52967   0.13535   0.60111   0.00000  Uiso   1.00
C881   C     0.41798   0.21994   0.96207   0.00000  Uiso   1.00
C882   C     0.64587   0.13017   0.79694   0.00000  Uiso   1.00
C883   C     0.48515   0.17237   0.92077   0.00000  Uiso   1.00
C884   C     0.33694   0.11205   0.82058   0.00000  Uiso   1.00
C885   C     0.55275   0.00730   0.70615   0.00000  Uiso   1.00
C886   C     0.50614   0.20314   0.59498   0.00000  Uiso   1.00
C887   C     0.56990   0.07439   0.60249   0.00000  Uiso   1.00
C888   C     0.38321   0.24762   0.98470   0.00000  Uiso   1.00
C889   C     0.36524   0.27129   0.95978   0.00000  Uiso   1.00
C890   C     0.49198   0.08049   0.92949   0.00000  Uiso   1.00
C891   C     0.44360   0.06867   0.93648   0.00000  Uiso   1.00
C892   C     0.46858   0.17066   0.96156   0.00000  Uiso   1.00
C893   C     0.43699   0.19717   0.98278   0.00000  Uiso   1.00
C894   C     0.48525   0.14559   0.98216   0.00000  Uiso   1.00
C895   C     0.48114   0.15765   0.52296   0.00000  Uiso   1.00
C896   C     0.44815   0.18208   0.54387   0.00000  Uiso   1.00
C897   C     0.42567   0.20049   0.52425   0.00000  Uiso   1.00
H898   H     0.40062   0.21866   0.54214   0.00000  Uiso   1.00
H899   H     0.35531   0.13748   0.83541   0.00000  Uiso   1.00
H900   H     0.64705   0.09416   0.84371   0.00000  Uiso   1.00
H901   H     0.62347   0.15034   0.81843   0.00000  Uiso   1.00
H902   H     0.62725   0.10335   0.78394   0.00000  Uiso   1.00
H903   H     0.59888   0.05531   0.69076   0.00000  Uiso   1.00
H904   H     0.48098   0.24465   0.64043   0.00000  Uiso   1.00
H905   H     0.59310   0.02035   0.60267   0.00000  Uiso   1.00
H906   H     0.39113   0.29262   0.94210   0.00000  Uiso   1.00
H907   H     0.34943   0.24909   0.94006   0.00000  Uiso   1.00
H908   H     0.34079   0.29049   0.97965   0.00000  Uiso   1.00
H909   H     0.56385   0.05817   0.52844   0.00000  Uiso   1.00
H910   H     0.35587   0.22788   0.50268   0.00000  Uiso   1.00
H911   H     0.39655   0.27132   0.50513   0.00000  Uiso   1.00
H912   H     0.43002   0.05359   0.96436   0.00000  Uiso   1.00
H913   H     0.42712   0.09651   0.93815   0.00000  Uiso   1.00
H914   H     0.43726   0.04626   0.91162   0.00000  Uiso   1.00
H915   H     0.50569   0.09447   0.90133   0.00000  Uiso   1.00
H916   H     0.50639   0.05064   0.92405   0.00000  Uiso   1.00
H917   H     0.34910   0.19249   0.71668   0.00000  Uiso   1.00
H918   H     0.45931   0.33175   0.78388   0.00000  Uiso   1.00
H919   H     0.53839   0.06031   0.97306   0.00000  Uiso   1.00
H920   H     0.41743   0.23192   0.90366   0.00000  Uiso   1.00
H921   H     0.51446   0.15928   0.90520   0.00000  Uiso   1.00
H922   H     0.43782   0.18562   0.57579   0.00000  Uiso   1.00
H923   H     0.35913   0.09049   0.80094   0.00000  Uiso   1.00
O924   O     0.50000   0.16667   0.75000   0.00000  Uiso   1.00
O925   O     0.49027   0.12393   0.66625   0.00000  Uiso   1.00
O926   O     0.46020   0.20646   0.83749   0.00000  Uiso   1.00
O927   O     0.54421   0.17493   0.65877   0.00000  Uiso   1.00
O928   O     0.50532   0.16135   0.83749   0.00000  Uiso   1.00
O929   O     0.56591   0.32019   0.67443   0.00000  Uiso   1.00
O930   O     0.57346   0.04716   0.71360   0.00000  Uiso   1.00
O931   O     0.52119   0.23055   0.57285   0.00000  Uiso   1.00
O932   O     0.48279   0.21353   0.63399   0.00000  Uiso   1.00
O933   O     0.58144   0.09001   0.63171   0.00000  Uiso   1.00
O934   O     0.57772   0.03347   0.58714   0.00000  Uiso   1.00
O935   O     0.51182   0.08101   0.77820   0.00000  Uiso   1.00
O936   O     0.47914   0.26136   0.76767   0.00000  Uiso   1.00
O937   O     0.40785   0.13251   0.73607   0.00000  Uiso   1.00
O938   O     0.60119   0.19179   0.71806   0.00000  Uiso   1.00
O939   O     0.40323   0.18960   0.77820   0.00000  Uiso   1.00
O940   O     0.58773   0.15277   0.76768   0.00000  Uiso   1.00
O941   O     0.47133   0.06903   0.73607   0.00000  Uiso   1.00
O942   O     0.53771   0.25527   0.71805   0.00000  Uiso   1.00
Zn943  Zn    0.52577   0.14090   0.78277   0.00000  Uiso   1.00
Zn944  Zn    0.46792   0.12378   0.72257   0.00000  Uiso   1.00
Zn945  Zn    0.54500   0.19664   0.71188   0.00000  Uiso   1.00
Zn946  Zn    0.46131   0.20535   0.78277   0.00000  Uiso   1.00
C947   C     0.71967   0.16038   0.75796   0.00000  Uiso   1.00
C948   C     0.83623   0.10746   0.96497   0.00000  Uiso   1.00
C949   C     0.85797   0.08908   0.98580   0.00000  Uiso   1.00
C950   C     0.94759   0.17326   0.74155   0.00000  Uiso   1.00
C951   C     0.86062   0.10581   0.52357   0.00000  Uiso   1.00
C952   C     0.84016   0.14139   0.54236   0.00000  Uiso   1.00
C953   C     0.88184   0.08552   0.54334   0.00000  Uiso   1.00
C954   C     0.88203   0.09887   0.58247   0.00000  Uiso   1.00
C955   C     0.84582   0.15881   0.57992   0.00000  Uiso   1.00
C956   C     0.99299   0.17491   0.73930   0.00000  Uiso   1.00
C957   C     0.67408   0.15579   0.76383   0.00000  Uiso   1.00
C958   C     0.76542   0.21629   0.92047   0.00000  Uiso   1.00
C959   C     0.84875   0.32240   0.73701   0.00000  Uiso   1.00
C960   C     0.81957   0.01216   0.76168   0.00000  Uiso   1.00
C961   C     0.82200   0.05623   0.75954   0.00000  Uiso   1.00
C962   C     0.84356   0.27764   0.74093   0.00000  Uiso   1.00
C963   C     0.85473   0.14523   0.64397   0.00000  Uiso   1.00
C964   C     0.81206   0.18761   0.85628   0.00000  Uiso   1.00
C965   C     0.79909   0.19292   0.89985   0.00000  Uiso   1.00
C966   C     0.86300   0.13535   0.60111   0.00000  Uiso   1.00
C967   C     0.75131   0.21994   0.96207   0.00000  Uiso   1.00
C968   C     0.97920   0.13017   0.79694   0.00000  Uiso   1.00
C969   C     0.81849   0.17237   0.92077   0.00000  Uiso   1.00
C970   C     0.67027   0.11205   0.82058   0.00000  Uiso   1.00
C971   C     0.88608   0.00730   0.70615   0.00000  Uiso   1.00
C972   C     0.83947   0.20314   0.59498   0.00000  Uiso   1.00
C973   C     0.90323   0.07439   0.60249   0.00000  Uiso   1.00
C974   C     0.71655   0.24762   0.98470   0.00000  Uiso   1.00
C975   C     0.69858   0.27129   0.95978   0.00000  Uiso   1.00
C976   C     0.82531   0.08049   0.92949   0.00000  Uiso   1.00
C977   C     0.77694   0.06867   0.93648   0.00000  Uiso   1.00
C978   C     0.80192   0.17066   0.96156   0.00000  Uiso   1.00
C979   C     0.77032   0.19717   0.98278   0.00000  Uiso   1.00
C980   C     0.81858   0.14559   0.98216   0.00000  Uiso   1.00
C981   C     0.81448   0.15765   0.52296   0.00000  Uiso   1.00
C982   C     0.78148   0.18208   0.54387   0.00000  Uiso   1.00
C983   C     0.75901   0.20049   0.52425   0.00000  Uiso   1.00
H984   H     0.73396   0.21866   0.54214   0.00000  Uiso   1.00
H985   H     0.68864   0.13748   0.83541   0.00000  Uiso   1.00
H986   H     0.98039   0.09416   0.84371   0.00000  Uiso   1.00
H987   H     0.95680   0.15034   0.81843   0.00000  Uiso   1.00
H988   H     0.96059   0.10335   0.78394   0.00000  Uiso   1.00
H989   H     0.93221   0.05531   0.69076   0.00000  Uiso   1.00
H990   H     0.81431   0.24465   0.64043   0.00000  Uiso   1.00
H991   H     0.92643   0.02035   0.60267   0.00000  Uiso   1.00
H992   H     0.72447   0.29262   0.94210   0.00000  Uiso   1.00
H993   H     0.68276   0.24909   0.94006   0.00000  Uiso   1.00
H994   H     0.67413   0.29049   0.97965   0.00000  Uiso   1.00
H995   H     0.89718   0.05817   0.52844   0.00000  Uiso   1.00
H996   H     0.68920   0.22788   0.50268   0.00000  Uiso   1.00
H997   H     0.72988   0.27132   0.50513   0.00000  Uiso   1.00
H998   H     0.76335   0.05359   0.96436   0.00000  Uiso   1.00
H999   H     0.76045   0.09651   0.93815   0.00000  Uiso   1.00
H1000  H     0.77060   0.04626   0.91162   0.00000  Uiso   1.00
H1001  H     0.83902   0.09447   0.90133   0.00000  Uiso   1.00
H1002  H     0.83973   0.05064   0.92405   0.00000  Uiso   1.00
H1003  H     0.68244   0.19249   0.71668   0.00000  Uiso   1.00
H1004  H     0.79265   0.33175   0.78388   0.00000  Uiso   1.00
H1005  H     0.87173   0.06031   0.97306   0.00000  Uiso   1.00
H1006  H     0.75076   0.23192   0.90366   0.00000  Uiso   1.00
H1007  H     0.84779   0.15928   0.90520   0.00000  Uiso   1.00
H1008  H     0.77115   0.18562   0.57579   0.00000  Uiso   1.00
H1009  H     0.69246   0.09049   0.80094   0.00000  Uiso   1.00
O1010  O     0.83333   0.16667   0.75000   0.00000  Uiso   1.00
O1011  O     0.82360   0.12393   0.66625   0.00000  Uiso   1.00
O1012  O     0.79354   0.20646   0.83749   0.00000  Uiso   1.00
O1013  O     0.87755   0.17493   0.65877   0.00000  Uiso   1.00
O1014  O     0.83865   0.16135   0.83749   0.00000  Uiso   1.00
O1015  O     0.89925   0.32019   0.67443   0.00000  Uiso   1.00
O1016  O     0.90679   0.04716   0.71360   0.00000  Uiso   1.00
O1017  O     0.85452   0.23055   0.57285   0.00000  Uiso   1.00
O1018  O     0.81612   0.21353   0.63399   0.00000  Uiso   1.00
O1019  O     0.91477   0.09001   0.63171   0.00000  Uiso   1.00
O1020  O     0.91105   0.03347   0.58714   0.00000  Uiso   1.00
O1021  O     0.84515   0.08101   0.77820   0.00000  Uiso   1.00
O1022  O     0.81247   0.26136   0.76767   0.00000  Uiso   1.00
O1023  O     0.74119   0.13251   0.73607   0.00000  Uiso   1.00
O1024  O     0.93452   0.19179   0.71806   0.00000  Uiso   1.00
O1025  O     0.73656   0.18960   0.77820   0.00000  Uiso   1.00
O1026  O     0.92106   0.15277   0.76768   0.00000  Uiso   1.00
O1027  O     0.80467   0.06903   0.73607   0.00000  Uiso   1.00
O1028  O     0.87104   0.25527   0.71805   0.00000  Uiso   1.00
Zn1029 Zn    0.85910   0.14090   0.78277   0.00000  Uiso   1.00
Zn1030 Zn    0.80125   0.12378   0.72257   0.00000  Uiso   1.00
Zn1031 Zn    0.87833   0.19664   0.71188   0.00000  Uiso   1.00
Zn1032 Zn    0.79465   0.20535   0.78277   0.00000  Uiso   1.00
C1033  C     0.05300   0.49371   0.75796   0.00000  Uiso   1.00
C1034  C     0.16956   0.44080   0.96497   0.00000  Uiso   1.00
C1035  C     0.19130   0.42242   0.98580   0.00000  Uiso   1.00
C1036  C     0.28093   0.50659   0.74155   0.00000  Uiso   1.00
C1037  C     0.19395   0.43914   0.52357   0.00000  Uiso   1.00
C1038  C     0.17350   0.47473   0.54236   0.00000  Uiso   1.00
C1039  C     0.21517   0.41886   0.54334   0.00000  Uiso   1.00
C1040  C     0.21536   0.43221   0.58247   0.00000  Uiso   1.00
C1041  C     0.17915   0.49214   0.57992   0.00000  Uiso   1.00
C1042  C     0.32632   0.50825   0.73930   0.00000  Uiso   1.00
C1043  C     0.00741   0.48912   0.76383   0.00000  Uiso   1.00
C1044  C     0.09876   0.54962   0.92047   0.00000  Uiso   1.00
C1045  C     0.18208   0.65573   0.73701   0.00000  Uiso   1.00
C1046  C     0.15291   0.34549   0.76168   0.00000  Uiso   1.00
C1047  C     0.15534   0.38956   0.75954   0.00000  Uiso   1.00
C1048  C     0.17689   0.61098   0.74093   0.00000  Uiso   1.00
C1049  C     0.18806   0.47856   0.64397   0.00000  Uiso   1.00
C1050  C     0.14540   0.52094   0.85628   0.00000  Uiso   1.00
C1051  C     0.13242   0.52626   0.89985   0.00000  Uiso   1.00
C1052  C     0.19633   0.46869   0.60111   0.00000  Uiso   1.00
C1053  C     0.08465   0.55328   0.96207   0.00000  Uiso   1.00
C1054  C     0.31253   0.46350   0.79694   0.00000  Uiso   1.00
C1055  C     0.15182   0.50571   0.92077   0.00000  Uiso   1.00
C1056  C     0.00361   0.44539   0.82058   0.00000  Uiso   1.00
C1057  C     0.21942   0.34063   0.70615   0.00000  Uiso   1.00
C1058  C     0.17281   0.53648   0.59498   0.00000  Uiso   1.00
C1059  C     0.23656   0.40773   0.60249   0.00000  Uiso   1.00
C1060  C     0.04988   0.58096   0.98470   0.00000  Uiso   1.00
C1061  C     0.03191   0.60462   0.95978   0.00000  Uiso   1.00
C1062  C     0.15864   0.41382   0.92949   0.00000  Uiso   1.00
C1063  C     0.11027   0.40200   0.93648   0.00000  Uiso   1.00
C1064  C     0.13525   0.50399   0.96156   0.00000  Uiso   1.00
C1065  C     0.10365   0.53051   0.98278   0.00000  Uiso   1.00
C1066  C     0.15191   0.47892   0.98216   0.00000  Uiso   1.00
C1067  C     0.14781   0.49098   0.52296   0.00000  Uiso   1.00
C1068  C     0.11481   0.51541   0.54387   0.00000  Uiso   1.00
C1069  C     0.09234   0.53383   0.52425   0.00000  Uiso   1.00
H1070  H     0.06729   0.55199   0.54214   0.00000  Uiso   1.00
H1071  H     0.02197   0.47082   0.83541   0.00000  Uiso   1.00
H1072  H     0.31372   0.42749   0.84371   0.00000  Uiso   1.00
H1073  H     0.29013   0.48367   0.81843   0.00000  Uiso   1.00
H1074  H     0.29392   0.43668   0.78394   0.00000  Uiso   1.00
H1075  H     0.26555   0.38864   0.69076   0.00000  Uiso   1.00
H1076  H     0.14764   0.57799   0.64043   0.00000  Uiso   1.00
H1077  H     0.25977   0.35368   0.60267   0.00000  Uiso   1.00
H1078  H     0.05780   0.62596   0.94210   0.00000  Uiso   1.00
H1079  H     0.01610   0.58242   0.94006   0.00000  Uiso   1.00
H1080  H     0.00746   0.62382   0.97965   0.00000  Uiso   1.00
H1081  H     0.23051   0.39150   0.52844   0.00000  Uiso   1.00
H1082  H     0.02253   0.56121   0.50268   0.00000  Uiso   1.00
H1083  H     0.06321   0.60466   0.50513   0.00000  Uiso   1.00
H1084  H     0.09669   0.38692   0.96436   0.00000  Uiso   1.00
H1085  H     0.09378   0.42984   0.93815   0.00000  Uiso   1.00
H1086  H     0.10393   0.37959   0.91162   0.00000  Uiso   1.00
H1087  H     0.17236   0.42781   0.90133   0.00000  Uiso   1.00
H1088  H     0.17306   0.38398   0.92405   0.00000  Uiso   1.00
H1089  H     0.01577   0.52582   0.71668   0.00000  Uiso   1.00
H1090  H     0.12598   0.66508   0.78388   0.00000  Uiso   1.00
H1091  H     0.20506   0.39364   0.97306   0.00000  Uiso   1.00
H1092  H     0.08409   0.56525   0.90366   0.00000  Uiso   1.00
H1093  H     0.18113   0.49261   0.90520   0.00000  Uiso   1.00
H1094  H     0.10449   0.51895   0.57579   0.00000  Uiso   1.00
H1095  H     0.02580   0.42382   0.80094   0.00000  Uiso   1.00
O1096  O     0.16667   0.50000   0.75000   0.00000  Uiso   1.00
O1097  O     0.15693   0.45726   0.66625   0.00000  Uiso   1.00
O1098  O     0.12687   0.53979   0.83749   0.00000  Uiso   1.00
O1099  O     0.21088   0.50826   0.65877   0.00000  Uiso   1.00
O1100  O     0.17198   0.49468   0.83749   0.00000  Uiso   1.00
O1101  O     0.23258   0.65353   0.67443   0.00000  Uiso   1.00
O1102  O     0.24013   0.38049   0.71360   0.00000  Uiso   1.00
O1103  O     0.18786   0.56389   0.57285   0.00000  Uiso   1.00
O1104  O     0.14945   0.54686   0.63399   0.00000  Uiso   1.00
O1105  O     0.24811   0.42334   0.63171   0.00000  Uiso   1.00
O1106  O     0.24438   0.36680   0.58714   0.00000  Uiso   1.00
O1107  O     0.17849   0.41434   0.77820   0.00000  Uiso   1.00
O1108  O     0.14581   0.59469   0.76767   0.00000  Uiso   1.00
O1109  O     0.07452   0.46584   0.73607   0.00000  Uiso   1.00
O1110  O     0.26785   0.52512   0.71806   0.00000  Uiso   1.00
O1111  O     0.06990   0.52293   0.77820   0.00000  Uiso   1.00
O1112  O     0.25440   0.48610   0.76768   0.00000  Uiso   1.00
O1113  O     0.13800   0.40236   0.73607   0.00000  Uiso   1.00
O1114  O     0.20437   0.58860   0.71805   0.00000  Uiso   1.00
Zn1115 Zn    0.19244   0.47423   0.78277   0.00000  Uiso   1.00
Zn1116 Zn    0.13459   0.45711   0.72257   0.00000  Uiso   1.00
Zn1117 Zn    0.21166   0.52997   0.71188   0.00000  Uiso   1.00
Zn1118 Zn    0.12798   0.53868   0.78277   0.00000  Uiso   1.00
C1119  C     0.38633   0.49371   0.75796   0.00000  Uiso   1.00
C1120  C     0.50289   0.44080   0.96497   0.00000  Uiso   1.00
C1121  C     0.52463   0.42242   0.98580   0.00000  Uiso   1.00
C1122  C     0.61426   0.50659   0.74155   0.00000  Uiso   1.00
C1123  C     0.52728   0.43914   0.52357   0.00000  Uiso   1.00
C1124  C     0.50683   0.47473   0.54236   0.00000  Uiso   1.00
C1125  C     0.54851   0.41886   0.54334   0.00000  Uiso   1.00
C1126  C     0.54870   0.43221   0.58247   0.00000  Uiso   1.00
C1127  C     0.51249   0.49214   0.57992   0.00000  Uiso   1.00
C1128  C     0.65966   0.50825   0.73930   0.00000  Uiso   1.00
C1129  C     0.34074   0.48912   0.76383   0.00000  Uiso   1.00
C1130  C     0.43209   0.54962   0.92047   0.00000  Uiso   1.00
C1131  C     0.51542   0.65573   0.73701   0.00000  Uiso   1.00
C1132  C     0.48624   0.34549   0.76168   0.00000  Uiso   1.00
C1133  C     0.48867   0.38956   0.75954   0.00000  Uiso   1.00
C1134  C     0.51022   0.61098   0.74093   0.00000  Uiso   1.00
C1135  C     0.52139   0.47856   0.64397   0.00000  Uiso   1.00
C1136  C     0.47873   0.52094   0.85628   0.00000  Uiso   1.00
C1137  C     0.46575   0.52626   0.89985   0.00000  Uiso   1.00
C1138  C     0.52967   0.46869   0.60111   0.00000  Uiso   1.00
C1139  C     0.41798   0.55328   0.96207   0.00000  Uiso   1.00
C1140  C     0.64587   0.46350   0.79694   0.00000  Uiso   1.00
C1141  C     0.48515   0.50571   0.92077   0.00000  Uiso   1.00
C1142  C     0.33694   0.44539   0.82058   0.00000  Uiso   1.00
C1143  C     0.55275   0.34063   0.70615   0.00000  Uiso   1.00
C1144  C     0.50614   0.53648   0.59498   0.00000  Uiso   1.00
C1145  C     0.56990   0.40773   0.60249   0.00000  Uiso   1.00
C1146  C     0.38321   0.58096   0.98470   0.00000  Uiso   1.00
C1147  C     0.36524   0.60462   0.95978   0.00000  Uiso   1.00
C1148  C     0.49198   0.41382   0.92949   0.00000  Uiso   1.00
C1149  C     0.44360   0.40200   0.93648   0.00000  Uiso   1.00
C1150  C     0.46858   0.50399   0.96156   0.00000  Uiso   1.00
C1151  C     0.43699   0.53051   0.98278   0.00000  Uiso   1.00
C1152  C     0.48525   0.47892   0.98216   0.00000  Uiso   1.00
C1153  C     0.48114   0.49098   0.52296   0.00000  Uiso   1.00
C1154  C     0.44815   0.51541   0.54387   0.00000  Uiso   1.00
C1155  C     0.42567   0.53383   0.52425   0.00000  Uiso   1.00
H1156  H     0.40062   0.55199   0.54214   0.00000  Uiso   1.00
H1157  H     0.35531   0.47082   0.83541   0.00000  Uiso   1.00
H1158  H     0.64705   0.42749   0.84371   0.00000  Uiso   1.00
H1159  H     0.62347   0.48367   0.81843   0.00000  Uiso   1.00
H1160  H     0.62725   0.43668   0.78394   0.00000  Uiso   1.00
H1161  H     0.59888   0.38864   0.69076   0.00000  Uiso   1.00
H1162  H     0.48098   0.57799   0.64043   0.00000  Uiso   1.00
H1163  H     0.59310   0.35368   0.60267   0.00000  Uiso   1.00
H1164  H     0.39113   0.62596   0.94210   0.00000  Uiso   1.00
H1165  H     0.34943   0.58242   0.94006   0.00000  Uiso   1.00
H1166  H     0.34079   0.62382   0.97965   0.00000  Uiso   1.00
H1167  H     0.56385   0.39150   0.52844   0.00000  Uiso   1.00
H1168  H     0.35587   0.56121   0.50268   0.00000  Uiso   1.00
H1169  H     0.39655   0.60466   0.50513   0.00000  Uiso   1.00
H1170  H     0.43002   0.38692   0.96436   0.00000  Uiso   1.00
H1171  H     0.42712   0.42984   0.93815   0.00000  Uiso   1.00
H1172  H     0.43726   0.37959   0.91162   0.00000  Uiso   1.00
H1173  H     0.50569   0.42781   0.90133   0.00000  Uiso   1.00
H1174  H     0.50639   0.38398   0.92405   0.00000  Uiso   1.00
H1175  H     0.34910   0.52582   0.71668   0.00000  Uiso   1.00
H1176  H     0.45931   0.66508   0.78388   0.00000  Uiso   1.00
H1177  H     0.53839   0.39364   0.97306   0.00000  Uiso   1.00
H1178  H     0.41743   0.56525   0.90366   0.00000  Uiso   1.00
H1179  H     0.51446   0.49261   0.90520   0.00000  Uiso   1.00
H1180  H     0.43782   0.51895   0.57579   0.00000  Uiso   1.00
H1181  H     0.35913   0.42382   0.80094   0.00000  Uiso   1.00
O1182  O     0.50000   0.50000   0.75000   0.00000  Uiso   1.00
O1183  O     0.49027   0.45726   0.66625   0.00000  Uiso   1.00
O1184  O     0.46020   0.53979   0.83749   0.00000  Uiso   1.00
O1185  O     0.54421   0.50826   0.65877   0.00000  Uiso   1.00
O1186  O     0.50532   0.49468   0.83749   0.00000  Uiso   1.00
O1187  O     0.56591   0.65353   0.67443   0.00000  Uiso   1.00
O1188  O     0.57346   0.38049   0.71360   0.00000  Uiso   1.00
O1189  O     0.52119   0.56389   0.57285   0.00000  Uiso   1.00
O1190  O     0.48279   0.54686   0.63399   0.00000  Uiso   1.00
O1191  O     0.58144   0.42334   0.63171   0.00000  Uiso   1.00
O1192  O     0.57772   0.36680   0.58714   0.00000  Uiso   1.00
O1193  O     0.51182   0.41434   0.77820   0.00000  Uiso   1.00
O1194  O     0.47914   0.59469   0.76767   0.00000  Uiso   1.00
O1195  O     0.40785   0.46584   0.73607   0.00000  Uiso   1.00
O1196  O     0.60119   0.52512   0.71806   0.00000  Uiso   1.00
O1197  O     0.40323   0.52293   0.77820   0.00000  Uiso   1.00
O1198  O     0.58773   0.48610   0.76768   0.00000  Uiso   1.00
O1199  O     0.47133   0.40236   0.73607   0.00000  Uiso   1.00
O1200  O     0.53771   0.58860   0.71805   0.00000  Uiso   1.00
Zn1201 Zn    0.52577   0.47423   0.78277   0.00000  Uiso   1.00
Zn1202 Zn    0.46792   0.45711   0.72257   0.00000  Uiso   1.00
Zn1203 Zn    0.54500   0.52997   0.71188   0.00000  Uiso   1.00
Zn1204 Zn    0.46131   0.53868   0.78277   0.00000  Uiso   1.00
C1205  C     0.71967   0.49371   0.75796   0.00000  Uiso   1.00
C1206  C     0.83623   0.44080   0.96497   0.00000  Uiso   1.00
C1207  C     0.85797   0.42242   0.98580   0.00000  Uiso   1.00
C1208  C     0.94759   0.50659   0.74155   0.00000  Uiso   1.00
C1209  C     0.86062   0.43914   0.52357   0.00000  Uiso   1.00
C1210  C     0.84016   0.47473   0.54236   0.00000  Uiso   1.00
C1211  C     0.88184   0.41886   0.54334   0.00000  Uiso   1.00
C1212  C     0.88203   0.43221   0.58247   0.00000  Uiso   1.00
C1213  C     0.84582   0.49214   0.57992   0.00000  Uiso   1.00
C1214  C     0.99299   0.50825   0.73930   0.00000  Uiso   1.00
C1215  C     0.67408   0.48912   0.76383   0.00000  Uiso   1.00
C1216  C     0.76542   0.54962   0.92047   0.00000  Uiso   1.00
C1217  C     0.84875   0.65573   0.73701   0.00000  Uiso   1.00
C1218  C     0.81957   0.34549   0.76168   0.00000  Uiso   1.00
C1219  C     0.82200   0.38956   0.75954   0.00000  Uiso   1.00
C1220  C     0.84356   0.61098   0.74093   0.00000  Uiso   1.00
C1221  C     0.85473   0.47856   0.64397   0.00000  Uiso   1.00
C1222  C     0.81206   0.52094   0.85628   0.00000  Uiso   1.00
C1223  C     0.79909   0.52626   0.89985   0.00000  Uiso   1.00
C1224  C     0.86300   0.46869   0.60111   0.00000  Uiso   1.00
C1225  C     0.75131   0.55328   0.96207   0.00000  Uiso   1.00
C1226  C     0.97920   0.46350   0.79694   0.00000  Uiso   1.00
C1227  C     0.81849   0.50571   0.92077   0.00000  Uiso   1.00
C1228  C     0.67027   0.44539   0.82058   0.00000  Uiso   1.00
C1229  C     0.88608   0.34063   0.70615   0.00000  Uiso   1.00
C1230  C     0.83947   0.53648   0.59498   0.00000  Uiso   1.00
C1231  C     0.90323   0.40773   0.60249   0.00000  Uiso   1.00
C1232  C     0.71655   0.58096   0.98470   0.00000  Uiso   1.00
C1233  C     0.69858   0.60462   0.95978   0.00000  Uiso   1.00
C1234  C     0.82531   0.41382   0.92949   0.00000  Uiso   1.00
C1235  C     0.77694   0.40200   0.93648   0.00000  Uiso   1.00
C1236  C     0.80192   0.50399   0.96156   0.00000  Uiso   1.00
C1237  C     0.77032   0.53051   0.98278   0.00000  Uiso   1.00
C1238  C     0.81858   0.47892   0.98216   0.00000  Uiso   1.00
C1239  C     0.81448   0.49098   0.52296   0.00000  Uiso   1.00
C1240  C     0.78148   0.51541   0.54387   0.00000  Uiso   1.00
C1241  C     0.75901   0.53383   0.52425   0.00000  Uiso   1.00
H1242  H     0.73396   0.55199   0.54214   0.00000  Uiso   1.00
H1243  H     0.68864   0.47082   0.83541   0.00000  Uiso   1.00
H1244  H     0.98039   0.42749   0.84371   0.00000  Uiso   1.00
H1245  H     0.95680   0.48367   0.81843   0.00000  Uiso   1.00
H1246  H     0.96059   0.43668   0.78394   0.00000  Uiso   1.00
H1247  H     0.93221   0.38864   0.69076   0.00000  Uiso   1.00
H1248  H     0.81431   0.57799   0.64043   0.00000  Uiso   1.00
H1249  H     0.92643   0.35368   0.60267   0.00000  Uiso   1.00
H1250  H     0.72447   0.62596   0.94210   0.00000  Uiso   1.00
H1251  H     0.68276   0.58242   0.94006   0.00000  Uiso   1.00
H1252  H     0.67413   0.62382   0.97965   0.00000  Uiso   1.00
H1253  H     0.89718   0.39150   0.52844   0.00000  Uiso   1.00
H1254  H     0.68920   0.56121   0.50268   0.00000  Uiso   1.00
H1255  H     0.72988   0.60466   0.50513   0.00000  Uiso   1.00
H1256  H     0.76335   0.38692   0.96436   0.00000  Uiso   1.00
H1257  H     0.76045   0.42984   0.93815   0.00000  Uiso   1.00
H1258  H     0.77060   0.37959   0.91162   0.00000  Uiso   1.00
H1259  H     0.83902   0.42781   0.90133   0.00000  Uiso   1.00
H1260  H     0.83973   0.38398   0.92405   0.00000  Uiso   1.00
H1261  H     0.68244   0.52582   0.71668   0.00000  Uiso   1.00
H1262  H     0.79265   0.66508   0.78388   0.00000  Uiso   1.00
H1263  H     0.87173   0.39364   0.97306   0.00000  Uiso   1.00
H1264  H     0.75076   0.56525   0.90366   0.00000  Uiso   1.00
H1265  H     0.84779   0.49261   0.90520   0.00000  Uiso   1.00
H1266  H     0.77115   0.51895   0.57579   0.00000  Uiso   1.00
H1267  H     0.69246   0.42382   0.80094   0.00000  Uiso   1.00
O1268  O     0.83333   0.50000   0.75000   0.00000  Uiso   1.00
O1269  O     0.82360   0.45726   0.66625   0.00000  Uiso   1.00
O1270  O     0.79354   0.53979   0.83749   0.00000  Uiso   1.00
O1271  O     0.87755   0.50826   0.65877   0.00000  Uiso   1.00
O1272  O     0.83865   0.49468   0.83749   0.00000  Uiso   1.00
O1273  O     0.89925   0.65353   0.67443   0.00000  Uiso   1.00
O1274  O     0.90679   0.38049   0.71360   0.00000  Uiso   1.00
O1275  O     0.85452   0.56389   0.57285   0.00000  Uiso   1.00
O1276  O     0.81612   0.54686   0.63399   0.00000  Uiso   1.00
O1277  O     0.91477   0.42334   0.63171   0.00000  Uiso   1.00
O1278  O     0.91105   0.36680   0.58714   0.00000  Uiso   1.00
O1279  O     0.84515   0.41434   0.77820   0.00000  Uiso   1.00
O1280  O     0.81247   0.59469   0.76767   0.00000  Uiso   1.00
O1281  O     0.74119   0.46584   0.73607   0.00000  Uiso   1.00
O1282  O     0.93452   0.52512   0.71806   0.00000  Uiso   1.00
O1283  O     0.73656   0.52293   0.77820   0.00000  Uiso   1.00
O1284  O     0.92106   0.48610   0.76768   0.00000  Uiso   1.00
O1285  O     0.80467   0.40236   0.73607   0.00000  Uiso   1.00
O1286  O     0.87104   0.58860   0.71805   0.00000  Uiso   1.00
Zn1287 Zn    0.85910   0.47423   0.78277   0.00000  Uiso   1.00
Zn1288 Zn    0.80125   0.45711   0.72257   0.00000  Uiso   1.00
Zn1289 Zn    0.87833   0.52997   0.71188   0.00000  Uiso   1.00
Zn1290 Zn    0.79465   0.53868   0.78277   0.00000  Uiso   1.00
C1291  C     0.05300   0.82705   0.75796   0.00000  Uiso   1.00
C1292  C     0.16956   0.77413   0.96497   0.00000  Uiso   1.00
C1293  C     0.19130   0.75575   0.98580   0.00000  Uiso   1.00
C1294  C     0.28093   0.83993   0.74155   0.00000  Uiso   1.00
C1295  C     0.19395   0.77247   0.52357   0.00000  Uiso   1.00
C1296  C     0.17350   0.80806   0.54236   0.00000  Uiso   1.00
C1297  C     0.21517   0.75219   0.54334   0.00000  Uiso   1.00
C1298  C     0.21536   0.76554   0.58247   0.00000  Uiso   1.00
C1299  C     0.17915   0.82548   0.57992   0.00000  Uiso   1.00
C1300  C     0.32632   0.84158   0.73930   0.00000  Uiso   1.00
C1301  C     0.00741   0.82245   0.76383   0.00000  Uiso   1.00
C1302  C     0.09876   0.88295   0.92047   0.00000  Uiso   1.00
C1303  C     0.18208   0.98907   0.73701   0.00000  Uiso   1.00
C1304  C     0.15291   0.67883   0.76168   0.00000  Uiso   1.00
C1305  C     0.15534   0.72290   0.75954   0.00000  Uiso   1.00
C1306  C     0.17689   0.94431   0.74093   0.00000  Uiso   1.00
C1307  C     0.18806   0.81190   0.64397   0.00000  Uiso   1.00
C1308  C     0.14540   0.85427   0.85628   0.00000  Uiso   1.00
C1309  C     0.13242   0.85959   0.89985   0.00000  Uiso   1.00
C1310  C     0.19633   0.80202   0.60111   0.00000  Uiso   1.00
C1311  C     0.08465   0.88661   0.96207   0.00000  Uiso   1.00
C1312  C     0.31253   0.79684   0.79694   0.00000  Uiso   1.00
C1313  C     0.15182   0.83904   0.92077   0.00000  Uiso   1.00
C1314  C     0.00361   0.77872   0.82058   0.00000  Uiso   1.00
C1315  C     0.21942   0.67396   0.70615   0.00000  Uiso   1.00
C1316  C     0.17281   0.86981   0.59498   0.00000  Uiso   1.00
C1317  C     0.23656   0.74106   0.60249   0.00000  Uiso   1.00
C1318  C     0.04988   0.91429   0.98470   0.00000  Uiso   1.00
C1319  C     0.03191   0.93795   0.95978   0.00000  Uiso   1.00
C1320  C     0.15864   0.74715   0.92949   0.00000  Uiso   1.00
C1321  C     0.11027   0.73534   0.93648   0.00000  Uiso   1.00
C1322  C     0.13525   0.83732   0.96156   0.00000  Uiso   1.00
C1323  C     0.10365   0.86384   0.98278   0.00000  Uiso   1.00
C1324  C     0.15191   0.81225   0.98216   0.00000  Uiso   1.00
C1325  C     0.14781   0.82431   0.52296   0.00000  Uiso   1.00
C1326  C     0.11481   0.84874   0.54387   0.00000  Uiso   1.00
C1327  C     0.09234   0.86716   0.52425   0.00000  Uiso   1.00
H1328  H     0.06729   0.88532   0.54214   0.00000  Uiso   1.00
H1329  H     0.02197   0.80415   0.83541   0.00000  Uiso   1.00
H1330  H     0.31372   0.76082   0.84371   0.00000  Uiso   1.00
H1331  H     0.29013   0.81700   0.81843   0.00000  Uiso   1.00
H1332  H     0.29392   0.77001   0.78394   0.00000  Uiso   1.00
H1333  H     0.26555   0.72197   0.69076   0.00000  Uiso   1.00
H1334  H     0.14764   0.91132   0.64043   0.00000  Uiso   1.00
H1335  H     0.25977   0.68702   0.60267   0.00000  Uiso   1.00
H1336  H     0.05780   0.95929   0.94210   0.00000  Uiso   1.00
H1337  H     0.01610   0.91575   0.94006   0.00000  Uiso   1.00
H1338  H     0.00746   0.95715   0.97965   0.00000  Uiso   1.00
H1339  H     0.23051   0.72483   0.52844   0.00000  Uiso   1.00
H1340  H     0.02253   0.89455   0.50268   0.00000  Uiso   1.00
H1341  H     0.06321   0.93799   0.50513   0.00000  Uiso   1.00
H1342  H     0.09669   0.72025   0.96436   0.00000  Uiso   1.00
H1343  H     0.09378   0.76317   0.93815   0.00000  Uiso   1.00
H1344  H     0.10393   0.71292   0.91162   0.00000  Uiso   1.00
H1345  H     0.17236   0.76114   0.90133   0.00000  Uiso   1.00
H1346  H     0.17306   0.71731   0.92405   0.00000  Uiso   1.00
H1347  H     0.01577   0.85915   0.71668   0.00000  Uiso   1.00
H1348  H     0.12598   0.99841   0.78388   0.00000  Uiso   1.00
H1349  H     0.20506   0.72698   0.97306   0.00000  Uiso   1.00
H1350  H     0.08409   0.89859   0.90366   0.00000  Uiso   1.00
H1351  H     0.18113   0.82595   0.90520   0.00000  Uiso   1.00
H1352  H     0.10449   0.85228   0.57579   0.00000  Uiso   1.00
H1353  H     0.02580   0.75715   0.80094   0.00000  Uiso   1.00
O1354  O     0.16667   0.83333   0.75000   0.00000  Uiso   1.00
O1355  O     0.15693   0.79060   0.66625   0.00000  Uiso   1.00
O1356  O     0.12687   0.87313   0.83749   0.00000  Uiso   1.00
O1357  O     0.21088   0.84159   0.65877   0.00000  Uiso   1.00
O1358  O     0.17198   0.82802   0.83749   0.00000  Uiso   1.00
O1359  O     0.23258   0.98686   0.67443   0.00000  Uiso   1.00
O1360  O     0.24013   0.71383   0.71360   0.00000  Uiso   1.00
O1361  O     0.18786   0.89722   0.57285   0.00000  Uiso   1.00
O1362  O     0.14945   0.88020   0.63399   0.00000  Uiso   1.00
O1363  O     0.24811   0.75667   0.63171   0.00000  Uiso   1.00
O1364  O     0.24438   0.70013   0.58714   0.00000  Uiso   1.00
O1365  O     0.17849   0.74768   0.77820   0.00000  Uiso   1.00
O1366  O     0.14581   0.92803   0.76767   0.00000  Uiso   1.00
O1367  O     0.07452   0.79917   0.73607   0.00000  Uiso   1.00
O1368  O     0.26785   0.85845   0.71806   0.00000  Uiso   1.00
O1369  O     0.06990   0.85627   0.77820   0.00000  Uiso   1.00
O1370  O     0.25440   0.81944   0.76768   0.00000  Uiso   1.00
O1371  O     0.13800   0.73570   0.73607   0.00000  Uiso   1.00
O1372  O     0.20437   0.92193   0.71805   0.00000  Uiso   1.00
Zn1373 Zn    0.19244   0.80756   0.78277   0.00000  Uiso   1.00
Zn1374 Zn    0.13459   0.79044   0.72257   0.00000  Uiso   1.00
Zn1375 Zn    0.21166   0.86331   0.71188   0.00000  Uiso   1.00
Zn1376 Zn    0.12798   0.87202   0.78277   0.00000  Uiso   1.00
C1377  C     0.38633   0.82705   0.75796   0.00000  Uiso   1.00
C1378  C     0.50289   0.77413   0.96497   0.00000  Uiso   1.00
C1379  C     0.52463   0.75575   0.98580   0.00000  Uiso   1.00
C1380  C     0.61426   0.83993   0.74155   0.00000  Uiso   1.00
C1381  C     0.52728   0.77247   0.52357   0.00000  Uiso   1.00
C1382  C     0.50683   0.80806   0.54236   0.00000  Uiso   1.00
C1383  C     0.54851   0.75219   0.54334   0.00000  Uiso   1.00
C1384  C     0.54870   0.76554   0.58247   0.00000  Uiso   1.00
C1385  C     0.51249   0.82548   0.57992   0.00000  Uiso   1.00
C1386  C     0.65966   0.84158   0.73930   0.00000  Uiso   1.00
C1387  C     0.34074   0.82245   0.76383   0.00000  Uiso   1.00
C1388  C     0.43209   0.88295   0.92047   0.00000  Uiso   1.00
C1389  C     0.51542   0.98907   0.73701   0.00000  Uiso   1.00
C1390  C     0.48624   0.67883   0.76168   0.00000  Uiso   1.00
C1391  C     0.48867   0.72290   0.75954   0.00000  Uiso   1.00
C1392  C     0.51022   0.94431   0.74093   0.00000  Uiso   1.00
C1393  C     0.52139   0.81190   0.64397   0.00000  Uiso   1.00
C1394  C     0.47873   0.85427   0.85628   0.00000  Uiso   1.00
C1395  C     0.46575   0.85959   0.89985   0.00000  Uiso   1.00
C1396  C     0.52967   0.80202   0.60111   0.00000  Uiso   1.00
C1397  C     0.41798   0.88661   0.96207   0.00000  Uiso   1.00
C1398  C     0.64587   0.79684   0.79694   0.00000  Uiso   1.00
C1399  C     0.48515   0.83904   0.92077   0.00000  Uiso   1.00
C1400  C     0.33694   0.77872   0.82058   0.00000  Uiso   1.00
C1401  C     0.55275   0.67396   0.70615   0.00000  Uiso   1.00
C1402  C     0.50614   0.86981   0.59498   0.00000  Uiso   1.00
C1403  C     0.56990   0.74106   0.60249   0.00000  Uiso   1.00
C1404  C     0.38321   0.91429   0.98470   0.00000  Uiso   1.00
C1405  C     0.36524   0.93795   0.95978   0.00000  Uiso   1.00
C1406  C     0.49198   0.74715   0.92949   0.00000  Uiso   1.00
C1407  C     0.44360   0.73534   0.93648   0.00000  Uiso   1.00
C1408  C     0.46858   0.83732   0.96156   0.00000  Uiso   1.00
C1409  C     0.43699   0.86384   0.98278   0.00000  Uiso   1.00
C1410  C     0.48525   0.81225   0.98216   0.00000  Uiso   1.00
C1411  C     0.48114   0.82431   0.52296   0.00000  Uiso   1.00
C1412  C     0.44815   0.84874   0.54387   0.00000  Uiso   1.00
C1413  C     0.42567   0.86716   0.52425   0.00000  Uiso   1.00
H1414  H     0.40062   0.88532   0.54214   0.00000  Uiso   1.00
H1415  H     0.35531   0.80415   0.83541   0.00000  Uiso   1.00
H1416  H     0.64705   0.76082   0.84371   0.00000  Uiso   1.00
H1417  H     0.62347   0.81700   0.81843   0.00000  Uiso   1.00
H1418  H     0.62725   0.77001   0.78394   0.00000  Uiso   1.00
H1419  H     0.59888   0.72197   0.69076   0.00000  Uiso   1.00
H1420  H     0.48098   0.91132   0.64043   0.00000  Uiso   1.00
H1421  H     0.59310   0.68702   0.60267   0.00000  Uiso   1.00
H1422  H     0.39113   0.95929   0.94210   0.00000  Uiso   1.00
H1423  H     0.34943   0.91575   0.94006   0.00000  Uiso   1.00
H1424  H     0.34079   0.95715   0.97965   0.00000  Uiso   1.00
H1425  H     0.56385   0.72483   0.52844   0.00000  Uiso   1.00
H1426  H     0.35587   0.89455   0.50268   0.00000  Uiso   1.00
H1427  H     0.39655   0.93799   0.50513   0.00000  Uiso   1.00
H1428  H     0.43002   0.72025   0.96436   0.00000  Uiso   1.00
H1429  H     0.42712   0.76317   0.93815   0.00000  Uiso   1.00
H1430  H     0.43726   0.71292   0.91162   0.00000  Uiso   1.00
H1431  H     0.50569   0.76114   0.90133   0.00000  Uiso   1.00
H1432  H     0.50639   0.71731   0.92405   0.00000  Uiso   1.00
H1433  H     0.34910   0.85915   0.71668   0.00000  Uiso   1.00
H1434  H     0.45931   0.99841   0.78388   0.00000  Uiso   1.00
H1435  H     0.53839   0.72698   0.97306   0.00000  Uiso   1.00
H1436  H     0.41743   0.89859   0.90366   0.00000  Uiso   1.00
H1437  H     0.51446   0.82595   0.90520   0.00000  Uiso   1.00
H1438  H     0.43782   0.85228   0.57579   0.00000  Uiso   1.00
H1439  H     0.35913   0.75715   0.80094   0.00000  Uiso   1.00
O1440  O     0.50000   0.83333   0.75000   0.00000  Uiso   1.00
O1441  O     0.49027   0.79060   0.66625   0.00000  Uiso   1.00
O1442  O     0.46020   0.87313   0.83749   0.00000  Uiso   1.00
O1443  O     0.54421   0.84159   0.65877   0.00000  Uiso   1.00
O1444  O     0.50532   0.82802   0.83749   0.00000  Uiso   1.00
O1445  O     0.56591   0.98686   0.67443   0.00000  Uiso   1.00
O1446  O     0.57346   0.71383   0.71360   0.00000  Uiso   1.00
O1447  O     0.52119   0.89722   0.57285   0.00000  Uiso   1.00
O1448  O     0.48279   0.88020   0.63399   0.00000  Uiso   1.00
O1449  O     0.58144   0.75667   0.63171   0.00000  Uiso   1.00
O1450  O     0.57772   0.70013   0.58714   0.00000  Uiso   1.00
O1451  O     0.51182   0.74768   0.77820   0.00000  Uiso   1.00
O1452  O     0.47914   0.92803   0.76767   0.00000  Uiso   1.00
O1453  O     0.40785   0.79917   0.73607   0.00000  Uiso   1.00
O1454  O     0.60119   0.85845   0.71806   0.00000  Uiso   1.00
O1455  O     0.40323   0.85627   0.77820   0.00000  Uiso   1.00
O1456  O     0.58773   0.81944   0.76768   0.00000  Uiso   1.00
O1457  O     0.47133   0.73570   0.73607   0.00000  Uiso   1.00
O1458  O     0.53771   0.92193   0.71805   0.00000  Uiso   1.00
Zn1459 Zn    0.52577   0.80756   0.78277   0.00000  Uiso   1.00
Zn1460 Zn    0.46792   0.79044   0.72257   0.00000  Uiso   1.00
Zn1461 Zn    0.54500   0.86331   0.71188   0.00000  Uiso   1.00
Zn1462 Zn    0.46131   0.87202   0.78277   0.00000  Uiso   1.00
C1463  C     0.71967   0.82705   0.75796   0.00000  Uiso   1.00
C1464  C     0.83623   0.77413   0.96497   0.00000  Uiso   1.00
C1465  C     0.85797   0.75575   0.98580   0.00000  Uiso   1.00
C1466  C     0.94759   0.83993   0.74155   0.00000  Uiso   1.00
C1467  C     0.86062   0.77247   0.52357   0.00000  Uiso   1.00
C1468  C     0.84016   0.80806   0.54236   0.00000  Uiso   1.00
C1469  C     0.88184   0.75219   0.54334   0.00000  Uiso   1.00
C1470  C     0.88203   0.76554   0.58247   0.00000  Uiso   1.00
C1471  C     0.84582   0.82548   0.57992   0.00000  Uiso   1.00
C1472  C     0.99299   0.84158   0.73930   0.00000  Uiso   1.00
C1473  C     0.67408   0.82245   0.76383   0.00000  Uiso   1.00
C1474  C     0.76542   0.88295   0.92047   0.00000  Uiso   1.00
C1475  C     0.84875   0.98907   0.73701   0.00000  Uiso   1.00
C1476  C     0.81957   0.67883   0.76168   0.00000  Uiso   1.00
C1477  C     0.82200   0.72290   0.75954   0.00000  Uiso   1.00
C1478  C     0.84356   0.94431   0.74093   0.00000  Uiso   1.00
C1479  C     0.85473   0.81190   0.64397   0.00000  Uiso   1.00
C1480  C     0.81206   0.85427   0.85628   0.00000  Uiso   1.00
C1481  C     0.79909   0.85959   0.89985   0.00000  Uiso   1.00
C1482  C     0.86300   0.80202   0.60111   0.00000  Uiso   1.00
C1483  C     0.75131   0.88661   0.96207   0.00000  Uiso   1.00
C1484  C     0.97920   0.79684   0.79694   0.00000  Uiso   1.00
C1485  C     0.81849   0.83904   0.92077   0.00000  Uiso   1.00
C1486  C     0.67027   0.77872   0.82058   0.00000  Uiso   1.00
C1487  C     0.88608   0.67396   0.70615   0.00000  Uiso   1.00
C1488  C     0.83947   0.86981   0.59498   0.00000  Uiso   1.00
C1489  C     0.90323   0.74106   0.60249   0.00000  Uiso   1.00
C1490  C     0.71655   0.91429   0.98470   0.00000  Uiso   1.00
C1491  C     0.69858   0.93795   0.95978   0.00000  Uiso   1.00
C1492  C     0.82531   0.74715   0.92949   0.00000  Uiso   1.00
C1493  C     0.77694   0.73534   0.93648   0.00000  Uiso   1.00
C1494  C     0.80192   0.83732   0.96156   0.00000  Uiso   1.00
C1495  C     0.77032   0.86384   0.98278   0.00000  Uiso   1.00
C1496  C     0.81858   0.81225   0.98216   0.00000  Uiso   1.00
C1497  C     0.81448   0.82431   0.52296   0.00000  Uiso   1.00
C1498  C     0.78148   0.84874   0.54387   0.00000  Uiso   1.00
C1499  C     0.75901   0.86716   0.52425   0.00000  Uiso   1.00
H1500  H     0.73396   0.88532   0.54214   0.00000  Uiso   1.00
H1501  H     0.68864   0.80415   0.83541   0.00000  Uiso   1.00
H1502  H     0.98039   0.76082   0.84371   0.00000  Uiso   1.00
H1503  H     0.95680   0.81700   0.81843   0.00000  Uiso   1.00
H1504  H     0.96059   0.77001   0.78394   0.00000  Uiso   1.00
H1505  H     0.93221   0.72197   0.69076   0.00000  Uiso   1.00
H1506  H     0.81431   0.91132   0.64043   0.00000  Uiso   1.00
H1507  H     0.92643   0.68702   0.60267   0.00000  Uiso   1.00
H1508  H     0.72447   0.95929   0.94210   0.00000  Uiso   1.00
H1509  H     0.68276   0.91575   0.94006   0.00000  Uiso   1.00
H1510  H     0.67413   0.95715   0.97965   0.00000  Uiso   1.00
H1511  H     0.89718   0.72483   0.52844   0.00000  Uiso   1.00
H1512  H     0.68920   0.89455   0.50268   0.00000  Uiso   1.00
H1513  H     0.72988   0.93799   0.50513   0.00000  Uiso   1.00
H1514  H     0.76335   0.72025   0.96436   0.00000  Uiso   1.00
H1515  H     0.76045   0.76317   0.93815   0.00000  Uiso   1.00
H1516  H     0.77060   0.71292   0.91162   0.00000  Uiso   1.00
H1517  H     0.83902   0.76114   0.90133   0.00000  Uiso   1.00
H1518  H     0.83973   0.71731   0.92405   0.00000  Uiso   1.00
H1519  H     0.68244   0.85915   0.71668   0.00000  Uiso   1.00
H1520  H     0.79265   0.99841   0.78388   0.00000  Uiso   1.00
H1521  H     0.87173   0.72698   0.97306   0.00000  Uiso   1.00
H1522  H     0.75076   0.89859   0.90366   0.00000  Uiso   1.00
H1523  H     0.84779   0.82595   0.90520   0.00000  Uiso   1.00
H1524  H     0.77115   0.85228   0.57579   0.00000  Uiso   1.00
H1525  H     0.69246   0.75715   0.80094   0.00000  Uiso   1.00
O1526  O     0.83333   0.83333   0.75000   0.00000  Uiso   1.00
O1527  O     0.82360   0.79060   0.66625   0.00000  Uiso   1.00
O1528  O     0.79354   0.87313   0.83749   0.00000  Uiso   1.00
O1529  O     0.87755   0.84159   0.65877   0.00000  Uiso   1.00
O1530  O     0.83865   0.82802   0.83749   0.00000  Uiso   1.00
O1531  O     0.89925   0.98686   0.67443   0.00000  Uiso   1.00
O1532  O     0.90679   0.71383   0.71360   0.00000  Uiso   1.00
O1533  O     0.85452   0.89722   0.57285   0.00000  Uiso   1.00
O1534  O     0.81612   0.88020   0.63399   0.00000  Uiso   1.00
O1535  O     0.91477   0.75667   0.63171   0.00000  Uiso   1.00
O1536  O     0.91105   0.70013   0.58714   0.00000  Uiso   1.00
O1537  O     0.84515   0.74768   0.77820   0.00000  Uiso   1.00
O1538  O     0.81247   0.92803   0.76767   0.00000  Uiso   1.00
O1539  O     0.74119   0.79917   0.73607   0.00000  Uiso   1.00
O1540  O     0.93452   0.85845   0.71806   0.00000  Uiso   1.00
O1541  O     0.73656   0.85627   0.77820   0.00000  Uiso   1.00
O1542  O     0.92106   0.81944   0.76768   0.00000  Uiso   1.00
O1543  O     0.80467   0.73570   0.73607   0.00000  Uiso   1.00
O1544  O     0.87104   0.92193   0.71805   0.00000  Uiso   1.00
Zn1545 Zn    0.85910   0.80756   0.78277   0.00000  Uiso   1.00
Zn1546 Zn    0.80125   0.79044   0.72257   0.00000  Uiso   1.00
Zn1547 Zn    0.87833   0.86331   0.71188   0.00000  Uiso   1.00
Zn1548 Zn    0.79465   0.87202   0.78277   0.00000  Uiso   1.00
loop_
_geom_bond_atom_site_label_1
_geom_bond_atom_site_label_2
_geom_bond_distance
_geom_bond_site_symmetry_2
_ccdc_geom_bond_type
C1     C11     1.435   .     S
C1     O77     1.267   .     A
C1     O79     1.267   .     A
C2     C34     1.431   .     A
C2     C30     1.529   .     S
C2     C3      1.400   .     A
C3     H59     1.085   .     S
C3     C779    1.396   .     S
C4     O80     1.263   .     A
C4     O78     1.289   .     A
C4     C10     1.459   .     S
C5     C6      1.413   .     A
C5     C7      1.398   .     A
C5     C777    1.396   1_554 S
C6     C9      1.425   .     A
C6     C35     1.423   .     A
C7     C8      1.397   .     A
C7     H49     1.085   .     S
C8     C20     1.416   .     A
C8     C27     1.492   .     S
C9     C26     1.491   .     S
C9     C20     1.412   .     A
C10    C97     1.357   .     S
C10    H143    1.088   .     S
C11    C182    1.357   1_455 S
C11    C194    1.532   1_455 S
C12    C21     1.408   .     A
C12    C19     1.401   .     A
C12    H60     1.080   .     S
C13    C16     1.462   .     S
C13    C272    1.341   .     S
C13    C283    1.497   .     S
C14    C15     1.436   .     S
C14    C529    1.341   1_545 S
C14    H574    1.086   1_545 S
C15    O75     1.272   .     A
C15    O81     1.275   .     A
C16    O82     1.270   .     A
C16    O76     1.281   .     A
C17    C20     1.464   .     S
C17    O67     1.279   .     A
C17    O65     1.274   .     A
C18    O68     1.291   .     A
C18    C19     1.474   .     S
C18    O66     1.282   .     A
C19    C23     1.391   .     A
C21    C33     1.424   .     A
C21    C28     1.529   .     S
C22    H41     1.112   .     S
C22    H42     1.112   .     S
C22    C97     1.532   .     S
C22    C110    1.533   .     S
C23    C32     1.398   .     A
C23    H61     1.078   .     S
C24    H39     1.111   .     S
C24    H63     1.111   .     S
C24    C194    1.533   1_455 S
C24    H212    1.111   1_455 S
C25    O70     1.399   .     S
C25    C529    1.497   1_545 S
C25    O585    1.223   1_545 S
C26    O72     1.399   .     S
C26    O71     1.223   .     D
C27    O74     1.399   .     S
C27    O73     1.223   .     D
C28    C29     1.531   .     S
C28    H824    1.112   .     S
C28    H825    1.112   .     S
C29    H47     1.111   .     S
C29    H48     1.111   .     S
C29    H46     1.111   .     S
C30    C31     1.529   .     S
C30    H56     1.112   .     S
C30    H55     1.102   .     S
C31    H52     1.111   .     S
C31    H53     1.109   .     S
C31    H54     1.111   .     S
C32    C34     1.423   .     A
C32    C33     1.423   .     A
C33    C811    1.403   .     S
C34    C809    1.419   .     S
C35    C36     1.409   .     A
C35    C808    1.419   1_554 S
C36    C37     1.388   .     A
C36    H62     1.080   .     S
C37    H38     1.081   .     S
C37    C807    1.403   1_554 S
H40    C110    1.111   .     S
H43    O70     1.014   .     S
H44    O72     1.014   .     S
H45    O74     1.014   .     S
H50    C802    1.112   1_554 S
H51    C802    1.112   1_554 S
H57    C182    1.088   1_455 S
H58    C272    1.086   .     S
O64    Zn84    1.941   .     S
O64    Zn86    1.942   .     S
O64    Zn83    1.952   .     S
O64    Zn85    1.936   .     S
O65    Zn84    1.922   .     S
O66    Zn86    1.926   .     S
O67    Zn85    1.924   .     S
O68    Zn83    1.921   .     S
O69    C283    1.223   .     S
O75    Zn83    1.929   .     S
O76    Zn86    1.930   .     S
O77    Zn84    1.942   .     S
O78    Zn85    1.945   .     S
O79    Zn86    1.941   .     S
O80    Zn83    1.937   .     S
O81    Zn84    1.935   .     S
O82    Zn85    1.933   .     S
C87    C97     1.435   .     S
C87    O163    1.267   .     A
C87    O165    1.267   .     A
C88    C120    1.431   .     A
C88    C116    1.529   .     S
C88    C89     1.400   .     A
C89    H145    1.085   .     S
C89    C865    1.396   .     S
C90    O166    1.263   .     A
C90    O164    1.289   .     A
C90    C96     1.459   .     S
C91    C92     1.413   .     A
C91    C93     1.398   .     A
C91    C863    1.396   1_554 S
C92    C95     1.425   .     A
C92    C121    1.423   .     A
C93    C94     1.397   .     A
C93    H135    1.085   .     S
C94    C106    1.416   .     A
C94    C113    1.492   .     S
C95    C112    1.491   .     S
C95    C106    1.412   .     A
C96    C183    1.357   .     S
C96    H229    1.088   .     S
C98    C107    1.408   .     A
C98    C105    1.401   .     A
C98    H146    1.080   .     S
C99    C102    1.462   .     S
C99    C358    1.341   .     S
C99    C369    1.497   .     S
C100   C101    1.436   .     S
C100   C615    1.341   1_545 S
C100   H660    1.086   1_545 S
C101   O161    1.272   .     A
C101   O167    1.275   .     A
C102   O168    1.270   .     A
C102   O162    1.281   .     A
C103   C106    1.464   .     S
C103   O153    1.279   .     A
C103   O151    1.274   .     A
C104   O154    1.291   .     A
C104   C105    1.474   .     S
C104   O152    1.282   .     A
C105   C109    1.391   .     A
C107   C119    1.424   .     A
C107   C114    1.529   .     S
C108   H127    1.112   .     S
C108   H128    1.112   .     S
C108   C183    1.532   .     S
C108   C196    1.533   .     S
C109   C118    1.398   .     A
C109   H147    1.078   .     S
C110   H125    1.111   .     S
C110   H149    1.111   .     S
C111   O156    1.399   .     S
C111   C615    1.497   1_545 S
C111   O671    1.223   1_545 S
C112   O158    1.399   .     S
C112   O157    1.223   .     D
C113   O160    1.399   .     S
C113   O159    1.223   .     D
C114   C115    1.531   .     S
C114   H910    1.112   .     S
C114   H911    1.112   .     S
C115   H133    1.111   .     S
C115   H134    1.111   .     S
C115   H132    1.111   .     S
C116   C117    1.529   .     S
C116   H142    1.112   .     S
C116   H141    1.102   .     S
C117   H138    1.111   .     S
C117   H139    1.109   .     S
C117   H140    1.111   .     S
C118   C120    1.423   .     A
C118   C119    1.423   .     A
C119   C897    1.403   .     S
C120   C895    1.419   .     S
C121   C122    1.409   .     A
C121   C894    1.419   1_554 S
C122   C123    1.388   .     A
C122   H148    1.080   .     S
C123   H124    1.081   .     S
C123   C893    1.403   1_554 S
H126   C196    1.111   .     S
H129   O156    1.014   .     S
H130   O158    1.014   .     S
H131   O160    1.014   .     S
H136   C888    1.112   1_554 S
H137   C888    1.112   1_554 S
H144   C358    1.086   .     S
O150   Zn170   1.941   .     S
O150   Zn172   1.942   .     S
O150   Zn169   1.952   .     S
O150   Zn171   1.936   .     S
O151   Zn170   1.922   .     S
O152   Zn172   1.926   .     S
O153   Zn171   1.924   .     S
O154   Zn169   1.921   .     S
O155   C369    1.223   .     S
O161   Zn169   1.929   .     S
O162   Zn172   1.930   .     S
O163   Zn170   1.942   .     S
O164   Zn171   1.945   .     S
O165   Zn172   1.941   .     S
O166   Zn169   1.937   .     S
O167   Zn170   1.935   .     S
O168   Zn171   1.933   .     S
C173   C183    1.435   .     S
C173   O249    1.267   .     A
C173   O251    1.267   .     A
C174   C206    1.431   .     A
C174   C202    1.529   .     S
C174   C175    1.400   .     A
C175   H231    1.085   .     S
C175   C951    1.396   .     S
C176   O252    1.263   .     A
C176   O250    1.289   .     A
C176   C182    1.459   .     S
C177   C178    1.413   .     A
C177   C179    1.398   .     A
C177   C949    1.396   1_554 S
C178   C181    1.425   .     A
C178   C207    1.423   .     A
C179   C180    1.397   .     A
C179   H221    1.085   .     S
C180   C192    1.416   .     A
C180   C199    1.492   .     S
C181   C198    1.491   .     S
C181   C192    1.412   .     A
C182   C11     1.357   1_655 S
C182   H57     1.088   1_655 S
C184   C193    1.408   .     A
C184   C191    1.401   .     A
C184   H232    1.080   .     S
C185   C188    1.462   .     S
C185   C444    1.341   .     S
C185   C455    1.497   .     S
C186   C187    1.436   .     S
C186   C701    1.341   1_545 S
C186   H746    1.086   1_545 S
C187   O247    1.272   .     A
C187   O253    1.275   .     A
C188   O254    1.270   .     A
C188   O248    1.281   .     A
C189   C192    1.464   .     S
C189   O239    1.279   .     A
C189   O237    1.274   .     A
C190   O240    1.291   .     A
C190   C191    1.474   .     S
C190   O238    1.282   .     A
C191   C195    1.391   .     A
C193   C205    1.424   .     A
C193   C200    1.529   .     S
C194   H213    1.112   .     S
C194   H214    1.112   .     S
C194   C11     1.532   1_655 S
C194   C24     1.533   1_655 S
C195   C204    1.398   .     A
C195   H233    1.078   .     S
C196   H211    1.111   .     S
C196   H235    1.111   .     S
C197   O242    1.399   .     S
C197   C701    1.497   1_545 S
C197   O757    1.223   1_545 S
C198   O244    1.399   .     S
C198   O243    1.223   .     D
C199   O246    1.399   .     S
C199   O245    1.223   .     D
C200   C201    1.531   .     S
C200   H996    1.112   .     S
C200   H997    1.112   .     S
C201   H219    1.111   .     S
C201   H220    1.111   .     S
C201   H218    1.111   .     S
C202   C203    1.529   .     S
C202   H228    1.112   .     S
C202   H227    1.102   .     S
C203   H224    1.111   .     S
C203   H225    1.109   .     S
C203   H226    1.111   .     S
C204   C206    1.423   .     A
C204   C205    1.423   .     A
C205   C983    1.403   .     S
C206   C981    1.419   .     S
C207   C208    1.409   .     A
C207   C980    1.419   1_554 S
C208   C209    1.388   .     A
C208   H234    1.080   .     S
C209   H210    1.081   .     S
C209   C979    1.403   1_554 S
H212   C24     1.111   1_655 S
H215   O242    1.014   .     S
H216   O244    1.014   .     S
H217   O246    1.014   .     S
H222   C974    1.112   1_554 S
H223   C974    1.112   1_554 S
H230   C444    1.086   .     S
O236   Zn256   1.941   .     S
O236   Zn258   1.942   .     S
O236   Zn255   1.952   .     S
O236   Zn257   1.936   .     S
O237   Zn256   1.922   .     S
O238   Zn258   1.926   .     S
O239   Zn257   1.924   .     S
O240   Zn255   1.921   .     S
O241   C455    1.223   .     S
O247   Zn255   1.929   .     S
O248   Zn258   1.930   .     S
O249   Zn256   1.942   .     S
O250   Zn257   1.945   .     S
O251   Zn258   1.941   .     S
O252   Zn255   1.937   .     S
O253   Zn256   1.935   .     S
O254   Zn257   1.933   .     S
C259   C269    1.435   .     S
C259   O335    1.267   .     A
C259   O337    1.267   .     A
C260   C292    1.431   .     A
C260   C288    1.529   .     S
C260   C261    1.400   .     A
C261   H317    1.085   .     S
C261   C1037   1.396   .     S
C262   O338    1.263   .     A
C262   O336    1.289   .     A
C262   C268    1.459   .     S
C263   C264    1.413   .     A
C263   C265    1.398   .     A
C263   C1035   1.396   1_554 S
C264   C267    1.425   .     A
C264   C293    1.423   .     A
C265   C266    1.397   .     A
C265   H307    1.085   .     S
C266   C278    1.416   .     A
C266   C285    1.492   .     S
C267   C284    1.491   .     S
C267   C278    1.412   .     A
C268   C355    1.357   .     S
C268   H401    1.088   .     S
C269   C440    1.357   1_455 S
C269   C452    1.532   1_455 S
C270   C279    1.408   .     A
C270   C277    1.401   .     A
C270   H318    1.080   .     S
C271   C274    1.462   .     S
C271   C530    1.341   .     S
C271   C541    1.497   .     S
C272   C273    1.436   .     S
C273   O333    1.272   .     A
C273   O339    1.275   .     A
C274   O340    1.270   .     A
C274   O334    1.281   .     A
C275   C278    1.464   .     S
C275   O325    1.279   .     A
C275   O323    1.274   .     A
C276   O326    1.291   .     A
C276   C277    1.474   .     S
C276   O324    1.282   .     A
C277   C281    1.391   .     A
C279   C291    1.424   .     A
C279   C286    1.529   .     S
C280   H299    1.112   .     S
C280   H300    1.112   .     S
C280   C355    1.532   .     S
C280   C368    1.533   .     S
C281   C290    1.398   .     A
C281   H319    1.078   .     S
C282   H297    1.111   .     S
C282   H321    1.111   .     S
C282   C452    1.533   1_455 S
C282   H470    1.111   1_455 S
C283   O328    1.399   .     S
C284   O330    1.399   .     S
C284   O329    1.223   .     D
C285   O332    1.399   .     S
C285   O331    1.223   .     D
C286   C287    1.531   .     S
C286   H1082   1.112   .     S
C286   H1083   1.112   .     S
C287   H305    1.111   .     S
C287   H306    1.111   .     S
C287   H304    1.111   .     S
C288   C289    1.529   .     S
C288   H314    1.112   .     S
C288   H313    1.102   .     S
C289   H310    1.111   .     S
C289   H311    1.109   .     S
C289   H312    1.111   .     S
C290   C292    1.423   .     A
C290   C291    1.423   .     A
C291   C1069   1.403   .     S
C292   C1067   1.419   .     S
C293   C294    1.409   .     A
C293   C1066   1.419   1_554 S
C294   C295    1.388   .     A
C294   H320    1.080   .     S
C295   H296    1.081   .     S
C295   C1065   1.403   1_554 S
H298   C368    1.111   .     S
H301   O328    1.014   .     S
H302   O330    1.014   .     S
H303   O332    1.014   .     S
H308   C1060   1.112   1_554 S
H309   C1060   1.112   1_554 S
H315   C440    1.088   1_455 S
H316   C530    1.086   .     S
O322   Zn342   1.941   .     S
O322   Zn344   1.942   .     S
O322   Zn341   1.952   .     S
O322   Zn343   1.936   .     S
O323   Zn342   1.922   .     S
O324   Zn344   1.926   .     S
O325   Zn343   1.924   .     S
O326   Zn341   1.921   .     S
O327   C541    1.223   .     S
O333   Zn341   1.929   .     S
O334   Zn344   1.930   .     S
O335   Zn342   1.942   .     S
O336   Zn343   1.945   .     S
O337   Zn344   1.941   .     S
O338   Zn341   1.937   .     S
O339   Zn342   1.935   .     S
O340   Zn343   1.933   .     S
C345   C355    1.435   .     S
C345   O421    1.267   .     A
C345   O423    1.267   .     A
C346   C378    1.431   .     A
C346   C374    1.529   .     S
C346   C347    1.400   .     A
C347   H403    1.085   .     S
C347   C1123   1.396   .     S
C348   O424    1.263   .     A
C348   O422    1.289   .     A
C348   C354    1.459   .     S
C349   C350    1.413   .     A
C349   C351    1.398   .     A
C349   C1121   1.396   1_554 S
C350   C353    1.425   .     A
C350   C379    1.423   .     A
C351   C352    1.397   .     A
C351   H393    1.085   .     S
C352   C364    1.416   .     A
C352   C371    1.492   .     S
C353   C370    1.491   .     S
C353   C364    1.412   .     A
C354   C441    1.357   .     S
C354   H487    1.088   .     S
C356   C365    1.408   .     A
C356   C363    1.401   .     A
C356   H404    1.080   .     S
C357   C360    1.462   .     S
C357   C616    1.341   .     S
C357   C627    1.497   .     S
C358   C359    1.436   .     S
C359   O419    1.272   .     A
C359   O425    1.275   .     A
C360   O426    1.270   .     A
C360   O420    1.281   .     A
C361   C364    1.464   .     S
C361   O411    1.279   .     A
C361   O409    1.274   .     A
C362   O412    1.291   .     A
C362   C363    1.474   .     S
C362   O410    1.282   .     A
C363   C367    1.391   .     A
C365   C377    1.424   .     A
C365   C372    1.529   .     S
C366   H385    1.112   .     S
C366   H386    1.112   .     S
C366   C441    1.532   .     S
C366   C454    1.533   .     S
C367   C376    1.398   .     A
C367   H405    1.078   .     S
C368   H383    1.111   .     S
C368   H407    1.111   .     S
C369   O414    1.399   .     S
C370   O416    1.399   .     S
C370   O415    1.223   .     D
C371   O418    1.399   .     S
C371   O417    1.223   .     D
C372   C373    1.531   .     S
C372   H1168   1.112   .     S
C372   H1169   1.112   .     S
C373   H391    1.111   .     S
C373   H392    1.111   .     S
C373   H390    1.111   .     S
C374   C375    1.529   .     S
C374   H400    1.112   .     S
C374   H399    1.102   .     S
C375   H396    1.111   .     S
C375   H397    1.109   .     S
C375   H398    1.111   .     S
C376   C378    1.423   .     A
C376   C377    1.423   .     A
C377   C1155   1.403   .     S
C378   C1153   1.419   .     S
C379   C380    1.409   .     A
C379   C1152   1.419   1_554 S
C380   C381    1.388   .     A
C380   H406    1.080   .     S
C381   H382    1.081   .     S
C381   C1151   1.403   1_554 S
H384   C454    1.111   .     S
H387   O414    1.014   .     S
H388   O416    1.014   .     S
H389   O418    1.014   .     S
H394   C1146   1.112   1_554 S
H395   C1146   1.112   1_554 S
H402   C616    1.086   .     S
O408   Zn428   1.941   .     S
O408   Zn430   1.942   .     S
O408   Zn427   1.952   .     S
O408   Zn429   1.936   .     S
O409   Zn428   1.922   .     S
O410   Zn430   1.926   .     S
O411   Zn429   1.924   .     S
O412   Zn427   1.921   .     S
O413   C627    1.223   .     S
O419   Zn427   1.929   .     S
O420   Zn430   1.930   .     S
O421   Zn428   1.942   .     S
O422   Zn429   1.945   .     S
O423   Zn430   1.941   .     S
O424   Zn427   1.937   .     S
O425   Zn428   1.935   .     S
O426   Zn429   1.933   .     S
C431   C441    1.435   .     S
C431   O507    1.267   .     A
C431   O509    1.267   .     A
C432   C464    1.431   .     A
C432   C460    1.529   .     S
C432   C433    1.400   .     A
C433   H489    1.085   .     S
C433   C1209   1.396   .     S
C434   O510    1.263   .     A
C434   O508    1.289   .     A
C434   C440    1.459   .     S
C435   C436    1.413   .     A
C435   C437    1.398   .     A
C435   C1207   1.396   1_554 S
C436   C439    1.425   .     A
C436   C465    1.423   .     A
C437   C438    1.397   .     A
C437   H479    1.085   .     S
C438   C450    1.416   .     A
C438   C457    1.492   .     S
C439   C456    1.491   .     S
C439   C450    1.412   .     A
C440   C269    1.357   1_655 S
C440   H315    1.088   1_655 S
C442   C451    1.408   .     A
C442   C449    1.401   .     A
C442   H490    1.080   .     S
C443   C446    1.462   .     S
C443   C702    1.341   .     S
C443   C713    1.497   .     S
C444   C445    1.436   .     S
C445   O505    1.272   .     A
C445   O511    1.275   .     A
C446   O512    1.270   .     A
C446   O506    1.281   .     A
C447   C450    1.464   .     S
C447   O497    1.279   .     A
C447   O495    1.274   .     A
C448   O498    1.291   .     A
C448   C449    1.474   .     S
C448   O496    1.282   .     A
C449   C453    1.391   .     A
C451   C463    1.424   .     A
C451   C458    1.529   .     S
C452   H471    1.112   .     S
C452   H472    1.112   .     S
C452   C269    1.532   1_655 S
C452   C282    1.533   1_655 S
C453   C462    1.398   .     A
C453   H491    1.078   .     S
C454   H469    1.111   .     S
C454   H493    1.111   .     S
C455   O500    1.399   .     S
C456   O502    1.399   .     S
C456   O501    1.223   .     D
C457   O504    1.399   .     S
C457   O503    1.223   .     D
C458   C459    1.531   .     S
C458   H1254   1.112   .     S
C458   H1255   1.112   .     S
C459   H477    1.111   .     S
C459   H478    1.111   .     S
C459   H476    1.111   .     S
C460   C461    1.529   .     S
C460   H486    1.112   .     S
C460   H485    1.102   .     S
C461   H482    1.111   .     S
C461   H483    1.109   .     S
C461   H484    1.111   .     S
C462   C464    1.423   .     A
C462   C463    1.423   .     A
C463   C1241   1.403   .     S
C464   C1239   1.419   .     S
C465   C466    1.409   .     A
C465   C1238   1.419   1_554 S
C466   C467    1.388   .     A
C466   H492    1.080   .     S
C467   H468    1.081   .     S
C467   C1237   1.403   1_554 S
H470   C282    1.111   1_655 S
H473   O500    1.014   .     S
H474   O502    1.014   .     S
H475   O504    1.014   .     S
H480   C1232   1.112   1_554 S
H481   C1232   1.112   1_554 S
H488   C702    1.086   .     S
O494   Zn514   1.941   .     S
O494   Zn516   1.942   .     S
O494   Zn513   1.952   .     S
O494   Zn515   1.936   .     S
O495   Zn514   1.922   .     S
O496   Zn516   1.926   .     S
O497   Zn515   1.924   .     S
O498   Zn513   1.921   .     S
O499   C713    1.223   .     S
O505   Zn513   1.929   .     S
O506   Zn516   1.930   .     S
O507   Zn514   1.942   .     S
O508   Zn515   1.945   .     S
O509   Zn516   1.941   .     S
O510   Zn513   1.937   .     S
O511   Zn514   1.935   .     S
O512   Zn515   1.933   .     S
C517   C527    1.435   .     S
C517   O593    1.267   .     A
C517   O595    1.267   .     A
C518   C550    1.431   .     A
C518   C546    1.529   .     S
C518   C519    1.400   .     A
C519   H575    1.085   .     S
C519   C1295   1.396   .     S
C520   O596    1.263   .     A
C520   O594    1.289   .     A
C520   C526    1.459   .     S
C521   C522    1.413   .     A
C521   C523    1.398   .     A
C521   C1293   1.396   1_554 S
C522   C525    1.425   .     A
C522   C551    1.423   .     A
C523   C524    1.397   .     A
C523   H565    1.085   .     S
C524   C536    1.416   .     A
C524   C543    1.492   .     S
C525   C542    1.491   .     S
C525   C536    1.412   .     A
C526   C613    1.357   .     S
C526   H659    1.088   .     S
C527   C698    1.357   1_455 S
C527   C710    1.532   1_455 S
C528   C537    1.408   .     A
C528   C535    1.401   .     A
C528   H576    1.080   .     S
C529   C532    1.462   .     S
C529   C14     1.341   1_565 S
C529   C25     1.497   1_565 S
C530   C531    1.436   .     S
C531   O591    1.272   .     A
C531   O597    1.275   .     A
C532   O598    1.270   .     A
C532   O592    1.281   .     A
C533   C536    1.464   .     S
C533   O583    1.279   .     A
C533   O581    1.274   .     A
C534   O584    1.291   .     A
C534   C535    1.474   .     S
C534   O582    1.282   .     A
C535   C539    1.391   .     A
C537   C549    1.424   .     A
C537   C544    1.529   .     S
C538   H557    1.112   .     S
C538   H558    1.112   .     S
C538   C613    1.532   .     S
C538   C626    1.533   .     S
C539   C548    1.398   .     A
C539   H577    1.078   .     S
C540   H555    1.111   .     S
C540   H579    1.111   .     S
C540   C710    1.533   1_455 S
C540   H728    1.111   1_455 S
C541   O586    1.399   .     S
C542   O588    1.399   .     S
C542   O587    1.223   .     D
C543   O590    1.399   .     S
C543   O589    1.223   .     D
C544   C545    1.531   .     S
C544   H1340   1.112   .     S
C544   H1341   1.112   .     S
C545   H563    1.111   .     S
C545   H564    1.111   .     S
C545   H562    1.111   .     S
C546   C547    1.529   .     S
C546   H572    1.112   .     S
C546   H571    1.102   .     S
C547   H568    1.111   .     S
C547   H569    1.109   .     S
C547   H570    1.111   .     S
C548   C550    1.423   .     A
C548   C549    1.423   .     A
C549   C1327   1.403   .     S
C550   C1325   1.419   .     S
C551   C552    1.409   .     A
C551   C1324   1.419   1_554 S
C552   C553    1.388   .     A
C552   H578    1.080   .     S
C553   H554    1.081   .     S
C553   C1323   1.403   1_554 S
H556   C626    1.111   .     S
H559   O586    1.014   .     S
H560   O588    1.014   .     S
H561   O590    1.014   .     S
H566   C1318   1.112   1_554 S
H567   C1318   1.112   1_554 S
H573   C698    1.088   1_455 S
H574   C14     1.086   1_565 S
O580   Zn600   1.941   .     S
O580   Zn602   1.942   .     S
O580   Zn599   1.952   .     S
O580   Zn601   1.936   .     S
O581   Zn600   1.922   .     S
O582   Zn602   1.926   .     S
O583   Zn601   1.924   .     S
O584   Zn599   1.921   .     S
O585   C25     1.223   1_565 S
O591   Zn599   1.929   .     S
O592   Zn602   1.930   .     S
O593   Zn600   1.942   .     S
O594   Zn601   1.945   .     S
O595   Zn602   1.941   .     S
O596   Zn599   1.937   .     S
O597   Zn600   1.935   .     S
O598   Zn601   1.933   .     S
C603   C613    1.435   .     S
C603   O679    1.267   .     A
C603   O681    1.267   .     A
C604   C636    1.431   .     A
C604   C632    1.529   .     S
C604   C605    1.400   .     A
C605   H661    1.085   .     S
C605   C1381   1.396   .     S
C606   O682    1.263   .     A
C606   O680    1.289   .     A
C606   C612    1.459   .     S
C607   C608    1.413   .     A
C607   C609    1.398   .     A
C607   C1379   1.396   1_554 S
C608   C611    1.425   .     A
C608   C637    1.423   .     A
C609   C610    1.397   .     A
C609   H651    1.085   .     S
C610   C622    1.416   .     A
C610   C629    1.492   .     S
C611   C628    1.491   .     S
C611   C622    1.412   .     A
C612   C699    1.357   .     S
C612   H745    1.088   .     S
C614   C623    1.408   .     A
C614   C621    1.401   .     A
C614   H662    1.080   .     S
C615   C618    1.462   .     S
C615   C100    1.341   1_565 S
C615   C111    1.497   1_565 S
C616   C617    1.436   .     S
C617   O677    1.272   .     A
C617   O683    1.275   .     A
C618   O684    1.270   .     A
C618   O678    1.281   .     A
C619   C622    1.464   .     S
C619   O669    1.279   .     A
C619   O667    1.274   .     A
C620   O670    1.291   .     A
C620   C621    1.474   .     S
C620   O668    1.282   .     A
C621   C625    1.391   .     A
C623   C635    1.424   .     A
C623   C630    1.529   .     S
C624   H643    1.112   .     S
C624   H644    1.112   .     S
C624   C699    1.532   .     S
C624   C712    1.533   .     S
C625   C634    1.398   .     A
C625   H663    1.078   .     S
C626   H641    1.111   .     S
C626   H665    1.111   .     S
C627   O672    1.399   .     S
C628   O674    1.399   .     S
C628   O673    1.223   .     D
C629   O676    1.399   .     S
C629   O675    1.223   .     D
C630   C631    1.531   .     S
C630   H1426   1.112   .     S
C630   H1427   1.112   .     S
C631   H649    1.111   .     S
C631   H650    1.111   .     S
C631   H648    1.111   .     S
C632   C633    1.529   .     S
C632   H658    1.112   .     S
C632   H657    1.102   .     S
C633   H654    1.111   .     S
C633   H655    1.109   .     S
C633   H656    1.111   .     S
C634   C636    1.423   .     A
C634   C635    1.423   .     A
C635   C1413   1.403   .     S
C636   C1411   1.419   .     S
C637   C638    1.409   .     A
C637   C1410   1.419   1_554 S
C638   C639    1.388   .     A
C638   H664    1.080   .     S
C639   H640    1.081   .     S
C639   C1409   1.403   1_554 S
H642   C712    1.111   .     S
H645   O672    1.014   .     S
H646   O674    1.014   .     S
H647   O676    1.014   .     S
H652   C1404   1.112   1_554 S
H653   C1404   1.112   1_554 S
H660   C100    1.086   1_565 S
O666   Zn686   1.941   .     S
O666   Zn688   1.942   .     S
O666   Zn685   1.952   .     S
O666   Zn687   1.936   .     S
O667   Zn686   1.922   .     S
O668   Zn688   1.926   .     S
O669   Zn687   1.924   .     S
O670   Zn685   1.921   .     S
O671   C111    1.223   1_565 S
O677   Zn685   1.929   .     S
O678   Zn688   1.930   .     S
O679   Zn686   1.942   .     S
O680   Zn687   1.945   .     S
O681   Zn688   1.941   .     S
O682   Zn685   1.937   .     S
O683   Zn686   1.935   .     S
O684   Zn687   1.933   .     S
C689   C699    1.435   .     S
C689   O765    1.267   .     A
C689   O767    1.267   .     A
C690   C722    1.431   .     A
C690   C718    1.529   .     S
C690   C691    1.400   .     A
C691   H747    1.085   .     S
C691   C1467   1.396   .     S
C692   O768    1.263   .     A
C692   O766    1.289   .     A
C692   C698    1.459   .     S
C693   C694    1.413   .     A
C693   C695    1.398   .     A
C693   C1465   1.396   1_554 S
C694   C697    1.425   .     A
C694   C723    1.423   .     A
C695   C696    1.397   .     A
C695   H737    1.085   .     S
C696   C708    1.416   .     A
C696   C715    1.492   .     S
C697   C714    1.491   .     S
C697   C708    1.412   .     A
C698   C527    1.357   1_655 S
C698   H573    1.088   1_655 S
C700   C709    1.408   .     A
C700   C707    1.401   .     A
C700   H748    1.080   .     S
C701   C704    1.462   .     S
C701   C186    1.341   1_565 S
C701   C197    1.497   1_565 S
C702   C703    1.436   .     S
C703   O763    1.272   .     A
C703   O769    1.275   .     A
C704   O770    1.270   .     A
C704   O764    1.281   .     A
C705   C708    1.464   .     S
C705   O755    1.279   .     A
C705   O753    1.274   .     A
C706   O756    1.291   .     A
C706   C707    1.474   .     S
C706   O754    1.282   .     A
C707   C711    1.391   .     A
C709   C721    1.424   .     A
C709   C716    1.529   .     S
C710   H729    1.112   .     S
C710   H730    1.112   .     S
C710   C527    1.532   1_655 S
C710   C540    1.533   1_655 S
C711   C720    1.398   .     A
C711   H749    1.078   .     S
C712   H727    1.111   .     S
C712   H751    1.111   .     S
C713   O758    1.399   .     S
C714   O760    1.399   .     S
C714   O759    1.223   .     D
C715   O762    1.399   .     S
C715   O761    1.223   .     D
C716   C717    1.531   .     S
C716   H1512   1.112   .     S
C716   H1513   1.112   .     S
C717   H735    1.111   .     S
C717   H736    1.111   .     S
C717   H734    1.111   .     S
C718   C719    1.529   .     S
C718   H744    1.112   .     S
C718   H743    1.102   .     S
C719   H740    1.111   .     S
C719   H741    1.109   .     S
C719   H742    1.111   .     S
C720   C722    1.423   .     A
C720   C721    1.423   .     A
C721   C1499   1.403   .     S
C722   C1497   1.419   .     S
C723   C724    1.409   .     A
C723   C1496   1.419   1_554 S
C724   C725    1.388   .     A
C724   H750    1.080   .     S
C725   H726    1.081   .     S
C725   C1495   1.403   1_554 S
H728   C540    1.111   1_655 S
H731   O758    1.014   .     S
H732   O760    1.014   .     S
H733   O762    1.014   .     S
H738   C1490   1.112   1_554 S
H739   C1490   1.112   1_554 S
H746   C186    1.086   1_565 S
O752   Zn772   1.941   .     S
O752   Zn774   1.942   .     S
O752   Zn771   1.952   .     S
O752   Zn773   1.936   .     S
O753   Zn772   1.922   .     S
O754   Zn774   1.926   .     S
O755   Zn773   1.924   .     S
O756   Zn771   1.921   .     S
O757   C197    1.223   1_565 S
O763   Zn771   1.929   .     S
O764   Zn774   1.930   .     S
O765   Zn772   1.942   .     S
O766   Zn773   1.945   .     S
O767   Zn774   1.941   .     S
O768   Zn771   1.937   .     S
O769   Zn772   1.935   .     S
O770   Zn773   1.933   .     S
C775   C785    1.435   .     S
C775   O851    1.267   .     A
C775   O853    1.267   .     A
C776   C808    1.431   .     A
C776   C804    1.529   .     S
C776   C777    1.400   .     A
C777   H833    1.085   .     S
C777   C5      1.396   1_556 S
C778   O854    1.263   .     A
C778   O852    1.289   .     A
C778   C784    1.459   .     S
C779   C780    1.413   .     A
C779   C781    1.398   .     A
C780   C783    1.425   .     A
C780   C809    1.423   .     A
C781   C782    1.397   .     A
C781   H823    1.085   .     S
C782   C794    1.416   .     A
C782   C801    1.492   .     S
C783   C800    1.491   .     S
C783   C794    1.412   .     A
C784   C871    1.357   .     S
C784   H917    1.088   .     S
C785   C956    1.357   1_455 S
C785   C968    1.532   1_455 S
C786   C795    1.408   .     A
C786   C793    1.401   .     A
C786   H834    1.080   .     S
C787   C790    1.462   .     S
C787   C1046   1.341   .     S
C787   C1057   1.497   .     S
C788   C789    1.436   .     S
C788   C1303   1.341   1_545 S
C788   H1348   1.086   1_545 S
C789   O849    1.272   .     A
C789   O855    1.275   .     A
C790   O856    1.270   .     A
C790   O850    1.281   .     A
C791   C794    1.464   .     S
C791   O841    1.279   .     A
C791   O839    1.274   .     A
C792   O842    1.291   .     A
C792   C793    1.474   .     S
C792   O840    1.282   .     A
C793   C797    1.391   .     A
C795   C807    1.424   .     A
C795   C802    1.529   .     S
C796   H815    1.112   .     S
C796   H816    1.112   .     S
C796   C871    1.532   .     S
C796   C884    1.533   .     S
C797   C806    1.398   .     A
C797   H835    1.078   .     S
C798   H813    1.111   .     S
C798   H837    1.111   .     S
C798   C968    1.533   1_455 S
C798   H986    1.111   1_455 S
C799   O844    1.399   .     S
C799   C1303   1.497   1_545 S
C799   O1359   1.223   1_545 S
C800   O846    1.399   .     S
C800   O845    1.223   .     D
C801   O848    1.399   .     S
C801   O847    1.223   .     D
C802   C803    1.531   .     S
C802   H50     1.112   1_556 S
C802   H51     1.112   1_556 S
C803   H821    1.111   .     S
C803   H822    1.111   .     S
C803   H820    1.111   .     S
C804   C805    1.529   .     S
C804   H830    1.112   .     S
C804   H829    1.102   .     S
C805   H826    1.111   .     S
C805   H827    1.109   .     S
C805   H828    1.111   .     S
C806   C808    1.423   .     A
C806   C807    1.423   .     A
C807   C37     1.403   1_556 S
C808   C35     1.419   1_556 S
C809   C810    1.409   .     A
C810   C811    1.388   .     A
C810   H836    1.080   .     S
C811   H812    1.081   .     S
H814   C884    1.111   .     S
H817   O844    1.014   .     S
H818   O846    1.014   .     S
H819   O848    1.014   .     S
H831   C956    1.088   1_455 S
H832   C1046   1.086   .     S
O838   Zn858   1.941   .     S
O838   Zn860   1.942   .     S
O838   Zn857   1.952   .     S
O838   Zn859   1.936   .     S
O839   Zn858   1.922   .     S
O840   Zn860   1.926   .     S
O841   Zn859   1.924   .     S
O842   Zn857   1.921   .     S
O843   C1057   1.223   .     S
O849   Zn857   1.929   .     S
O850   Zn860   1.930   .     S
O851   Zn858   1.942   .     S
O852   Zn859   1.945   .     S
O853   Zn860   1.941   .     S
O854   Zn857   1.937   .     S
O855   Zn858   1.935   .     S
O856   Zn859   1.933   .     S
C861   C871    1.435   .     S
C861   O937    1.267   .     A
C861   O939    1.267   .     A
C862   C894    1.431   .     A
C862   C890    1.529   .     S
C862   C863    1.400   .     A
C863   H919    1.085   .     S
C863   C91     1.396   1_556 S
C864   O940    1.263   .     A
C864   O938    1.289   .     A
C864   C870    1.459   .     S
C865   C866    1.413   .     A
C865   C867    1.398   .     A
C866   C869    1.425   .     A
C866   C895    1.423   .     A
C867   C868    1.397   .     A
C867   H909    1.085   .     S
C868   C880    1.416   .     A
C868   C887    1.492   .     S
C869   C886    1.491   .     S
C869   C880    1.412   .     A
C870   C957    1.357   .     S
C870   H1003   1.088   .     S
C872   C881    1.408   .     A
C872   C879    1.401   .     A
C872   H920    1.080   .     S
C873   C876    1.462   .     S
C873   C1132   1.341   .     S
C873   C1143   1.497   .     S
C874   C875    1.436   .     S
C874   C1389   1.341   1_545 S
C874   H1434   1.086   1_545 S
C875   O935    1.272   .     A
C875   O941    1.275   .     A
C876   O942    1.270   .     A
C876   O936    1.281   .     A
C877   C880    1.464   .     S
C877   O927    1.279   .     A
C877   O925    1.274   .     A
C878   O928    1.291   .     A
C878   C879    1.474   .     S
C878   O926    1.282   .     A
C879   C883    1.391   .     A
C881   C893    1.424   .     A
C881   C888    1.529   .     S
C882   H901    1.112   .     S
C882   H902    1.112   .     S
C882   C957    1.532   .     S
C882   C970    1.533   .     S
C883   C892    1.398   .     A
C883   H921    1.078   .     S
C884   H899    1.111   .     S
C884   H923    1.111   .     S
C885   O930    1.399   .     S
C885   C1389   1.497   1_545 S
C885   O1445   1.223   1_545 S
C886   O932    1.399   .     S
C886   O931    1.223   .     D
C887   O934    1.399   .     S
C887   O933    1.223   .     D
C888   C889    1.531   .     S
C888   H136    1.112   1_556 S
C888   H137    1.112   1_556 S
C889   H907    1.111   .     S
C889   H908    1.111   .     S
C889   H906    1.111   .     S
C890   C891    1.529   .     S
C890   H916    1.112   .     S
C890   H915    1.102   .     S
C891   H912    1.111   .     S
C891   H913    1.109   .     S
C891   H914    1.111   .     S
C892   C894    1.423   .     A
C892   C893    1.423   .     A
C893   C123    1.403   1_556 S
C894   C121    1.419   1_556 S
C895   C896    1.409   .     A
C896   C897    1.388   .     A
C896   H922    1.080   .     S
C897   H898    1.081   .     S
H900   C970    1.111   .     S
H903   O930    1.014   .     S
H904   O932    1.014   .     S
H905   O934    1.014   .     S
H918   C1132   1.086   .     S
O924   Zn944   1.941   .     S
O924   Zn946   1.942   .     S
O924   Zn943   1.952   .     S
O924   Zn945   1.936   .     S
O925   Zn944   1.922   .     S
O926   Zn946   1.926   .     S
O927   Zn945   1.924   .     S
O928   Zn943   1.921   .     S
O929   C1143   1.223   .     S
O935   Zn943   1.929   .     S
O936   Zn946   1.930   .     S
O937   Zn944   1.942   .     S
O938   Zn945   1.945   .     S
O939   Zn946   1.941   .     S
O940   Zn943   1.937   .     S
O941   Zn944   1.935   .     S
O942   Zn945   1.933   .     S
C947   C957    1.435   .     S
C947   O1023   1.267   .     A
C947   O1025   1.267   .     A
C948   C980    1.431   .     A
C948   C976    1.529   .     S
C948   C949    1.400   .     A
C949   H1005   1.085   .     S
C949   C177    1.396   1_556 S
C950   O1026   1.263   .     A
C950   O1024   1.289   .     A
C950   C956    1.459   .     S
C951   C952    1.413   .     A
C951   C953    1.398   .     A
C952   C955    1.425   .     A
C952   C981    1.423   .     A
C953   C954    1.397   .     A
C953   H995    1.085   .     S
C954   C966    1.416   .     A
C954   C973    1.492   .     S
C955   C972    1.491   .     S
C955   C966    1.412   .     A
C956   C785    1.357   1_655 S
C956   H831    1.088   1_655 S
C958   C967    1.408   .     A
C958   C965    1.401   .     A
C958   H1006   1.080   .     S
C959   C962    1.462   .     S
C959   C1218   1.341   .     S
C959   C1229   1.497   .     S
C960   C961    1.436   .     S
C960   C1475   1.341   1_545 S
C960   H1520   1.086   1_545 S
C961   O1021   1.272   .     A
C961   O1027   1.275   .     A
C962   O1028   1.270   .     A
C962   O1022   1.281   .     A
C963   C966    1.464   .     S
C963   O1013   1.279   .     A
C963   O1011   1.274   .     A
C964   O1014   1.291   .     A
C964   C965    1.474   .     S
C964   O1012   1.282   .     A
C965   C969    1.391   .     A
C967   C979    1.424   .     A
C967   C974    1.529   .     S
C968   H987    1.112   .     S
C968   H988    1.112   .     S
C968   C785    1.532   1_655 S
C968   C798    1.533   1_655 S
C969   C978    1.398   .     A
C969   H1007   1.078   .     S
C970   H985    1.111   .     S
C970   H1009   1.111   .     S
C971   O1016   1.399   .     S
C971   C1475   1.497   1_545 S
C971   O1531   1.223   1_545 S
C972   O1018   1.399   .     S
C972   O1017   1.223   .     D
C973   O1020   1.399   .     S
C973   O1019   1.223   .     D
C974   C975    1.531   .     S
C974   H222    1.112   1_556 S
C974   H223    1.112   1_556 S
C975   H993    1.111   .     S
C975   H994    1.111   .     S
C975   H992    1.111   .     S
C976   C977    1.529   .     S
C976   H1002   1.112   .     S
C976   H1001   1.102   .     S
C977   H998    1.111   .     S
C977   H999    1.109   .     S
C977   H1000   1.111   .     S
C978   C980    1.423   .     A
C978   C979    1.423   .     A
C979   C209    1.403   1_556 S
C980   C207    1.419   1_556 S
C981   C982    1.409   .     A
C982   C983    1.388   .     A
C982   H1008   1.080   .     S
C983   H984    1.081   .     S
H986   C798    1.111   1_655 S
H989   O1016   1.014   .     S
H990   O1018   1.014   .     S
H991   O1020   1.014   .     S
H1004  C1218   1.086   .     S
O1010  Zn1030  1.941   .     S
O1010  Zn1032  1.942   .     S
O1010  Zn1029  1.952   .     S
O1010  Zn1031  1.936   .     S
O1011  Zn1030  1.922   .     S
O1012  Zn1032  1.926   .     S
O1013  Zn1031  1.924   .     S
O1014  Zn1029  1.921   .     S
O1015  C1229   1.223   .     S
O1021  Zn1029  1.929   .     S
O1022  Zn1032  1.930   .     S
O1023  Zn1030  1.942   .     S
O1024  Zn1031  1.945   .     S
O1025  Zn1032  1.941   .     S
O1026  Zn1029  1.937   .     S
O1027  Zn1030  1.935   .     S
O1028  Zn1031  1.933   .     S
C1033  C1043   1.435   .     S
C1033  O1109   1.267   .     A
C1033  O1111   1.267   .     A
C1034  C1066   1.431   .     A
C1034  C1062   1.529   .     S
C1034  C1035   1.400   .     A
C1035  H1091   1.085   .     S
C1035  C263    1.396   1_556 S
C1036  O1112   1.263   .     A
C1036  O1110   1.289   .     A
C1036  C1042   1.459   .     S
C1037  C1038   1.413   .     A
C1037  C1039   1.398   .     A
C1038  C1041   1.425   .     A
C1038  C1067   1.423   .     A
C1039  C1040   1.397   .     A
C1039  H1081   1.085   .     S
C1040  C1052   1.416   .     A
C1040  C1059   1.492   .     S
C1041  C1058   1.491   .     S
C1041  C1052   1.412   .     A
C1042  C1129   1.357   .     S
C1042  H1175   1.088   .     S
C1043  C1214   1.357   1_455 S
C1043  C1226   1.532   1_455 S
C1044  C1053   1.408   .     A
C1044  C1051   1.401   .     A
C1044  H1092   1.080   .     S
C1045  C1048   1.462   .     S
C1045  C1304   1.341   .     S
C1045  C1315   1.497   .     S
C1046  C1047   1.436   .     S
C1047  O1107   1.272   .     A
C1047  O1113   1.275   .     A
C1048  O1114   1.270   .     A
C1048  O1108   1.281   .     A
C1049  C1052   1.464   .     S
C1049  O1099   1.279   .     A
C1049  O1097   1.274   .     A
C1050  O1100   1.291   .     A
C1050  C1051   1.474   .     S
C1050  O1098   1.282   .     A
C1051  C1055   1.391   .     A
C1053  C1065   1.424   .     A
C1053  C1060   1.529   .     S
C1054  H1073   1.112   .     S
C1054  H1074   1.112   .     S
C1054  C1129   1.532   .     S
C1054  C1142   1.533   .     S
C1055  C1064   1.398   .     A
C1055  H1093   1.078   .     S
C1056  H1071   1.111   .     S
C1056  H1095   1.111   .     S
C1056  C1226   1.533   1_455 S
C1056  H1244   1.111   1_455 S
C1057  O1102   1.399   .     S
C1058  O1104   1.399   .     S
C1058  O1103   1.223   .     D
C1059  O1106   1.399   .     S
C1059  O1105   1.223   .     D
C1060  C1061   1.531   .     S
C1060  H308    1.112   1_556 S
C1060  H309    1.112   1_556 S
C1061  H1079   1.111   .     S
C1061  H1080   1.111   .     S
C1061  H1078   1.111   .     S
C1062  C1063   1.529   .     S
C1062  H1088   1.112   .     S
C1062  H1087   1.102   .     S
C1063  H1084   1.111   .     S
C1063  H1085   1.109   .     S
C1063  H1086   1.111   .     S
C1064  C1066   1.423   .     A
C1064  C1065   1.423   .     A
C1065  C295    1.403   1_556 S
C1066  C293    1.419   1_556 S
C1067  C1068   1.409   .     A
C1068  C1069   1.388   .     A
C1068  H1094   1.080   .     S
C1069  H1070   1.081   .     S
H1072  C1142   1.111   .     S
H1075  O1102   1.014   .     S
H1076  O1104   1.014   .     S
H1077  O1106   1.014   .     S
H1089  C1214   1.088   1_455 S
H1090  C1304   1.086   .     S
O1096  Zn1116  1.941   .     S
O1096  Zn1118  1.942   .     S
O1096  Zn1115  1.952   .     S
O1096  Zn1117  1.936   .     S
O1097  Zn1116  1.922   .     S
O1098  Zn1118  1.926   .     S
O1099  Zn1117  1.924   .     S
O1100  Zn1115  1.921   .     S
O1101  C1315   1.223   .     S
O1107  Zn1115  1.929   .     S
O1108  Zn1118  1.930   .     S
O1109  Zn1116  1.942   .     S
O1110  Zn1117  1.945   .     S
O1111  Zn1118  1.941   .     S
O1112  Zn1115  1.937   .     S
O1113  Zn1116  1.935   .     S
O1114  Zn1117  1.933   .     S
C1119  C1129   1.435   .     S
C1119  O1195   1.267   .     A
C1119  O1197   1.267   .     A
C1120  C1152   1.431   .     A
C1120  C1148   1.529   .     S
C1120  C1121   1.400   .     A
C1121  H1177   1.085   .     S
C1121  C349    1.396   1_556 S
C1122  O1198   1.263   .     A
C1122  O1196   1.289   .     A
C1122  C1128   1.459   .     S
C1123  C1124   1.413   .     A
C1123  C1125   1.398   .     A
C1124  C1127   1.425   .     A
C1124  C1153   1.423   .     A
C1125  C1126   1.397   .     A
C1125  H1167   1.085   .     S
C1126  C1138   1.416   .     A
C1126  C1145   1.492   .     S
C1127  C1144   1.491   .     S
C1127  C1138   1.412   .     A
C1128  C1215   1.357   .     S
C1128  H1261   1.088   .     S
C1130  C1139   1.408   .     A
C1130  C1137   1.401   .     A
C1130  H1178   1.080   .     S
C1131  C1134   1.462   .     S
C1131  C1390   1.341   .     S
C1131  C1401   1.497   .     S
C1132  C1133   1.436   .     S
C1133  O1193   1.272   .     A
C1133  O1199   1.275   .     A
C1134  O1200   1.270   .     A
C1134  O1194   1.281   .     A
C1135  C1138   1.464   .     S
C1135  O1185   1.279   .     A
C1135  O1183   1.274   .     A
C1136  O1186   1.291   .     A
C1136  C1137   1.474   .     S
C1136  O1184   1.282   .     A
C1137  C1141   1.391   .     A
C1139  C1151   1.424   .     A
C1139  C1146   1.529   .     S
C1140  H1159   1.112   .     S
C1140  H1160   1.112   .     S
C1140  C1215   1.532   .     S
C1140  C1228   1.533   .     S
C1141  C1150   1.398   .     A
C1141  H1179   1.078   .     S
C1142  H1157   1.111   .     S
C1142  H1181   1.111   .     S
C1143  O1188   1.399   .     S
C1144  O1190   1.399   .     S
C1144  O1189   1.223   .     D
C1145  O1192   1.399   .     S
C1145  O1191   1.223   .     D
C1146  C1147   1.531   .     S
C1146  H394    1.112   1_556 S
C1146  H395    1.112   1_556 S
C1147  H1165   1.111   .     S
C1147  H1166   1.111   .     S
C1147  H1164   1.111   .     S
C1148  C1149   1.529   .     S
C1148  H1174   1.112   .     S
C1148  H1173   1.102   .     S
C1149  H1170   1.111   .     S
C1149  H1171   1.109   .     S
C1149  H1172   1.111   .     S
C1150  C1152   1.423   .     A
C1150  C1151   1.423   .     A
C1151  C381    1.403   1_556 S
C1152  C379    1.419   1_556 S
C1153  C1154   1.409   .     A
C1154  C1155   1.388   .     A
C1154  H1180   1.080   .     S
C1155  H1156   1.081   .     S
H1158  C1228   1.111   .     S
H1161  O1188   1.014   .     S
H1162  O1190   1.014   .     S
H1163  O1192   1.014   .     S
H1176  C1390   1.086   .     S
O1182  Zn1202  1.941   .     S
O1182  Zn1204  1.942   .     S
O1182  Zn1201  1.952   .     S
O1182  Zn1203  1.936   .     S
O1183  Zn1202  1.922   .     S
O1184  Zn1204  1.926   .     S
O1185  Zn1203  1.924   .     S
O1186  Zn1201  1.921   .     S
O1187  C1401   1.223   .     S
O1193  Zn1201  1.929   .     S
O1194  Zn1204  1.930   .     S
O1195  Zn1202  1.942   .     S
O1196  Zn1203  1.945   .     S
O1197  Zn1204  1.941   .     S
O1198  Zn1201  1.937   .     S
O1199  Zn1202  1.935   .     S
O1200  Zn1203  1.933   .     S
C1205  C1215   1.435   .     S
C1205  O1281   1.267   .     A
C1205  O1283   1.267   .     A
C1206  C1238   1.431   .     A
C1206  C1234   1.529   .     S
C1206  C1207   1.400   .     A
C1207  H1263   1.085   .     S
C1207  C435    1.396   1_556 S
C1208  O1284   1.263   .     A
C1208  O1282   1.289   .     A
C1208  C1214   1.459   .     S
C1209  C1210   1.413   .     A
C1209  C1211   1.398   .     A
C1210  C1213   1.425   .     A
C1210  C1239   1.423   .     A
C1211  C1212   1.397   .     A
C1211  H1253   1.085   .     S
C1212  C1224   1.416   .     A
C1212  C1231   1.492   .     S
C1213  C1230   1.491   .     S
C1213  C1224   1.412   .     A
C1214  C1043   1.357   1_655 S
C1214  H1089   1.088   1_655 S
C1216  C1225   1.408   .     A
C1216  C1223   1.401   .     A
C1216  H1264   1.080   .     S
C1217  C1220   1.462   .     S
C1217  C1476   1.341   .     S
C1217  C1487   1.497   .     S
C1218  C1219   1.436   .     S
C1219  O1279   1.272   .     A
C1219  O1285   1.275   .     A
C1220  O1286   1.270   .     A
C1220  O1280   1.281   .     A
C1221  C1224   1.464   .     S
C1221  O1271   1.279   .     A
C1221  O1269   1.274   .     A
C1222  O1272   1.291   .     A
C1222  C1223   1.474   .     S
C1222  O1270   1.282   .     A
C1223  C1227   1.391   .     A
C1225  C1237   1.424   .     A
C1225  C1232   1.529   .     S
C1226  H1245   1.112   .     S
C1226  H1246   1.112   .     S
C1226  C1043   1.532   1_655 S
C1226  C1056   1.533   1_655 S
C1227  C1236   1.398   .     A
C1227  H1265   1.078   .     S
C1228  H1243   1.111   .     S
C1228  H1267   1.111   .     S
C1229  O1274   1.399   .     S
C1230  O1276   1.399   .     S
C1230  O1275   1.223   .     D
C1231  O1278   1.399   .     S
C1231  O1277   1.223   .     D
C1232  C1233   1.531   .     S
C1232  H480    1.112   1_556 S
C1232  H481    1.112   1_556 S
C1233  H1251   1.111   .     S
C1233  H1252   1.111   .     S
C1233  H1250   1.111   .     S
C1234  C1235   1.529   .     S
C1234  H1260   1.112   .     S
C1234  H1259   1.102   .     S
C1235  H1256   1.111   .     S
C1235  H1257   1.109   .     S
C1235  H1258   1.111   .     S
C1236  C1238   1.423   .     A
C1236  C1237   1.423   .     A
C1237  C467    1.403   1_556 S
C1238  C465    1.419   1_556 S
C1239  C1240   1.409   .     A
C1240  C1241   1.388   .     A
C1240  H1266   1.080   .     S
C1241  H1242   1.081   .     S
H1244  C1056   1.111   1_655 S
H1247  O1274   1.014   .     S
H1248  O1276   1.014   .     S
H1249  O1278   1.014   .     S
H1262  C1476   1.086   .     S
O1268  Zn1288  1.941   .     S
O1268  Zn1290  1.942   .     S
O1268  Zn1287  1.952   .     S
O1268  Zn1289  1.936   .     S
O1269  Zn1288  1.922   .     S
O1270  Zn1290  1.926   .     S
O1271  Zn1289  1.924   .     S
O1272  Zn1287  1.921   .     S
O1273  C1487   1.223   .     S
O1279  Zn1287  1.929   .     S
O1280  Zn1290  1.930   .     S
O1281  Zn1288  1.942   .     S
O1282  Zn1289  1.945   .     S
O1283  Zn1290  1.941   .     S
O1284  Zn1287  1.937   .     S
O1285  Zn1288  1.935   .     S
O1286  Zn1289  1.933   .     S
C1291  C1301   1.435   .     S
C1291  O1367   1.267   .     A
C1291  O1369   1.267   .     A
C1292  C1324   1.431   .     A
C1292  C1320   1.529   .     S
C1292  C1293   1.400   .     A
C1293  H1349   1.085   .     S
C1293  C521    1.396   1_556 S
C1294  O1370   1.263   .     A
C1294  O1368   1.289   .     A
C1294  C1300   1.459   .     S
C1295  C1296   1.413   .     A
C1295  C1297   1.398   .     A
C1296  C1299   1.425   .     A
C1296  C1325   1.423   .     A
C1297  C1298   1.397   .     A
C1297  H1339   1.085   .     S
C1298  C1310   1.416   .     A
C1298  C1317   1.492   .     S
C1299  C1316   1.491   .     S
C1299  C1310   1.412   .     A
C1300  C1387   1.357   .     S
C1300  H1433   1.088   .     S
C1301  C1472   1.357   1_455 S
C1301  C1484   1.532   1_455 S
C1302  C1311   1.408   .     A
C1302  C1309   1.401   .     A
C1302  H1350   1.080   .     S
C1303  C1306   1.462   .     S
C1303  C788    1.341   1_565 S
C1303  C799    1.497   1_565 S
C1304  C1305   1.436   .     S
C1305  O1365   1.272   .     A
C1305  O1371   1.275   .     A
C1306  O1372   1.270   .     A
C1306  O1366   1.281   .     A
C1307  C1310   1.464   .     S
C1307  O1357   1.279   .     A
C1307  O1355   1.274   .     A
C1308  O1358   1.291   .     A
C1308  C1309   1.474   .     S
C1308  O1356   1.282   .     A
C1309  C1313   1.391   .     A
C1311  C1323   1.424   .     A
C1311  C1318   1.529   .     S
C1312  H1331   1.112   .     S
C1312  H1332   1.112   .     S
C1312  C1387   1.532   .     S
C1312  C1400   1.533   .     S
C1313  C1322   1.398   .     A
C1313  H1351   1.078   .     S
C1314  H1329   1.111   .     S
C1314  H1353   1.111   .     S
C1314  C1484   1.533   1_455 S
C1314  H1502   1.111   1_455 S
C1315  O1360   1.399   .     S
C1316  O1362   1.399   .     S
C1316  O1361   1.223   .     D
C1317  O1364   1.399   .     S
C1317  O1363   1.223   .     D
C1318  C1319   1.531   .     S
C1318  H566    1.112   1_556 S
C1318  H567    1.112   1_556 S
C1319  H1337   1.111   .     S
C1319  H1338   1.111   .     S
C1319  H1336   1.111   .     S
C1320  C1321   1.529   .     S
C1320  H1346   1.112   .     S
C1320  H1345   1.102   .     S
C1321  H1342   1.111   .     S
C1321  H1343   1.109   .     S
C1321  H1344   1.111   .     S
C1322  C1324   1.423   .     A
C1322  C1323   1.423   .     A
C1323  C553    1.403   1_556 S
C1324  C551    1.419   1_556 S
C1325  C1326   1.409   .     A
C1326  C1327   1.388   .     A
C1326  H1352   1.080   .     S
C1327  H1328   1.081   .     S
H1330  C1400   1.111   .     S
H1333  O1360   1.014   .     S
H1334  O1362   1.014   .     S
H1335  O1364   1.014   .     S
H1347  C1472   1.088   1_455 S
H1348  C788    1.086   1_565 S
O1354  Zn1374  1.941   .     S
O1354  Zn1376  1.942   .     S
O1354  Zn1373  1.952   .     S
O1354  Zn1375  1.936   .     S
O1355  Zn1374  1.922   .     S
O1356  Zn1376  1.926   .     S
O1357  Zn1375  1.924   .     S
O1358  Zn1373  1.921   .     S
O1359  C799    1.223   1_565 S
O1365  Zn1373  1.929   .     S
O1366  Zn1376  1.930   .     S
O1367  Zn1374  1.942   .     S
O1368  Zn1375  1.945   .     S
O1369  Zn1376  1.941   .     S
O1370  Zn1373  1.937   .     S
O1371  Zn1374  1.935   .     S
O1372  Zn1375  1.933   .     S
C1377  C1387   1.435   .     S
C1377  O1453   1.267   .     A
C1377  O1455   1.267   .     A
C1378  C1410   1.431   .     A
C1378  C1406   1.529   .     S
C1378  C1379   1.400   .     A
C1379  H1435   1.085   .     S
C1379  C607    1.396   1_556 S
C1380  O1456   1.263   .     A
C1380  O1454   1.289   .     A
C1380  C1386   1.459   .     S
C1381  C1382   1.413   .     A
C1381  C1383   1.398   .     A
C1382  C1385   1.425   .     A
C1382  C1411   1.423   .     A
C1383  C1384   1.397   .     A
C1383  H1425   1.085   .     S
C1384  C1396   1.416   .     A
C1384  C1403   1.492   .     S
C1385  C1402   1.491   .     S
C1385  C1396   1.412   .     A
C1386  C1473   1.357   .     S
C1386  H1519   1.088   .     S
C1388  C1397   1.408   .     A
C1388  C1395   1.401   .     A
C1388  H1436   1.080   .     S
C1389  C1392   1.462   .     S
C1389  C874    1.341   1_565 S
C1389  C885    1.497   1_565 S
C1390  C1391   1.436   .     S
C1391  O1451   1.272   .     A
C1391  O1457   1.275   .     A
C1392  O1458   1.270   .     A
C1392  O1452   1.281   .     A
C1393  C1396   1.464   .     S
C1393  O1443   1.279   .     A
C1393  O1441   1.274   .     A
C1394  O1444   1.291   .     A
C1394  C1395   1.474   .     S
C1394  O1442   1.282   .     A
C1395  C1399   1.391   .     A
C1397  C1409   1.424   .     A
C1397  C1404   1.529   .     S
C1398  H1417   1.112   .     S
C1398  H1418   1.112   .     S
C1398  C1473   1.532   .     S
C1398  C1486   1.533   .     S
C1399  C1408   1.398   .     A
C1399  H1437   1.078   .     S
C1400  H1415   1.111   .     S
C1400  H1439   1.111   .     S
C1401  O1446   1.399   .     S
C1402  O1448   1.399   .     S
C1402  O1447   1.223   .     D
C1403  O1450   1.399   .     S
C1403  O1449   1.223   .     D
C1404  C1405   1.531   .     S
C1404  H652    1.112   1_556 S
C1404  H653    1.112   1_556 S
C1405  H1423   1.111   .     S
C1405  H1424   1.111   .     S
C1405  H1422   1.111   .     S
C1406  C1407   1.529   .     S
C1406  H1432   1.112   .     S
C1406  H1431   1.102   .     S
C1407  H1428   1.111   .     S
C1407  H1429   1.109   .     S
C1407  H1430   1.111   .     S
C1408  C1410   1.423   .     A
C1408  C1409   1.423   .     A
C1409  C639    1.403   1_556 S
C1410  C637    1.419   1_556 S
C1411  C1412   1.409   .     A
C1412  C1413   1.388   .     A
C1412  H1438   1.080   .     S
C1413  H1414   1.081   .     S
H1416  C1486   1.111   .     S
H1419  O1446   1.014   .     S
H1420  O1448   1.014   .     S
H1421  O1450   1.014   .     S
H1434  C874    1.086   1_565 S
O1440  Zn1460  1.941   .     S
O1440  Zn1462  1.942   .     S
O1440  Zn1459  1.952   .     S
O1440  Zn1461  1.936   .     S
O1441  Zn1460  1.922   .     S
O1442  Zn1462  1.926   .     S
O1443  Zn1461  1.924   .     S
O1444  Zn1459  1.921   .     S
O1445  C885    1.223   1_565 S
O1451  Zn1459  1.929   .     S
O1452  Zn1462  1.930   .     S
O1453  Zn1460  1.942   .     S
O1454  Zn1461  1.945   .     S
O1455  Zn1462  1.941   .     S
O1456  Zn1459  1.937   .     S
O1457  Zn1460  1.935   .     S
O1458  Zn1461  1.933   .     S
C1463  C1473   1.435   .     S
C1463  O1539   1.267   .     A
C1463  O1541   1.267   .     A
C1464  C1496   1.431   .     A
C1464  C1492   1.529   .     S
C1464  C1465   1.400   .     A
C1465  H1521   1.085   .     S
C1465  C693    1.396   1_556 S
C1466  O1542   1.263   .     A
C1466  O1540   1.289   .     A
C1466  C1472   1.459   .     S
C1467  C1468   1.413   .     A
C1467  C1469   1.398   .     A
C1468  C1471   1.425   .     A
C1468  C1497   1.423   .     A
C1469  C1470   1.397   .     A
C1469  H1511   1.085   .     S
C1470  C1482   1.416   .     A
C1470  C1489   1.492   .     S
C1471  C1488   1.491   .     S
C1471  C1482   1.412   .     A
C1472  C1301   1.357   1_655 S
C1472  H1347   1.088   1_655 S
C1474  C1483   1.408   .     A
C1474  C1481   1.401   .     A
C1474  H1522   1.080   .     S
C1475  C1478   1.462   .     S
C1475  C960    1.341   1_565 S
C1475  C971    1.497   1_565 S
C1476  C1477   1.436   .     S
C1477  O1537   1.272   .     A
C1477  O1543   1.275   .     A
C1478  O1544   1.270   .     A
C1478  O1538   1.281   .     A
C1479  C1482   1.464   .     S
C1479  O1529   1.279   .     A
C1479  O1527   1.274   .     A
C1480  O1530   1.291   .     A
C1480  C1481   1.474   .     S
C1480  O1528   1.282   .     A
C1481  C1485   1.391   .     A
C1483  C1495   1.424   .     A
C1483  C1490   1.529   .     S
C1484  H1503   1.112   .     S
C1484  H1504   1.112   .     S
C1484  C1301   1.532   1_655 S
C1484  C1314   1.533   1_655 S
C1485  C1494   1.398   .     A
C1485  H1523   1.078   .     S
C1486  H1501   1.111   .     S
C1486  H1525   1.111   .     S
C1487  O1532   1.399   .     S
C1488  O1534   1.399   .     S
C1488  O1533   1.223   .     D
C1489  O1536   1.399   .     S
C1489  O1535   1.223   .     D
C1490  C1491   1.531   .     S
C1490  H738    1.112   1_556 S
C1490  H739    1.112   1_556 S
C1491  H1509   1.111   .     S
C1491  H1510   1.111   .     S
C1491  H1508   1.111   .     S
C1492  C1493   1.529   .     S
C1492  H1518   1.112   .     S
C1492  H1517   1.102   .     S
C1493  H1514   1.111   .     S
C1493  H1515   1.109   .     S
C1493  H1516   1.111   .     S
C1494  C1496   1.423   .     A
C1494  C1495   1.423   .     A
C1495  C725    1.403   1_556 S
C1496  C723    1.419   1_556 S
C1497  C1498   1.409   .     A
C1498  C1499   1.388   .     A
C1498  H1524   1.080   .     S
C1499  H1500   1.081   .     S
H1502  C1314   1.111   1_655 S
H1505  O1532   1.014   .     S
H1506  O1534   1.014   .     S
H1507  O1536   1.014   .     S
H1520  C960    1.086   1_565 S
O1526  Zn1546  1.941   .     S
O1526  Zn1548  1.942   .     S
O1526  Zn1545  1.952   .     S
O1526  Zn1547  1.936   .     S
O1527  Zn1546  1.922   .     S
O1528  Zn1548  1.926   .     S
O1529  Zn1547  1.924   .     S
O1530  Zn1545  1.921   .     S
O1531  C971    1.223   1_565 S
O1537  Zn1545  1.929   .     S
O1538  Zn1548  1.930   .     S
O1539  Zn1546  1.942   .     S
O1540  Zn1547  1.945   .     S
O1541  Zn1548  1.941   .     S
O1542  Zn1545  1.937   .     S
O1543  Zn1546  1.935   .     S
O1544  Zn1547  1.933   .     S
