data_str_m1_o10_o18_pcu_sym.241
_audit_creation_date              2020-01-03
_audit_creation_method            'Materials Studio'
_symmetry_space_group_name_H-M    'P1'
_symmetry_Int_Tables_number       1
_symmetry_cell_setting            triclinic
loop_
_symmetry_equiv_pos_as_xyz
  x,y,z
_cell_length_a                    32.4726
_cell_length_b                    32.6873
_cell_length_c                    35.7092
_cell_angle_alpha                 97.9579
_cell_angle_beta                  73.0687
_cell_angle_gamma                 98.0152
loop_
_atom_site_label
_atom_site_type_symbol
_atom_site_fract_x
_atom_site_fract_y
_atom_site_fract_z
_atom_site_U_iso_or_equiv
_atom_site_adp_type
_atom_site_occupancy
C1     C     0.05251   0.15995   0.25896   0.00000  Uiso   1.00
C2     C     0.21198   0.14605   0.46040   0.00000  Uiso   1.00
C3     C     0.23544   0.12673   0.47895   0.00000  Uiso   1.00
C4     C     0.28102   0.17352   0.24126   0.00000  Uiso   1.00
C5     C     0.21788   0.12150   0.01962   0.00000  Uiso   1.00
C6     C     0.18072   0.14201   0.04100   0.00000  Uiso   1.00
C7     C     0.23783   0.10035   0.04096   0.00000  Uiso   1.00
C8     C     0.22819   0.10899   0.08191   0.00000  Uiso   1.00
C9     C     0.17402   0.15223   0.08172   0.00000  Uiso   1.00
C10    C     0.32700   0.17595   0.23766   0.00000  Uiso   1.00
C11    C     0.00708   0.15790   0.26264   0.00000  Uiso   1.00
C12    C     0.09781   0.21290   0.42174   0.00000  Uiso   1.00
C13    C     0.17832   0.32168   0.23825   0.00000  Uiso   1.00
C14    C     0.15187   0.01342   0.26483   0.00000  Uiso   1.00
C15    C     0.15662   0.05635   0.25874   0.00000  Uiso   1.00
C16    C     0.17665   0.27766   0.24173   0.00000  Uiso   1.00
C17    C     0.18814   0.14545   0.14416   0.00000  Uiso   1.00
C18    C     0.14544   0.18764   0.35622   0.00000  Uiso   1.00
C19    C     0.13420   0.19338   0.39948   0.00000  Uiso   1.00
C20    C     0.19778   0.13621   0.10177   0.00000  Uiso   1.00
C21    C     0.08422   0.21231   0.46246   0.00000  Uiso   1.00
C22    C     0.26374   0.06532   0.02263   0.00000  Uiso   1.00
C23    C     0.15840   0.17582   0.41858   0.00000  Uiso   1.00
C24    C     0.12445   0.00333   0.30435   0.00000  Uiso   1.00
C25    C     0.28173   0.11927   0.45544   0.00000  Uiso   1.00
C26    C     0.31518   0.14825   0.47161   0.00000  Uiso   1.00
C27    C     0.08427   0.14898   0.07756   0.00000  Uiso   1.00
C28    C     0.14621   0.17608   0.45984   0.00000  Uiso   1.00
C29    C     0.10727   0.19283   0.48144   0.00000  Uiso   1.00
C30    C     0.17059   0.15871   0.47993   0.00000  Uiso   1.00
C31    C     0.15380   0.15543   0.02093   0.00000  Uiso   1.00
C32    C     0.11075   0.16567   0.04023   0.00000  Uiso   1.00
C33    C     0.08991   0.18727   0.02113   0.00000  Uiso   1.00
H34    H     0.05809   0.19686   0.03635   0.00000  Uiso   1.00
H35    H     0.22788   0.15253   0.43058   0.00000  Uiso   1.00
H36    H     0.25644   0.04513   0.49812   0.00000  Uiso   1.00
H37    H     0.09260   0.01418   0.31568   0.00000  Uiso   1.00
H38    H     0.31001   0.18115   0.47170   0.00000  Uiso   1.00
H39    H     0.31332   0.14241   0.00194   0.00000  Uiso   1.00
H40    H     0.01486   0.14309   0.45261   0.00000  Uiso   1.00
H41    H     0.28789   0.08657   0.45321   0.00000  Uiso   1.00
H42    H     0.28791   0.12515   0.42425   0.00000  Uiso   1.00
H43    H     0.09321   0.12225   0.08714   0.00000  Uiso   1.00
H44    H     0.01673   0.19243   0.21454   0.00000  Uiso   1.00
H45    H     0.31804   0.14156   0.28618   0.00000  Uiso   1.00
H46    H     0.20088   0.00060   0.21225   0.00000  Uiso   1.00
H47    H     0.15137   0.17398   0.09817   0.00000  Uiso   1.00
H48    H     0.24363   0.09383   0.09860   0.00000  Uiso   1.00
H49    H     0.05467   0.22567   0.47897   0.00000  Uiso   1.00
H50    H     0.07860   0.22665   0.40757   0.00000  Uiso   1.00
H51    H     0.18533   0.16006   0.40027   0.00000  Uiso   1.00
O52    O     0.16667   0.16667   0.25000   0.00000  Uiso   1.00
O53    O     0.15693   0.12393   0.16625   0.00000  Uiso   1.00
O54    O     0.12687   0.20646   0.33749   0.00000  Uiso   1.00
O55    O     0.21088   0.17493   0.15877   0.00000  Uiso   1.00
O56    O     0.17198   0.16135   0.33749   0.00000  Uiso   1.00
O57    O     0.29245   0.05774   0.03559   0.00000  Uiso   1.00
O58    O     0.13842   0.31952   0.32570   0.00000  Uiso   1.00
O59    O     0.05174   0.16440   0.09768   0.00000  Uiso   1.00
O60    O     0.17849   0.08101   0.27820   0.00000  Uiso   1.00
O61    O     0.14581   0.26136   0.26767   0.00000  Uiso   1.00
O62    O     0.07452   0.13251   0.23607   0.00000  Uiso   1.00
O63    O     0.26785   0.19179   0.21805   0.00000  Uiso   1.00
O64    O     0.06990   0.18960   0.27820   0.00000  Uiso   1.00
O65    O     0.25440   0.15277   0.26767   0.00000  Uiso   1.00
O66    O     0.13800   0.06903   0.23607   0.00000  Uiso   1.00
O67    O     0.20437   0.25527   0.21805   0.00000  Uiso   1.00
Zn68   Zn    0.19244   0.14090   0.28277   0.00000  Uiso   1.00
Zn69   Zn    0.13459   0.12378   0.22257   0.00000  Uiso   1.00
Zn70   Zn    0.21166   0.19664   0.21188   0.00000  Uiso   1.00
Zn71   Zn    0.12798   0.20535   0.28277   0.00000  Uiso   1.00
C72    C     0.38584   0.15995   0.25896   0.00000  Uiso   1.00
C73    C     0.54532   0.14605   0.46040   0.00000  Uiso   1.00
C74    C     0.56878   0.12673   0.47895   0.00000  Uiso   1.00
C75    C     0.61436   0.17352   0.24126   0.00000  Uiso   1.00
C76    C     0.55122   0.12150   0.01962   0.00000  Uiso   1.00
C77    C     0.51406   0.14201   0.04100   0.00000  Uiso   1.00
C78    C     0.57116   0.10035   0.04096   0.00000  Uiso   1.00
C79    C     0.56152   0.10899   0.08191   0.00000  Uiso   1.00
C80    C     0.50736   0.15223   0.08172   0.00000  Uiso   1.00
C81    C     0.66034   0.17595   0.23766   0.00000  Uiso   1.00
C82    C     0.34042   0.15790   0.26264   0.00000  Uiso   1.00
C83    C     0.43114   0.21290   0.42174   0.00000  Uiso   1.00
C84    C     0.51165   0.32168   0.23825   0.00000  Uiso   1.00
C85    C     0.48520   0.01342   0.26483   0.00000  Uiso   1.00
C86    C     0.48996   0.05635   0.25874   0.00000  Uiso   1.00
C87    C     0.50999   0.27766   0.24173   0.00000  Uiso   1.00
C88    C     0.52147   0.14545   0.14416   0.00000  Uiso   1.00
C89    C     0.47877   0.18764   0.35622   0.00000  Uiso   1.00
C90    C     0.46754   0.19338   0.39948   0.00000  Uiso   1.00
C91    C     0.53111   0.13621   0.10177   0.00000  Uiso   1.00
C92    C     0.41755   0.21231   0.46246   0.00000  Uiso   1.00
C93    C     0.59708   0.06532   0.02263   0.00000  Uiso   1.00
C94    C     0.49173   0.17582   0.41858   0.00000  Uiso   1.00
C95    C     0.45778   0.00333   0.30435   0.00000  Uiso   1.00
C96    C     0.61506   0.11927   0.45544   0.00000  Uiso   1.00
C97    C     0.64851   0.14825   0.47161   0.00000  Uiso   1.00
C98    C     0.41760   0.14898   0.07756   0.00000  Uiso   1.00
C99    C     0.47954   0.17608   0.45984   0.00000  Uiso   1.00
C100   C     0.44060   0.19283   0.48144   0.00000  Uiso   1.00
C101   C     0.50392   0.15871   0.47993   0.00000  Uiso   1.00
C102   C     0.48713   0.15543   0.02093   0.00000  Uiso   1.00
C103   C     0.44408   0.16567   0.04023   0.00000  Uiso   1.00
C104   C     0.42324   0.18727   0.02113   0.00000  Uiso   1.00
H105   H     0.39143   0.19686   0.03635   0.00000  Uiso   1.00
H106   H     0.56121   0.15253   0.43058   0.00000  Uiso   1.00
H107   H     0.58977   0.04513   0.49812   0.00000  Uiso   1.00
H108   H     0.42593   0.01418   0.31568   0.00000  Uiso   1.00
H109   H     0.64334   0.18115   0.47170   0.00000  Uiso   1.00
H110   H     0.64665   0.14241   0.00194   0.00000  Uiso   1.00
H111   H     0.34819   0.14309   0.45261   0.00000  Uiso   1.00
H112   H     0.62123   0.08657   0.45321   0.00000  Uiso   1.00
H113   H     0.62124   0.12515   0.42425   0.00000  Uiso   1.00
H114   H     0.42655   0.12225   0.08714   0.00000  Uiso   1.00
H115   H     0.35006   0.19243   0.21454   0.00000  Uiso   1.00
H116   H     0.65138   0.14156   0.28618   0.00000  Uiso   1.00
H117   H     0.53421   0.00060   0.21225   0.00000  Uiso   1.00
H118   H     0.48470   0.17398   0.09817   0.00000  Uiso   1.00
H119   H     0.57696   0.09383   0.09860   0.00000  Uiso   1.00
H120   H     0.38801   0.22567   0.47897   0.00000  Uiso   1.00
H121   H     0.41193   0.22665   0.40757   0.00000  Uiso   1.00
H122   H     0.51866   0.16006   0.40027   0.00000  Uiso   1.00
O123   O     0.50000   0.16667   0.25000   0.00000  Uiso   1.00
O124   O     0.49027   0.12393   0.16625   0.00000  Uiso   1.00
O125   O     0.46020   0.20646   0.33749   0.00000  Uiso   1.00
O126   O     0.54421   0.17493   0.15877   0.00000  Uiso   1.00
O127   O     0.50532   0.16135   0.33749   0.00000  Uiso   1.00
O128   O     0.62578   0.05774   0.03559   0.00000  Uiso   1.00
O129   O     0.47176   0.31952   0.32570   0.00000  Uiso   1.00
O130   O     0.38507   0.16440   0.09768   0.00000  Uiso   1.00
O131   O     0.51182   0.08101   0.27820   0.00000  Uiso   1.00
O132   O     0.47914   0.26136   0.26767   0.00000  Uiso   1.00
O133   O     0.40785   0.13251   0.23607   0.00000  Uiso   1.00
O134   O     0.60119   0.19179   0.21805   0.00000  Uiso   1.00
O135   O     0.40323   0.18960   0.27820   0.00000  Uiso   1.00
O136   O     0.58773   0.15277   0.26767   0.00000  Uiso   1.00
O137   O     0.47133   0.06903   0.23607   0.00000  Uiso   1.00
O138   O     0.53771   0.25527   0.21805   0.00000  Uiso   1.00
Zn139  Zn    0.52577   0.14090   0.28277   0.00000  Uiso   1.00
Zn140  Zn    0.46792   0.12378   0.22257   0.00000  Uiso   1.00
Zn141  Zn    0.54500   0.19664   0.21188   0.00000  Uiso   1.00
Zn142  Zn    0.46131   0.20535   0.28277   0.00000  Uiso   1.00
C143   C     0.71917   0.15995   0.25896   0.00000  Uiso   1.00
C144   C     0.87865   0.14605   0.46040   0.00000  Uiso   1.00
C145   C     0.90211   0.12673   0.47895   0.00000  Uiso   1.00
C146   C     0.94769   0.17352   0.24126   0.00000  Uiso   1.00
C147   C     0.88455   0.12150   0.01962   0.00000  Uiso   1.00
C148   C     0.84739   0.14201   0.04100   0.00000  Uiso   1.00
C149   C     0.90449   0.10035   0.04096   0.00000  Uiso   1.00
C150   C     0.89486   0.10899   0.08191   0.00000  Uiso   1.00
C151   C     0.84069   0.15223   0.08172   0.00000  Uiso   1.00
C152   C     0.99367   0.17595   0.23766   0.00000  Uiso   1.00
C153   C     0.67375   0.15790   0.26264   0.00000  Uiso   1.00
C154   C     0.76448   0.21290   0.42174   0.00000  Uiso   1.00
C155   C     0.84499   0.32168   0.23825   0.00000  Uiso   1.00
C156   C     0.81853   0.01342   0.26483   0.00000  Uiso   1.00
C157   C     0.82329   0.05635   0.25874   0.00000  Uiso   1.00
C158   C     0.84332   0.27766   0.24173   0.00000  Uiso   1.00
C159   C     0.85480   0.14545   0.14416   0.00000  Uiso   1.00
C160   C     0.81211   0.18764   0.35622   0.00000  Uiso   1.00
C161   C     0.80087   0.19338   0.39948   0.00000  Uiso   1.00
C162   C     0.86444   0.13621   0.10177   0.00000  Uiso   1.00
C163   C     0.75088   0.21231   0.46246   0.00000  Uiso   1.00
C164   C     0.93041   0.06532   0.02263   0.00000  Uiso   1.00
C165   C     0.82506   0.17582   0.41858   0.00000  Uiso   1.00
C166   C     0.79111   0.00333   0.30435   0.00000  Uiso   1.00
C167   C     0.94839   0.11927   0.45544   0.00000  Uiso   1.00
C168   C     0.98185   0.14825   0.47161   0.00000  Uiso   1.00
C169   C     0.75093   0.14898   0.07756   0.00000  Uiso   1.00
C170   C     0.81287   0.17608   0.45984   0.00000  Uiso   1.00
C171   C     0.77394   0.19283   0.48144   0.00000  Uiso   1.00
C172   C     0.83725   0.15871   0.47993   0.00000  Uiso   1.00
C173   C     0.82046   0.15543   0.02093   0.00000  Uiso   1.00
C174   C     0.77741   0.16567   0.04023   0.00000  Uiso   1.00
C175   C     0.75657   0.18727   0.02113   0.00000  Uiso   1.00
H176   H     0.72476   0.19686   0.03635   0.00000  Uiso   1.00
H177   H     0.89455   0.15253   0.43058   0.00000  Uiso   1.00
H178   H     0.92310   0.04513   0.49812   0.00000  Uiso   1.00
H179   H     0.75927   0.01418   0.31568   0.00000  Uiso   1.00
H180   H     0.97668   0.18115   0.47170   0.00000  Uiso   1.00
H181   H     0.97998   0.14241   0.00194   0.00000  Uiso   1.00
H182   H     0.68152   0.14309   0.45261   0.00000  Uiso   1.00
H183   H     0.95456   0.08657   0.45321   0.00000  Uiso   1.00
H184   H     0.95458   0.12515   0.42425   0.00000  Uiso   1.00
H185   H     0.75988   0.12225   0.08714   0.00000  Uiso   1.00
H186   H     0.68339   0.19243   0.21454   0.00000  Uiso   1.00
H187   H     0.98471   0.14156   0.28618   0.00000  Uiso   1.00
H188   H     0.86754   0.00060   0.21225   0.00000  Uiso   1.00
H189   H     0.81803   0.17398   0.09817   0.00000  Uiso   1.00
H190   H     0.91029   0.09383   0.09860   0.00000  Uiso   1.00
H191   H     0.72134   0.22567   0.47897   0.00000  Uiso   1.00
H192   H     0.74526   0.22665   0.40757   0.00000  Uiso   1.00
H193   H     0.85199   0.16006   0.40027   0.00000  Uiso   1.00
O194   O     0.83333   0.16667   0.25000   0.00000  Uiso   1.00
O195   O     0.82360   0.12393   0.16625   0.00000  Uiso   1.00
O196   O     0.79354   0.20646   0.33749   0.00000  Uiso   1.00
O197   O     0.87755   0.17493   0.15877   0.00000  Uiso   1.00
O198   O     0.83865   0.16135   0.33749   0.00000  Uiso   1.00
O199   O     0.95911   0.05774   0.03559   0.00000  Uiso   1.00
O200   O     0.80509   0.31952   0.32570   0.00000  Uiso   1.00
O201   O     0.71840   0.16440   0.09768   0.00000  Uiso   1.00
O202   O     0.84515   0.08101   0.27820   0.00000  Uiso   1.00
O203   O     0.81247   0.26136   0.26767   0.00000  Uiso   1.00
O204   O     0.74119   0.13251   0.23607   0.00000  Uiso   1.00
O205   O     0.93452   0.19179   0.21805   0.00000  Uiso   1.00
O206   O     0.73656   0.18960   0.27820   0.00000  Uiso   1.00
O207   O     0.92106   0.15277   0.26767   0.00000  Uiso   1.00
O208   O     0.80467   0.06903   0.23607   0.00000  Uiso   1.00
O209   O     0.87104   0.25527   0.21805   0.00000  Uiso   1.00
Zn210  Zn    0.85910   0.14090   0.28277   0.00000  Uiso   1.00
Zn211  Zn    0.80125   0.12378   0.22257   0.00000  Uiso   1.00
Zn212  Zn    0.87833   0.19664   0.21188   0.00000  Uiso   1.00
Zn213  Zn    0.79465   0.20535   0.28277   0.00000  Uiso   1.00
C214   C     0.05251   0.49329   0.25896   0.00000  Uiso   1.00
C215   C     0.21198   0.47939   0.46040   0.00000  Uiso   1.00
C216   C     0.23544   0.46006   0.47895   0.00000  Uiso   1.00
C217   C     0.28102   0.50685   0.24126   0.00000  Uiso   1.00
C218   C     0.21788   0.45483   0.01962   0.00000  Uiso   1.00
C219   C     0.18072   0.47535   0.04100   0.00000  Uiso   1.00
C220   C     0.23783   0.43368   0.04096   0.00000  Uiso   1.00
C221   C     0.22819   0.44232   0.08191   0.00000  Uiso   1.00
C222   C     0.17402   0.48556   0.08172   0.00000  Uiso   1.00
C223   C     0.32700   0.50928   0.23766   0.00000  Uiso   1.00
C224   C     0.00708   0.49123   0.26264   0.00000  Uiso   1.00
C225   C     0.09781   0.54623   0.42174   0.00000  Uiso   1.00
C226   C     0.17832   0.65501   0.23825   0.00000  Uiso   1.00
C227   C     0.15187   0.34676   0.26483   0.00000  Uiso   1.00
C228   C     0.15662   0.38969   0.25874   0.00000  Uiso   1.00
C229   C     0.17665   0.61099   0.24173   0.00000  Uiso   1.00
C230   C     0.18814   0.47878   0.14416   0.00000  Uiso   1.00
C231   C     0.14544   0.52098   0.35622   0.00000  Uiso   1.00
C232   C     0.13420   0.52671   0.39948   0.00000  Uiso   1.00
C233   C     0.19778   0.46954   0.10177   0.00000  Uiso   1.00
C234   C     0.08422   0.54564   0.46246   0.00000  Uiso   1.00
C235   C     0.26374   0.39865   0.02263   0.00000  Uiso   1.00
C236   C     0.15840   0.50915   0.41858   0.00000  Uiso   1.00
C237   C     0.12445   0.33666   0.30435   0.00000  Uiso   1.00
C238   C     0.28173   0.45260   0.45544   0.00000  Uiso   1.00
C239   C     0.31518   0.48158   0.47161   0.00000  Uiso   1.00
C240   C     0.08427   0.48232   0.07756   0.00000  Uiso   1.00
C241   C     0.14621   0.50941   0.45984   0.00000  Uiso   1.00
C242   C     0.10727   0.52617   0.48144   0.00000  Uiso   1.00
C243   C     0.17059   0.49205   0.47993   0.00000  Uiso   1.00
C244   C     0.15380   0.48876   0.02093   0.00000  Uiso   1.00
C245   C     0.11075   0.49900   0.04023   0.00000  Uiso   1.00
C246   C     0.08991   0.52061   0.02113   0.00000  Uiso   1.00
H247   H     0.05809   0.53020   0.03635   0.00000  Uiso   1.00
H248   H     0.22788   0.48587   0.43058   0.00000  Uiso   1.00
H249   H     0.25644   0.37846   0.49812   0.00000  Uiso   1.00
H250   H     0.09260   0.34751   0.31568   0.00000  Uiso   1.00
H251   H     0.31001   0.51449   0.47170   0.00000  Uiso   1.00
H252   H     0.31332   0.47574   0.00194   0.00000  Uiso   1.00
H253   H     0.01486   0.47642   0.45261   0.00000  Uiso   1.00
H254   H     0.28789   0.41991   0.45321   0.00000  Uiso   1.00
H255   H     0.28791   0.45848   0.42425   0.00000  Uiso   1.00
H256   H     0.09321   0.45558   0.08714   0.00000  Uiso   1.00
H257   H     0.01673   0.52577   0.21454   0.00000  Uiso   1.00
H258   H     0.31804   0.47489   0.28618   0.00000  Uiso   1.00
H259   H     0.20088   0.33394   0.21225   0.00000  Uiso   1.00
H260   H     0.15137   0.50731   0.09817   0.00000  Uiso   1.00
H261   H     0.24363   0.42717   0.09860   0.00000  Uiso   1.00
H262   H     0.05467   0.55900   0.47897   0.00000  Uiso   1.00
H263   H     0.07860   0.55999   0.40757   0.00000  Uiso   1.00
H264   H     0.18533   0.49340   0.40027   0.00000  Uiso   1.00
O265   O     0.16667   0.50000   0.25000   0.00000  Uiso   1.00
O266   O     0.15693   0.45726   0.16625   0.00000  Uiso   1.00
O267   O     0.12687   0.53979   0.33749   0.00000  Uiso   1.00
O268   O     0.21088   0.50826   0.15877   0.00000  Uiso   1.00
O269   O     0.17198   0.49468   0.33749   0.00000  Uiso   1.00
O270   O     0.29245   0.39108   0.03559   0.00000  Uiso   1.00
O271   O     0.13842   0.65286   0.32570   0.00000  Uiso   1.00
O272   O     0.05174   0.49774   0.09768   0.00000  Uiso   1.00
O273   O     0.17849   0.41434   0.27820   0.00000  Uiso   1.00
O274   O     0.14581   0.59469   0.26767   0.00000  Uiso   1.00
O275   O     0.07452   0.46584   0.23607   0.00000  Uiso   1.00
O276   O     0.26785   0.52512   0.21805   0.00000  Uiso   1.00
O277   O     0.06990   0.52293   0.27820   0.00000  Uiso   1.00
O278   O     0.25440   0.48610   0.26767   0.00000  Uiso   1.00
O279   O     0.13800   0.40236   0.23607   0.00000  Uiso   1.00
O280   O     0.20437   0.58860   0.21805   0.00000  Uiso   1.00
Zn281  Zn    0.19244   0.47423   0.28277   0.00000  Uiso   1.00
Zn282  Zn    0.13459   0.45711   0.22257   0.00000  Uiso   1.00
Zn283  Zn    0.21166   0.52997   0.21188   0.00000  Uiso   1.00
Zn284  Zn    0.12798   0.53868   0.28277   0.00000  Uiso   1.00
C285   C     0.38584   0.49329   0.25896   0.00000  Uiso   1.00
C286   C     0.54532   0.47939   0.46040   0.00000  Uiso   1.00
C287   C     0.56878   0.46006   0.47895   0.00000  Uiso   1.00
C288   C     0.61436   0.50685   0.24126   0.00000  Uiso   1.00
C289   C     0.55122   0.45483   0.01962   0.00000  Uiso   1.00
C290   C     0.51406   0.47535   0.04100   0.00000  Uiso   1.00
C291   C     0.57116   0.43368   0.04096   0.00000  Uiso   1.00
C292   C     0.56152   0.44232   0.08191   0.00000  Uiso   1.00
C293   C     0.50736   0.48556   0.08172   0.00000  Uiso   1.00
C294   C     0.66034   0.50928   0.23766   0.00000  Uiso   1.00
C295   C     0.34042   0.49123   0.26264   0.00000  Uiso   1.00
C296   C     0.43114   0.54623   0.42174   0.00000  Uiso   1.00
C297   C     0.51165   0.65501   0.23825   0.00000  Uiso   1.00
C298   C     0.48520   0.34676   0.26483   0.00000  Uiso   1.00
C299   C     0.48996   0.38969   0.25874   0.00000  Uiso   1.00
C300   C     0.50999   0.61099   0.24173   0.00000  Uiso   1.00
C301   C     0.52147   0.47878   0.14416   0.00000  Uiso   1.00
C302   C     0.47877   0.52098   0.35622   0.00000  Uiso   1.00
C303   C     0.46754   0.52671   0.39948   0.00000  Uiso   1.00
C304   C     0.53111   0.46954   0.10177   0.00000  Uiso   1.00
C305   C     0.41755   0.54564   0.46246   0.00000  Uiso   1.00
C306   C     0.59708   0.39865   0.02263   0.00000  Uiso   1.00
C307   C     0.49173   0.50915   0.41858   0.00000  Uiso   1.00
C308   C     0.45778   0.33666   0.30435   0.00000  Uiso   1.00
C309   C     0.61506   0.45260   0.45544   0.00000  Uiso   1.00
C310   C     0.64851   0.48158   0.47161   0.00000  Uiso   1.00
C311   C     0.41760   0.48232   0.07756   0.00000  Uiso   1.00
C312   C     0.47954   0.50941   0.45984   0.00000  Uiso   1.00
C313   C     0.44060   0.52617   0.48144   0.00000  Uiso   1.00
C314   C     0.50392   0.49205   0.47993   0.00000  Uiso   1.00
C315   C     0.48713   0.48876   0.02093   0.00000  Uiso   1.00
C316   C     0.44408   0.49900   0.04023   0.00000  Uiso   1.00
C317   C     0.42324   0.52061   0.02113   0.00000  Uiso   1.00
H318   H     0.39143   0.53020   0.03635   0.00000  Uiso   1.00
H319   H     0.56121   0.48587   0.43058   0.00000  Uiso   1.00
H320   H     0.58977   0.37846   0.49812   0.00000  Uiso   1.00
H321   H     0.42593   0.34751   0.31568   0.00000  Uiso   1.00
H322   H     0.64334   0.51449   0.47170   0.00000  Uiso   1.00
H323   H     0.64665   0.47574   0.00194   0.00000  Uiso   1.00
H324   H     0.34819   0.47642   0.45261   0.00000  Uiso   1.00
H325   H     0.62123   0.41991   0.45321   0.00000  Uiso   1.00
H326   H     0.62124   0.45848   0.42425   0.00000  Uiso   1.00
H327   H     0.42655   0.45558   0.08714   0.00000  Uiso   1.00
H328   H     0.35006   0.52577   0.21454   0.00000  Uiso   1.00
H329   H     0.65138   0.47489   0.28618   0.00000  Uiso   1.00
H330   H     0.53421   0.33394   0.21225   0.00000  Uiso   1.00
H331   H     0.48470   0.50731   0.09817   0.00000  Uiso   1.00
H332   H     0.57696   0.42717   0.09860   0.00000  Uiso   1.00
H333   H     0.38801   0.55900   0.47897   0.00000  Uiso   1.00
H334   H     0.41193   0.55999   0.40757   0.00000  Uiso   1.00
H335   H     0.51866   0.49340   0.40027   0.00000  Uiso   1.00
O336   O     0.50000   0.50000   0.25000   0.00000  Uiso   1.00
O337   O     0.49027   0.45726   0.16625   0.00000  Uiso   1.00
O338   O     0.46020   0.53979   0.33749   0.00000  Uiso   1.00
O339   O     0.54421   0.50826   0.15877   0.00000  Uiso   1.00
O340   O     0.50532   0.49468   0.33749   0.00000  Uiso   1.00
O341   O     0.62578   0.39108   0.03559   0.00000  Uiso   1.00
O342   O     0.47176   0.65286   0.32570   0.00000  Uiso   1.00
O343   O     0.38507   0.49774   0.09768   0.00000  Uiso   1.00
O344   O     0.51182   0.41434   0.27820   0.00000  Uiso   1.00
O345   O     0.47914   0.59469   0.26767   0.00000  Uiso   1.00
O346   O     0.40785   0.46584   0.23607   0.00000  Uiso   1.00
O347   O     0.60119   0.52512   0.21805   0.00000  Uiso   1.00
O348   O     0.40323   0.52293   0.27820   0.00000  Uiso   1.00
O349   O     0.58773   0.48610   0.26767   0.00000  Uiso   1.00
O350   O     0.47133   0.40236   0.23607   0.00000  Uiso   1.00
O351   O     0.53771   0.58860   0.21805   0.00000  Uiso   1.00
Zn352  Zn    0.52577   0.47423   0.28277   0.00000  Uiso   1.00
Zn353  Zn    0.46792   0.45711   0.22257   0.00000  Uiso   1.00
Zn354  Zn    0.54500   0.52997   0.21188   0.00000  Uiso   1.00
Zn355  Zn    0.46131   0.53868   0.28277   0.00000  Uiso   1.00
C356   C     0.71917   0.49329   0.25896   0.00000  Uiso   1.00
C357   C     0.87865   0.47939   0.46040   0.00000  Uiso   1.00
C358   C     0.90211   0.46006   0.47895   0.00000  Uiso   1.00
C359   C     0.94769   0.50685   0.24126   0.00000  Uiso   1.00
C360   C     0.88455   0.45483   0.01962   0.00000  Uiso   1.00
C361   C     0.84739   0.47535   0.04100   0.00000  Uiso   1.00
C362   C     0.90449   0.43368   0.04096   0.00000  Uiso   1.00
C363   C     0.89486   0.44232   0.08191   0.00000  Uiso   1.00
C364   C     0.84069   0.48556   0.08172   0.00000  Uiso   1.00
C365   C     0.99367   0.50928   0.23766   0.00000  Uiso   1.00
C366   C     0.67375   0.49123   0.26264   0.00000  Uiso   1.00
C367   C     0.76448   0.54623   0.42174   0.00000  Uiso   1.00
C368   C     0.84499   0.65501   0.23825   0.00000  Uiso   1.00
C369   C     0.81853   0.34676   0.26483   0.00000  Uiso   1.00
C370   C     0.82329   0.38969   0.25874   0.00000  Uiso   1.00
C371   C     0.84332   0.61099   0.24173   0.00000  Uiso   1.00
C372   C     0.85480   0.47878   0.14416   0.00000  Uiso   1.00
C373   C     0.81211   0.52098   0.35622   0.00000  Uiso   1.00
C374   C     0.80087   0.52671   0.39948   0.00000  Uiso   1.00
C375   C     0.86444   0.46954   0.10177   0.00000  Uiso   1.00
C376   C     0.75088   0.54564   0.46246   0.00000  Uiso   1.00
C377   C     0.93041   0.39865   0.02263   0.00000  Uiso   1.00
C378   C     0.82506   0.50915   0.41858   0.00000  Uiso   1.00
C379   C     0.79111   0.33666   0.30435   0.00000  Uiso   1.00
C380   C     0.94839   0.45260   0.45544   0.00000  Uiso   1.00
C381   C     0.98185   0.48158   0.47161   0.00000  Uiso   1.00
C382   C     0.75093   0.48232   0.07756   0.00000  Uiso   1.00
C383   C     0.81287   0.50941   0.45984   0.00000  Uiso   1.00
C384   C     0.77394   0.52617   0.48144   0.00000  Uiso   1.00
C385   C     0.83725   0.49205   0.47993   0.00000  Uiso   1.00
C386   C     0.82046   0.48876   0.02093   0.00000  Uiso   1.00
C387   C     0.77741   0.49900   0.04023   0.00000  Uiso   1.00
C388   C     0.75657   0.52061   0.02113   0.00000  Uiso   1.00
H389   H     0.72476   0.53020   0.03635   0.00000  Uiso   1.00
H390   H     0.89455   0.48587   0.43058   0.00000  Uiso   1.00
H391   H     0.92310   0.37846   0.49812   0.00000  Uiso   1.00
H392   H     0.75927   0.34751   0.31568   0.00000  Uiso   1.00
H393   H     0.97668   0.51449   0.47170   0.00000  Uiso   1.00
H394   H     0.97998   0.47574   0.00194   0.00000  Uiso   1.00
H395   H     0.68152   0.47642   0.45261   0.00000  Uiso   1.00
H396   H     0.95456   0.41991   0.45321   0.00000  Uiso   1.00
H397   H     0.95458   0.45848   0.42425   0.00000  Uiso   1.00
H398   H     0.75988   0.45558   0.08714   0.00000  Uiso   1.00
H399   H     0.68339   0.52577   0.21454   0.00000  Uiso   1.00
H400   H     0.98471   0.47489   0.28618   0.00000  Uiso   1.00
H401   H     0.86754   0.33394   0.21225   0.00000  Uiso   1.00
H402   H     0.81803   0.50731   0.09817   0.00000  Uiso   1.00
H403   H     0.91029   0.42717   0.09860   0.00000  Uiso   1.00
H404   H     0.72134   0.55900   0.47897   0.00000  Uiso   1.00
H405   H     0.74526   0.55999   0.40757   0.00000  Uiso   1.00
H406   H     0.85199   0.49340   0.40027   0.00000  Uiso   1.00
O407   O     0.83333   0.50000   0.25000   0.00000  Uiso   1.00
O408   O     0.82360   0.45726   0.16625   0.00000  Uiso   1.00
O409   O     0.79354   0.53979   0.33749   0.00000  Uiso   1.00
O410   O     0.87755   0.50826   0.15877   0.00000  Uiso   1.00
O411   O     0.83865   0.49468   0.33749   0.00000  Uiso   1.00
O412   O     0.95911   0.39108   0.03559   0.00000  Uiso   1.00
O413   O     0.80509   0.65286   0.32570   0.00000  Uiso   1.00
O414   O     0.71840   0.49774   0.09768   0.00000  Uiso   1.00
O415   O     0.84515   0.41434   0.27820   0.00000  Uiso   1.00
O416   O     0.81247   0.59469   0.26767   0.00000  Uiso   1.00
O417   O     0.74119   0.46584   0.23607   0.00000  Uiso   1.00
O418   O     0.93452   0.52512   0.21805   0.00000  Uiso   1.00
O419   O     0.73656   0.52293   0.27820   0.00000  Uiso   1.00
O420   O     0.92106   0.48610   0.26767   0.00000  Uiso   1.00
O421   O     0.80467   0.40236   0.23607   0.00000  Uiso   1.00
O422   O     0.87104   0.58860   0.21805   0.00000  Uiso   1.00
Zn423  Zn    0.85910   0.47423   0.28277   0.00000  Uiso   1.00
Zn424  Zn    0.80125   0.45711   0.22257   0.00000  Uiso   1.00
Zn425  Zn    0.87833   0.52997   0.21188   0.00000  Uiso   1.00
Zn426  Zn    0.79465   0.53868   0.28277   0.00000  Uiso   1.00
C427   C     0.05251   0.82662   0.25896   0.00000  Uiso   1.00
C428   C     0.21198   0.81272   0.46040   0.00000  Uiso   1.00
C429   C     0.23544   0.79339   0.47895   0.00000  Uiso   1.00
C430   C     0.28102   0.84018   0.24126   0.00000  Uiso   1.00
C431   C     0.21788   0.78817   0.01962   0.00000  Uiso   1.00
C432   C     0.18072   0.80868   0.04100   0.00000  Uiso   1.00
C433   C     0.23783   0.76701   0.04096   0.00000  Uiso   1.00
C434   C     0.22819   0.77566   0.08191   0.00000  Uiso   1.00
C435   C     0.17402   0.81889   0.08172   0.00000  Uiso   1.00
C436   C     0.32700   0.84262   0.23766   0.00000  Uiso   1.00
C437   C     0.00708   0.82456   0.26264   0.00000  Uiso   1.00
C438   C     0.09781   0.87956   0.42174   0.00000  Uiso   1.00
C439   C     0.17832   0.98834   0.23825   0.00000  Uiso   1.00
C440   C     0.15187   0.68009   0.26483   0.00000  Uiso   1.00
C441   C     0.15662   0.72302   0.25874   0.00000  Uiso   1.00
C442   C     0.17665   0.94432   0.24173   0.00000  Uiso   1.00
C443   C     0.18814   0.81212   0.14416   0.00000  Uiso   1.00
C444   C     0.14544   0.85431   0.35622   0.00000  Uiso   1.00
C445   C     0.13420   0.86005   0.39948   0.00000  Uiso   1.00
C446   C     0.19778   0.80287   0.10177   0.00000  Uiso   1.00
C447   C     0.08422   0.87897   0.46246   0.00000  Uiso   1.00
C448   C     0.26374   0.73198   0.02263   0.00000  Uiso   1.00
C449   C     0.15840   0.84249   0.41858   0.00000  Uiso   1.00
C450   C     0.12445   0.66999   0.30435   0.00000  Uiso   1.00
C451   C     0.28173   0.78593   0.45544   0.00000  Uiso   1.00
C452   C     0.31518   0.81492   0.47161   0.00000  Uiso   1.00
C453   C     0.08427   0.81565   0.07756   0.00000  Uiso   1.00
C454   C     0.14621   0.84275   0.45984   0.00000  Uiso   1.00
C455   C     0.10727   0.85950   0.48144   0.00000  Uiso   1.00
C456   C     0.17059   0.82538   0.47993   0.00000  Uiso   1.00
C457   C     0.15380   0.82210   0.02093   0.00000  Uiso   1.00
C458   C     0.11075   0.83233   0.04023   0.00000  Uiso   1.00
C459   C     0.08991   0.85394   0.02113   0.00000  Uiso   1.00
H460   H     0.05809   0.86353   0.03635   0.00000  Uiso   1.00
H461   H     0.22788   0.81920   0.43058   0.00000  Uiso   1.00
H462   H     0.25644   0.71179   0.49812   0.00000  Uiso   1.00
H463   H     0.09260   0.68084   0.31568   0.00000  Uiso   1.00
H464   H     0.31001   0.84782   0.47170   0.00000  Uiso   1.00
H465   H     0.31332   0.80907   0.00194   0.00000  Uiso   1.00
H466   H     0.01486   0.80976   0.45261   0.00000  Uiso   1.00
H467   H     0.28789   0.75324   0.45321   0.00000  Uiso   1.00
H468   H     0.28791   0.79181   0.42425   0.00000  Uiso   1.00
H469   H     0.09321   0.78891   0.08714   0.00000  Uiso   1.00
H470   H     0.01673   0.85910   0.21454   0.00000  Uiso   1.00
H471   H     0.31804   0.80822   0.28618   0.00000  Uiso   1.00
H472   H     0.20088   0.66727   0.21225   0.00000  Uiso   1.00
H473   H     0.15137   0.84064   0.09817   0.00000  Uiso   1.00
H474   H     0.24363   0.76050   0.09860   0.00000  Uiso   1.00
H475   H     0.05467   0.89234   0.47897   0.00000  Uiso   1.00
H476   H     0.07860   0.89332   0.40757   0.00000  Uiso   1.00
H477   H     0.18533   0.82673   0.40027   0.00000  Uiso   1.00
O478   O     0.16667   0.83333   0.25000   0.00000  Uiso   1.00
O479   O     0.15693   0.79060   0.16625   0.00000  Uiso   1.00
O480   O     0.12687   0.87313   0.33749   0.00000  Uiso   1.00
O481   O     0.21088   0.84159   0.15877   0.00000  Uiso   1.00
O482   O     0.17198   0.82802   0.33749   0.00000  Uiso   1.00
O483   O     0.29245   0.72441   0.03559   0.00000  Uiso   1.00
O484   O     0.13842   0.98619   0.32570   0.00000  Uiso   1.00
O485   O     0.05174   0.83107   0.09768   0.00000  Uiso   1.00
O486   O     0.17849   0.74768   0.27820   0.00000  Uiso   1.00
O487   O     0.14581   0.92803   0.26767   0.00000  Uiso   1.00
O488   O     0.07452   0.79917   0.23607   0.00000  Uiso   1.00
O489   O     0.26785   0.85845   0.21805   0.00000  Uiso   1.00
O490   O     0.06990   0.85627   0.27820   0.00000  Uiso   1.00
O491   O     0.25440   0.81944   0.26767   0.00000  Uiso   1.00
O492   O     0.13800   0.73570   0.23607   0.00000  Uiso   1.00
O493   O     0.20437   0.92193   0.21805   0.00000  Uiso   1.00
Zn494  Zn    0.19244   0.80756   0.28277   0.00000  Uiso   1.00
Zn495  Zn    0.13459   0.79044   0.22257   0.00000  Uiso   1.00
Zn496  Zn    0.21166   0.86331   0.21188   0.00000  Uiso   1.00
Zn497  Zn    0.12798   0.87202   0.28277   0.00000  Uiso   1.00
C498   C     0.38584   0.82662   0.25896   0.00000  Uiso   1.00
C499   C     0.54532   0.81272   0.46040   0.00000  Uiso   1.00
C500   C     0.56878   0.79339   0.47895   0.00000  Uiso   1.00
C501   C     0.61436   0.84018   0.24126   0.00000  Uiso   1.00
C502   C     0.55122   0.78817   0.01962   0.00000  Uiso   1.00
C503   C     0.51406   0.80868   0.04100   0.00000  Uiso   1.00
C504   C     0.57116   0.76701   0.04096   0.00000  Uiso   1.00
C505   C     0.56152   0.77566   0.08191   0.00000  Uiso   1.00
C506   C     0.50736   0.81889   0.08172   0.00000  Uiso   1.00
C507   C     0.66034   0.84262   0.23766   0.00000  Uiso   1.00
C508   C     0.34042   0.82456   0.26264   0.00000  Uiso   1.00
C509   C     0.43114   0.87956   0.42174   0.00000  Uiso   1.00
C510   C     0.51165   0.98834   0.23825   0.00000  Uiso   1.00
C511   C     0.48520   0.68009   0.26483   0.00000  Uiso   1.00
C512   C     0.48996   0.72302   0.25874   0.00000  Uiso   1.00
C513   C     0.50999   0.94432   0.24173   0.00000  Uiso   1.00
C514   C     0.52147   0.81212   0.14416   0.00000  Uiso   1.00
C515   C     0.47877   0.85431   0.35622   0.00000  Uiso   1.00
C516   C     0.46754   0.86005   0.39948   0.00000  Uiso   1.00
C517   C     0.53111   0.80287   0.10177   0.00000  Uiso   1.00
C518   C     0.41755   0.87897   0.46246   0.00000  Uiso   1.00
C519   C     0.59708   0.73198   0.02263   0.00000  Uiso   1.00
C520   C     0.49173   0.84249   0.41858   0.00000  Uiso   1.00
C521   C     0.45778   0.66999   0.30435   0.00000  Uiso   1.00
C522   C     0.61506   0.78593   0.45544   0.00000  Uiso   1.00
C523   C     0.64851   0.81492   0.47161   0.00000  Uiso   1.00
C524   C     0.41760   0.81565   0.07756   0.00000  Uiso   1.00
C525   C     0.47954   0.84275   0.45984   0.00000  Uiso   1.00
C526   C     0.44060   0.85950   0.48144   0.00000  Uiso   1.00
C527   C     0.50392   0.82538   0.47993   0.00000  Uiso   1.00
C528   C     0.48713   0.82210   0.02093   0.00000  Uiso   1.00
C529   C     0.44408   0.83233   0.04023   0.00000  Uiso   1.00
C530   C     0.42324   0.85394   0.02113   0.00000  Uiso   1.00
H531   H     0.39143   0.86353   0.03635   0.00000  Uiso   1.00
H532   H     0.56121   0.81920   0.43058   0.00000  Uiso   1.00
H533   H     0.58977   0.71179   0.49812   0.00000  Uiso   1.00
H534   H     0.42593   0.68084   0.31568   0.00000  Uiso   1.00
H535   H     0.64334   0.84782   0.47170   0.00000  Uiso   1.00
H536   H     0.64665   0.80907   0.00194   0.00000  Uiso   1.00
H537   H     0.34819   0.80976   0.45261   0.00000  Uiso   1.00
H538   H     0.62123   0.75324   0.45321   0.00000  Uiso   1.00
H539   H     0.62124   0.79181   0.42425   0.00000  Uiso   1.00
H540   H     0.42655   0.78891   0.08714   0.00000  Uiso   1.00
H541   H     0.35006   0.85910   0.21454   0.00000  Uiso   1.00
H542   H     0.65138   0.80822   0.28618   0.00000  Uiso   1.00
H543   H     0.53421   0.66727   0.21225   0.00000  Uiso   1.00
H544   H     0.48470   0.84064   0.09817   0.00000  Uiso   1.00
H545   H     0.57696   0.76050   0.09860   0.00000  Uiso   1.00
H546   H     0.38801   0.89234   0.47897   0.00000  Uiso   1.00
H547   H     0.41193   0.89332   0.40757   0.00000  Uiso   1.00
H548   H     0.51866   0.82673   0.40027   0.00000  Uiso   1.00
O549   O     0.50000   0.83333   0.25000   0.00000  Uiso   1.00
O550   O     0.49027   0.79060   0.16625   0.00000  Uiso   1.00
O551   O     0.46020   0.87313   0.33749   0.00000  Uiso   1.00
O552   O     0.54421   0.84159   0.15877   0.00000  Uiso   1.00
O553   O     0.50532   0.82802   0.33749   0.00000  Uiso   1.00
O554   O     0.62578   0.72441   0.03559   0.00000  Uiso   1.00
O555   O     0.47176   0.98619   0.32570   0.00000  Uiso   1.00
O556   O     0.38507   0.83107   0.09768   0.00000  Uiso   1.00
O557   O     0.51182   0.74768   0.27820   0.00000  Uiso   1.00
O558   O     0.47914   0.92803   0.26767   0.00000  Uiso   1.00
O559   O     0.40785   0.79917   0.23607   0.00000  Uiso   1.00
O560   O     0.60119   0.85845   0.21805   0.00000  Uiso   1.00
O561   O     0.40323   0.85627   0.27820   0.00000  Uiso   1.00
O562   O     0.58773   0.81944   0.26767   0.00000  Uiso   1.00
O563   O     0.47133   0.73570   0.23607   0.00000  Uiso   1.00
O564   O     0.53771   0.92193   0.21805   0.00000  Uiso   1.00
Zn565  Zn    0.52577   0.80756   0.28277   0.00000  Uiso   1.00
Zn566  Zn    0.46792   0.79044   0.22257   0.00000  Uiso   1.00
Zn567  Zn    0.54500   0.86331   0.21188   0.00000  Uiso   1.00
Zn568  Zn    0.46131   0.87202   0.28277   0.00000  Uiso   1.00
C569   C     0.71917   0.82662   0.25896   0.00000  Uiso   1.00
C570   C     0.87865   0.81272   0.46040   0.00000  Uiso   1.00
C571   C     0.90211   0.79339   0.47895   0.00000  Uiso   1.00
C572   C     0.94769   0.84018   0.24126   0.00000  Uiso   1.00
C573   C     0.88455   0.78817   0.01962   0.00000  Uiso   1.00
C574   C     0.84739   0.80868   0.04100   0.00000  Uiso   1.00
C575   C     0.90449   0.76701   0.04096   0.00000  Uiso   1.00
C576   C     0.89486   0.77566   0.08191   0.00000  Uiso   1.00
C577   C     0.84069   0.81889   0.08172   0.00000  Uiso   1.00
C578   C     0.99367   0.84262   0.23766   0.00000  Uiso   1.00
C579   C     0.67375   0.82456   0.26264   0.00000  Uiso   1.00
C580   C     0.76448   0.87956   0.42174   0.00000  Uiso   1.00
C581   C     0.84499   0.98834   0.23825   0.00000  Uiso   1.00
C582   C     0.81853   0.68009   0.26483   0.00000  Uiso   1.00
C583   C     0.82329   0.72302   0.25874   0.00000  Uiso   1.00
C584   C     0.84332   0.94432   0.24173   0.00000  Uiso   1.00
C585   C     0.85480   0.81212   0.14416   0.00000  Uiso   1.00
C586   C     0.81211   0.85431   0.35622   0.00000  Uiso   1.00
C587   C     0.80087   0.86005   0.39948   0.00000  Uiso   1.00
C588   C     0.86444   0.80287   0.10177   0.00000  Uiso   1.00
C589   C     0.75088   0.87897   0.46246   0.00000  Uiso   1.00
C590   C     0.93041   0.73198   0.02263   0.00000  Uiso   1.00
C591   C     0.82506   0.84249   0.41858   0.00000  Uiso   1.00
C592   C     0.79111   0.66999   0.30435   0.00000  Uiso   1.00
C593   C     0.94839   0.78593   0.45544   0.00000  Uiso   1.00
C594   C     0.98185   0.81492   0.47161   0.00000  Uiso   1.00
C595   C     0.75093   0.81565   0.07756   0.00000  Uiso   1.00
C596   C     0.81287   0.84275   0.45984   0.00000  Uiso   1.00
C597   C     0.77394   0.85950   0.48144   0.00000  Uiso   1.00
C598   C     0.83725   0.82538   0.47993   0.00000  Uiso   1.00
C599   C     0.82046   0.82210   0.02093   0.00000  Uiso   1.00
C600   C     0.77741   0.83233   0.04023   0.00000  Uiso   1.00
C601   C     0.75657   0.85394   0.02113   0.00000  Uiso   1.00
H602   H     0.72476   0.86353   0.03635   0.00000  Uiso   1.00
H603   H     0.89455   0.81920   0.43058   0.00000  Uiso   1.00
H604   H     0.92310   0.71179   0.49812   0.00000  Uiso   1.00
H605   H     0.75927   0.68084   0.31568   0.00000  Uiso   1.00
H606   H     0.97668   0.84782   0.47170   0.00000  Uiso   1.00
H607   H     0.97998   0.80907   0.00194   0.00000  Uiso   1.00
H608   H     0.68152   0.80976   0.45261   0.00000  Uiso   1.00
H609   H     0.95456   0.75324   0.45321   0.00000  Uiso   1.00
H610   H     0.95458   0.79181   0.42425   0.00000  Uiso   1.00
H611   H     0.75988   0.78891   0.08714   0.00000  Uiso   1.00
H612   H     0.68339   0.85910   0.21454   0.00000  Uiso   1.00
H613   H     0.98471   0.80822   0.28618   0.00000  Uiso   1.00
H614   H     0.86754   0.66727   0.21225   0.00000  Uiso   1.00
H615   H     0.81803   0.84064   0.09817   0.00000  Uiso   1.00
H616   H     0.91029   0.76050   0.09860   0.00000  Uiso   1.00
H617   H     0.72134   0.89234   0.47897   0.00000  Uiso   1.00
H618   H     0.74526   0.89332   0.40757   0.00000  Uiso   1.00
H619   H     0.85199   0.82673   0.40027   0.00000  Uiso   1.00
O620   O     0.83333   0.83333   0.25000   0.00000  Uiso   1.00
O621   O     0.82360   0.79060   0.16625   0.00000  Uiso   1.00
O622   O     0.79354   0.87313   0.33749   0.00000  Uiso   1.00
O623   O     0.87755   0.84159   0.15877   0.00000  Uiso   1.00
O624   O     0.83865   0.82802   0.33749   0.00000  Uiso   1.00
O625   O     0.95911   0.72441   0.03559   0.00000  Uiso   1.00
O626   O     0.80509   0.98619   0.32570   0.00000  Uiso   1.00
O627   O     0.71840   0.83107   0.09768   0.00000  Uiso   1.00
O628   O     0.84515   0.74768   0.27820   0.00000  Uiso   1.00
O629   O     0.81247   0.92803   0.26767   0.00000  Uiso   1.00
O630   O     0.74119   0.79917   0.23607   0.00000  Uiso   1.00
O631   O     0.93452   0.85845   0.21805   0.00000  Uiso   1.00
O632   O     0.73656   0.85627   0.27820   0.00000  Uiso   1.00
O633   O     0.92106   0.81944   0.26767   0.00000  Uiso   1.00
O634   O     0.80467   0.73570   0.23607   0.00000  Uiso   1.00
O635   O     0.87104   0.92193   0.21805   0.00000  Uiso   1.00
Zn636  Zn    0.85910   0.80756   0.28277   0.00000  Uiso   1.00
Zn637  Zn    0.80125   0.79044   0.22257   0.00000  Uiso   1.00
Zn638  Zn    0.87833   0.86331   0.21188   0.00000  Uiso   1.00
Zn639  Zn    0.79465   0.87202   0.28277   0.00000  Uiso   1.00
C640   C     0.05251   0.15995   0.75896   0.00000  Uiso   1.00
C641   C     0.21198   0.14605   0.96040   0.00000  Uiso   1.00
C642   C     0.23544   0.12673   0.97895   0.00000  Uiso   1.00
C643   C     0.28102   0.17352   0.74126   0.00000  Uiso   1.00
C644   C     0.21788   0.12150   0.51962   0.00000  Uiso   1.00
C645   C     0.18072   0.14201   0.54100   0.00000  Uiso   1.00
C646   C     0.23783   0.10035   0.54096   0.00000  Uiso   1.00
C647   C     0.22819   0.10899   0.58191   0.00000  Uiso   1.00
C648   C     0.17402   0.15223   0.58172   0.00000  Uiso   1.00
C649   C     0.32700   0.17595   0.73766   0.00000  Uiso   1.00
C650   C     0.00708   0.15790   0.76264   0.00000  Uiso   1.00
C651   C     0.09781   0.21290   0.92174   0.00000  Uiso   1.00
C652   C     0.17832   0.32168   0.73825   0.00000  Uiso   1.00
C653   C     0.15187   0.01342   0.76483   0.00000  Uiso   1.00
C654   C     0.15662   0.05635   0.75874   0.00000  Uiso   1.00
C655   C     0.17665   0.27766   0.74173   0.00000  Uiso   1.00
C656   C     0.18814   0.14545   0.64416   0.00000  Uiso   1.00
C657   C     0.14544   0.18764   0.85622   0.00000  Uiso   1.00
C658   C     0.13420   0.19338   0.89948   0.00000  Uiso   1.00
C659   C     0.19778   0.13621   0.60177   0.00000  Uiso   1.00
C660   C     0.08422   0.21231   0.96246   0.00000  Uiso   1.00
C661   C     0.26374   0.06532   0.52263   0.00000  Uiso   1.00
C662   C     0.15840   0.17582   0.91858   0.00000  Uiso   1.00
C663   C     0.12445   0.00333   0.80435   0.00000  Uiso   1.00
C664   C     0.28173   0.11927   0.95544   0.00000  Uiso   1.00
C665   C     0.31518   0.14825   0.97161   0.00000  Uiso   1.00
C666   C     0.08427   0.14898   0.57756   0.00000  Uiso   1.00
C667   C     0.14621   0.17608   0.95984   0.00000  Uiso   1.00
C668   C     0.10727   0.19283   0.98144   0.00000  Uiso   1.00
C669   C     0.17059   0.15871   0.97993   0.00000  Uiso   1.00
C670   C     0.15380   0.15543   0.52093   0.00000  Uiso   1.00
C671   C     0.11075   0.16567   0.54023   0.00000  Uiso   1.00
C672   C     0.08991   0.18727   0.52113   0.00000  Uiso   1.00
H673   H     0.05809   0.19686   0.53635   0.00000  Uiso   1.00
H674   H     0.22788   0.15253   0.93058   0.00000  Uiso   1.00
H675   H     0.25644   0.04513   0.99812   0.00000  Uiso   1.00
H676   H     0.09260   0.01418   0.81568   0.00000  Uiso   1.00
H677   H     0.31001   0.18115   0.97170   0.00000  Uiso   1.00
H678   H     0.31332   0.14241   0.50194   0.00000  Uiso   1.00
H679   H     0.01486   0.14309   0.95261   0.00000  Uiso   1.00
H680   H     0.28789   0.08657   0.95321   0.00000  Uiso   1.00
H681   H     0.28791   0.12515   0.92425   0.00000  Uiso   1.00
H682   H     0.09321   0.12225   0.58714   0.00000  Uiso   1.00
H683   H     0.01673   0.19243   0.71454   0.00000  Uiso   1.00
H684   H     0.31804   0.14156   0.78618   0.00000  Uiso   1.00
H685   H     0.20088   0.00060   0.71225   0.00000  Uiso   1.00
H686   H     0.15137   0.17398   0.59817   0.00000  Uiso   1.00
H687   H     0.24363   0.09383   0.59860   0.00000  Uiso   1.00
H688   H     0.05467   0.22567   0.97897   0.00000  Uiso   1.00
H689   H     0.07860   0.22665   0.90757   0.00000  Uiso   1.00
H690   H     0.18533   0.16006   0.90027   0.00000  Uiso   1.00
O691   O     0.16667   0.16667   0.75000   0.00000  Uiso   1.00
O692   O     0.15693   0.12393   0.66625   0.00000  Uiso   1.00
O693   O     0.12687   0.20646   0.83749   0.00000  Uiso   1.00
O694   O     0.21088   0.17493   0.65877   0.00000  Uiso   1.00
O695   O     0.17198   0.16135   0.83749   0.00000  Uiso   1.00
O696   O     0.29245   0.05774   0.53559   0.00000  Uiso   1.00
O697   O     0.13842   0.31952   0.82570   0.00000  Uiso   1.00
O698   O     0.05174   0.16440   0.59768   0.00000  Uiso   1.00
O699   O     0.17849   0.08101   0.77820   0.00000  Uiso   1.00
O700   O     0.14581   0.26136   0.76767   0.00000  Uiso   1.00
O701   O     0.07452   0.13251   0.73607   0.00000  Uiso   1.00
O702   O     0.26785   0.19179   0.71805   0.00000  Uiso   1.00
O703   O     0.06990   0.18960   0.77820   0.00000  Uiso   1.00
O704   O     0.25440   0.15277   0.76767   0.00000  Uiso   1.00
O705   O     0.13800   0.06903   0.73607   0.00000  Uiso   1.00
O706   O     0.20437   0.25527   0.71805   0.00000  Uiso   1.00
Zn707  Zn    0.19244   0.14090   0.78277   0.00000  Uiso   1.00
Zn708  Zn    0.13459   0.12378   0.72257   0.00000  Uiso   1.00
Zn709  Zn    0.21166   0.19664   0.71188   0.00000  Uiso   1.00
Zn710  Zn    0.12798   0.20535   0.78277   0.00000  Uiso   1.00
C711   C     0.38584   0.15995   0.75896   0.00000  Uiso   1.00
C712   C     0.54532   0.14605   0.96040   0.00000  Uiso   1.00
C713   C     0.56878   0.12673   0.97895   0.00000  Uiso   1.00
C714   C     0.61436   0.17352   0.74126   0.00000  Uiso   1.00
C715   C     0.55122   0.12150   0.51962   0.00000  Uiso   1.00
C716   C     0.51406   0.14201   0.54100   0.00000  Uiso   1.00
C717   C     0.57116   0.10035   0.54096   0.00000  Uiso   1.00
C718   C     0.56152   0.10899   0.58191   0.00000  Uiso   1.00
C719   C     0.50736   0.15223   0.58172   0.00000  Uiso   1.00
C720   C     0.66034   0.17595   0.73766   0.00000  Uiso   1.00
C721   C     0.34042   0.15790   0.76264   0.00000  Uiso   1.00
C722   C     0.43114   0.21290   0.92174   0.00000  Uiso   1.00
C723   C     0.51165   0.32168   0.73825   0.00000  Uiso   1.00
C724   C     0.48520   0.01342   0.76483   0.00000  Uiso   1.00
C725   C     0.48996   0.05635   0.75874   0.00000  Uiso   1.00
C726   C     0.50999   0.27766   0.74173   0.00000  Uiso   1.00
C727   C     0.52147   0.14545   0.64416   0.00000  Uiso   1.00
C728   C     0.47877   0.18764   0.85622   0.00000  Uiso   1.00
C729   C     0.46754   0.19338   0.89948   0.00000  Uiso   1.00
C730   C     0.53111   0.13621   0.60177   0.00000  Uiso   1.00
C731   C     0.41755   0.21231   0.96246   0.00000  Uiso   1.00
C732   C     0.59708   0.06532   0.52263   0.00000  Uiso   1.00
C733   C     0.49173   0.17582   0.91858   0.00000  Uiso   1.00
C734   C     0.45778   0.00333   0.80435   0.00000  Uiso   1.00
C735   C     0.61506   0.11927   0.95544   0.00000  Uiso   1.00
C736   C     0.64851   0.14825   0.97161   0.00000  Uiso   1.00
C737   C     0.41760   0.14898   0.57756   0.00000  Uiso   1.00
C738   C     0.47954   0.17608   0.95984   0.00000  Uiso   1.00
C739   C     0.44060   0.19283   0.98144   0.00000  Uiso   1.00
C740   C     0.50392   0.15871   0.97993   0.00000  Uiso   1.00
C741   C     0.48713   0.15543   0.52093   0.00000  Uiso   1.00
C742   C     0.44408   0.16567   0.54023   0.00000  Uiso   1.00
C743   C     0.42324   0.18727   0.52113   0.00000  Uiso   1.00
H744   H     0.39143   0.19686   0.53635   0.00000  Uiso   1.00
H745   H     0.56121   0.15253   0.93058   0.00000  Uiso   1.00
H746   H     0.58977   0.04513   0.99812   0.00000  Uiso   1.00
H747   H     0.42593   0.01418   0.81568   0.00000  Uiso   1.00
H748   H     0.64334   0.18115   0.97170   0.00000  Uiso   1.00
H749   H     0.64665   0.14241   0.50194   0.00000  Uiso   1.00
H750   H     0.34819   0.14309   0.95261   0.00000  Uiso   1.00
H751   H     0.62123   0.08657   0.95321   0.00000  Uiso   1.00
H752   H     0.62124   0.12515   0.92425   0.00000  Uiso   1.00
H753   H     0.42655   0.12225   0.58714   0.00000  Uiso   1.00
H754   H     0.35006   0.19243   0.71454   0.00000  Uiso   1.00
H755   H     0.65138   0.14156   0.78618   0.00000  Uiso   1.00
H756   H     0.53421   0.00060   0.71225   0.00000  Uiso   1.00
H757   H     0.48470   0.17398   0.59817   0.00000  Uiso   1.00
H758   H     0.57696   0.09383   0.59860   0.00000  Uiso   1.00
H759   H     0.38801   0.22567   0.97897   0.00000  Uiso   1.00
H760   H     0.41193   0.22665   0.90757   0.00000  Uiso   1.00
H761   H     0.51866   0.16006   0.90027   0.00000  Uiso   1.00
O762   O     0.50000   0.16667   0.75000   0.00000  Uiso   1.00
O763   O     0.49027   0.12393   0.66625   0.00000  Uiso   1.00
O764   O     0.46020   0.20646   0.83749   0.00000  Uiso   1.00
O765   O     0.54421   0.17493   0.65877   0.00000  Uiso   1.00
O766   O     0.50532   0.16135   0.83749   0.00000  Uiso   1.00
O767   O     0.62578   0.05774   0.53559   0.00000  Uiso   1.00
O768   O     0.47176   0.31952   0.82570   0.00000  Uiso   1.00
O769   O     0.38507   0.16440   0.59768   0.00000  Uiso   1.00
O770   O     0.51182   0.08101   0.77820   0.00000  Uiso   1.00
O771   O     0.47914   0.26136   0.76767   0.00000  Uiso   1.00
O772   O     0.40785   0.13251   0.73607   0.00000  Uiso   1.00
O773   O     0.60119   0.19179   0.71805   0.00000  Uiso   1.00
O774   O     0.40323   0.18960   0.77820   0.00000  Uiso   1.00
O775   O     0.58773   0.15277   0.76767   0.00000  Uiso   1.00
O776   O     0.47133   0.06903   0.73607   0.00000  Uiso   1.00
O777   O     0.53771   0.25527   0.71805   0.00000  Uiso   1.00
Zn778  Zn    0.52577   0.14090   0.78277   0.00000  Uiso   1.00
Zn779  Zn    0.46792   0.12378   0.72257   0.00000  Uiso   1.00
Zn780  Zn    0.54500   0.19664   0.71188   0.00000  Uiso   1.00
Zn781  Zn    0.46131   0.20535   0.78277   0.00000  Uiso   1.00
C782   C     0.71917   0.15995   0.75896   0.00000  Uiso   1.00
C783   C     0.87865   0.14605   0.96040   0.00000  Uiso   1.00
C784   C     0.90211   0.12673   0.97895   0.00000  Uiso   1.00
C785   C     0.94769   0.17352   0.74126   0.00000  Uiso   1.00
C786   C     0.88455   0.12150   0.51962   0.00000  Uiso   1.00
C787   C     0.84739   0.14201   0.54100   0.00000  Uiso   1.00
C788   C     0.90449   0.10035   0.54096   0.00000  Uiso   1.00
C789   C     0.89486   0.10899   0.58191   0.00000  Uiso   1.00
C790   C     0.84069   0.15223   0.58172   0.00000  Uiso   1.00
C791   C     0.99367   0.17595   0.73766   0.00000  Uiso   1.00
C792   C     0.67375   0.15790   0.76264   0.00000  Uiso   1.00
C793   C     0.76448   0.21290   0.92174   0.00000  Uiso   1.00
C794   C     0.84499   0.32168   0.73825   0.00000  Uiso   1.00
C795   C     0.81853   0.01342   0.76483   0.00000  Uiso   1.00
C796   C     0.82329   0.05635   0.75874   0.00000  Uiso   1.00
C797   C     0.84332   0.27766   0.74173   0.00000  Uiso   1.00
C798   C     0.85480   0.14545   0.64416   0.00000  Uiso   1.00
C799   C     0.81211   0.18764   0.85622   0.00000  Uiso   1.00
C800   C     0.80087   0.19338   0.89948   0.00000  Uiso   1.00
C801   C     0.86444   0.13621   0.60177   0.00000  Uiso   1.00
C802   C     0.75088   0.21231   0.96246   0.00000  Uiso   1.00
C803   C     0.93041   0.06532   0.52263   0.00000  Uiso   1.00
C804   C     0.82506   0.17582   0.91858   0.00000  Uiso   1.00
C805   C     0.79111   0.00333   0.80435   0.00000  Uiso   1.00
C806   C     0.94839   0.11927   0.95544   0.00000  Uiso   1.00
C807   C     0.98185   0.14825   0.97161   0.00000  Uiso   1.00
C808   C     0.75093   0.14898   0.57756   0.00000  Uiso   1.00
C809   C     0.81287   0.17608   0.95984   0.00000  Uiso   1.00
C810   C     0.77394   0.19283   0.98144   0.00000  Uiso   1.00
C811   C     0.83725   0.15871   0.97993   0.00000  Uiso   1.00
C812   C     0.82046   0.15543   0.52093   0.00000  Uiso   1.00
C813   C     0.77741   0.16567   0.54023   0.00000  Uiso   1.00
C814   C     0.75657   0.18727   0.52113   0.00000  Uiso   1.00
H815   H     0.72476   0.19686   0.53635   0.00000  Uiso   1.00
H816   H     0.89455   0.15253   0.93058   0.00000  Uiso   1.00
H817   H     0.92310   0.04513   0.99812   0.00000  Uiso   1.00
H818   H     0.75927   0.01418   0.81568   0.00000  Uiso   1.00
H819   H     0.97668   0.18115   0.97170   0.00000  Uiso   1.00
H820   H     0.97998   0.14241   0.50194   0.00000  Uiso   1.00
H821   H     0.68152   0.14309   0.95261   0.00000  Uiso   1.00
H822   H     0.95456   0.08657   0.95321   0.00000  Uiso   1.00
H823   H     0.95458   0.12515   0.92425   0.00000  Uiso   1.00
H824   H     0.75988   0.12225   0.58714   0.00000  Uiso   1.00
H825   H     0.68339   0.19243   0.71454   0.00000  Uiso   1.00
H826   H     0.98471   0.14156   0.78618   0.00000  Uiso   1.00
H827   H     0.86754   0.00060   0.71225   0.00000  Uiso   1.00
H828   H     0.81803   0.17398   0.59817   0.00000  Uiso   1.00
H829   H     0.91029   0.09383   0.59860   0.00000  Uiso   1.00
H830   H     0.72134   0.22567   0.97897   0.00000  Uiso   1.00
H831   H     0.74526   0.22665   0.90757   0.00000  Uiso   1.00
H832   H     0.85199   0.16006   0.90027   0.00000  Uiso   1.00
O833   O     0.83333   0.16667   0.75000   0.00000  Uiso   1.00
O834   O     0.82360   0.12393   0.66625   0.00000  Uiso   1.00
O835   O     0.79354   0.20646   0.83749   0.00000  Uiso   1.00
O836   O     0.87755   0.17493   0.65877   0.00000  Uiso   1.00
O837   O     0.83865   0.16135   0.83749   0.00000  Uiso   1.00
O838   O     0.95911   0.05774   0.53559   0.00000  Uiso   1.00
O839   O     0.80509   0.31952   0.82570   0.00000  Uiso   1.00
O840   O     0.71840   0.16440   0.59768   0.00000  Uiso   1.00
O841   O     0.84515   0.08101   0.77820   0.00000  Uiso   1.00
O842   O     0.81247   0.26136   0.76767   0.00000  Uiso   1.00
O843   O     0.74119   0.13251   0.73607   0.00000  Uiso   1.00
O844   O     0.93452   0.19179   0.71805   0.00000  Uiso   1.00
O845   O     0.73656   0.18960   0.77820   0.00000  Uiso   1.00
O846   O     0.92106   0.15277   0.76767   0.00000  Uiso   1.00
O847   O     0.80467   0.06903   0.73607   0.00000  Uiso   1.00
O848   O     0.87104   0.25527   0.71805   0.00000  Uiso   1.00
Zn849  Zn    0.85910   0.14090   0.78277   0.00000  Uiso   1.00
Zn850  Zn    0.80125   0.12378   0.72257   0.00000  Uiso   1.00
Zn851  Zn    0.87833   0.19664   0.71188   0.00000  Uiso   1.00
Zn852  Zn    0.79465   0.20535   0.78277   0.00000  Uiso   1.00
C853   C     0.05251   0.49329   0.75896   0.00000  Uiso   1.00
C854   C     0.21198   0.47939   0.96040   0.00000  Uiso   1.00
C855   C     0.23544   0.46006   0.97895   0.00000  Uiso   1.00
C856   C     0.28102   0.50685   0.74126   0.00000  Uiso   1.00
C857   C     0.21788   0.45483   0.51962   0.00000  Uiso   1.00
C858   C     0.18072   0.47535   0.54100   0.00000  Uiso   1.00
C859   C     0.23783   0.43368   0.54096   0.00000  Uiso   1.00
C860   C     0.22819   0.44232   0.58191   0.00000  Uiso   1.00
C861   C     0.17402   0.48556   0.58172   0.00000  Uiso   1.00
C862   C     0.32700   0.50928   0.73766   0.00000  Uiso   1.00
C863   C     0.00708   0.49123   0.76264   0.00000  Uiso   1.00
C864   C     0.09781   0.54623   0.92174   0.00000  Uiso   1.00
C865   C     0.17832   0.65501   0.73825   0.00000  Uiso   1.00
C866   C     0.15187   0.34676   0.76483   0.00000  Uiso   1.00
C867   C     0.15662   0.38969   0.75874   0.00000  Uiso   1.00
C868   C     0.17665   0.61099   0.74173   0.00000  Uiso   1.00
C869   C     0.18814   0.47878   0.64416   0.00000  Uiso   1.00
C870   C     0.14544   0.52098   0.85622   0.00000  Uiso   1.00
C871   C     0.13420   0.52671   0.89948   0.00000  Uiso   1.00
C872   C     0.19778   0.46954   0.60177   0.00000  Uiso   1.00
C873   C     0.08422   0.54564   0.96246   0.00000  Uiso   1.00
C874   C     0.26374   0.39865   0.52263   0.00000  Uiso   1.00
C875   C     0.15840   0.50915   0.91858   0.00000  Uiso   1.00
C876   C     0.12445   0.33666   0.80435   0.00000  Uiso   1.00
C877   C     0.28173   0.45260   0.95544   0.00000  Uiso   1.00
C878   C     0.31518   0.48158   0.97161   0.00000  Uiso   1.00
C879   C     0.08427   0.48232   0.57756   0.00000  Uiso   1.00
C880   C     0.14621   0.50941   0.95984   0.00000  Uiso   1.00
C881   C     0.10727   0.52617   0.98144   0.00000  Uiso   1.00
C882   C     0.17059   0.49205   0.97993   0.00000  Uiso   1.00
C883   C     0.15380   0.48876   0.52093   0.00000  Uiso   1.00
C884   C     0.11075   0.49900   0.54023   0.00000  Uiso   1.00
C885   C     0.08991   0.52061   0.52113   0.00000  Uiso   1.00
H886   H     0.05809   0.53020   0.53635   0.00000  Uiso   1.00
H887   H     0.22788   0.48587   0.93058   0.00000  Uiso   1.00
H888   H     0.25644   0.37846   0.99812   0.00000  Uiso   1.00
H889   H     0.09260   0.34751   0.81568   0.00000  Uiso   1.00
H890   H     0.31001   0.51449   0.97170   0.00000  Uiso   1.00
H891   H     0.31332   0.47574   0.50194   0.00000  Uiso   1.00
H892   H     0.01486   0.47642   0.95261   0.00000  Uiso   1.00
H893   H     0.28789   0.41991   0.95321   0.00000  Uiso   1.00
H894   H     0.28791   0.45848   0.92425   0.00000  Uiso   1.00
H895   H     0.09321   0.45558   0.58714   0.00000  Uiso   1.00
H896   H     0.01673   0.52577   0.71454   0.00000  Uiso   1.00
H897   H     0.31804   0.47489   0.78618   0.00000  Uiso   1.00
H898   H     0.20088   0.33394   0.71225   0.00000  Uiso   1.00
H899   H     0.15137   0.50731   0.59817   0.00000  Uiso   1.00
H900   H     0.24363   0.42717   0.59860   0.00000  Uiso   1.00
H901   H     0.05467   0.55900   0.97897   0.00000  Uiso   1.00
H902   H     0.07860   0.55999   0.90757   0.00000  Uiso   1.00
H903   H     0.18533   0.49340   0.90027   0.00000  Uiso   1.00
O904   O     0.16667   0.50000   0.75000   0.00000  Uiso   1.00
O905   O     0.15693   0.45726   0.66625   0.00000  Uiso   1.00
O906   O     0.12687   0.53979   0.83749   0.00000  Uiso   1.00
O907   O     0.21088   0.50826   0.65877   0.00000  Uiso   1.00
O908   O     0.17198   0.49468   0.83749   0.00000  Uiso   1.00
O909   O     0.29245   0.39108   0.53559   0.00000  Uiso   1.00
O910   O     0.13842   0.65286   0.82570   0.00000  Uiso   1.00
O911   O     0.05174   0.49774   0.59768   0.00000  Uiso   1.00
O912   O     0.17849   0.41434   0.77820   0.00000  Uiso   1.00
O913   O     0.14581   0.59469   0.76767   0.00000  Uiso   1.00
O914   O     0.07452   0.46584   0.73607   0.00000  Uiso   1.00
O915   O     0.26785   0.52512   0.71805   0.00000  Uiso   1.00
O916   O     0.06990   0.52293   0.77820   0.00000  Uiso   1.00
O917   O     0.25440   0.48610   0.76767   0.00000  Uiso   1.00
O918   O     0.13800   0.40236   0.73607   0.00000  Uiso   1.00
O919   O     0.20437   0.58860   0.71805   0.00000  Uiso   1.00
Zn920  Zn    0.19244   0.47423   0.78277   0.00000  Uiso   1.00
Zn921  Zn    0.13459   0.45711   0.72257   0.00000  Uiso   1.00
Zn922  Zn    0.21166   0.52997   0.71188   0.00000  Uiso   1.00
Zn923  Zn    0.12798   0.53868   0.78277   0.00000  Uiso   1.00
C924   C     0.38584   0.49329   0.75896   0.00000  Uiso   1.00
C925   C     0.54532   0.47939   0.96040   0.00000  Uiso   1.00
C926   C     0.56878   0.46006   0.97895   0.00000  Uiso   1.00
C927   C     0.61436   0.50685   0.74126   0.00000  Uiso   1.00
C928   C     0.55122   0.45483   0.51962   0.00000  Uiso   1.00
C929   C     0.51406   0.47535   0.54100   0.00000  Uiso   1.00
C930   C     0.57116   0.43368   0.54096   0.00000  Uiso   1.00
C931   C     0.56152   0.44232   0.58191   0.00000  Uiso   1.00
C932   C     0.50736   0.48556   0.58172   0.00000  Uiso   1.00
C933   C     0.66034   0.50928   0.73766   0.00000  Uiso   1.00
C934   C     0.34042   0.49123   0.76264   0.00000  Uiso   1.00
C935   C     0.43114   0.54623   0.92174   0.00000  Uiso   1.00
C936   C     0.51165   0.65501   0.73825   0.00000  Uiso   1.00
C937   C     0.48520   0.34676   0.76483   0.00000  Uiso   1.00
C938   C     0.48996   0.38969   0.75874   0.00000  Uiso   1.00
C939   C     0.50999   0.61099   0.74173   0.00000  Uiso   1.00
C940   C     0.52147   0.47878   0.64416   0.00000  Uiso   1.00
C941   C     0.47877   0.52098   0.85622   0.00000  Uiso   1.00
C942   C     0.46754   0.52671   0.89948   0.00000  Uiso   1.00
C943   C     0.53111   0.46954   0.60177   0.00000  Uiso   1.00
C944   C     0.41755   0.54564   0.96246   0.00000  Uiso   1.00
C945   C     0.59708   0.39865   0.52263   0.00000  Uiso   1.00
C946   C     0.49173   0.50915   0.91858   0.00000  Uiso   1.00
C947   C     0.45778   0.33666   0.80435   0.00000  Uiso   1.00
C948   C     0.61506   0.45260   0.95544   0.00000  Uiso   1.00
C949   C     0.64851   0.48158   0.97161   0.00000  Uiso   1.00
C950   C     0.41760   0.48232   0.57756   0.00000  Uiso   1.00
C951   C     0.47954   0.50941   0.95984   0.00000  Uiso   1.00
C952   C     0.44060   0.52617   0.98144   0.00000  Uiso   1.00
C953   C     0.50392   0.49205   0.97993   0.00000  Uiso   1.00
C954   C     0.48713   0.48876   0.52093   0.00000  Uiso   1.00
C955   C     0.44408   0.49900   0.54023   0.00000  Uiso   1.00
C956   C     0.42324   0.52061   0.52113   0.00000  Uiso   1.00
H957   H     0.39143   0.53020   0.53635   0.00000  Uiso   1.00
H958   H     0.56121   0.48587   0.93058   0.00000  Uiso   1.00
H959   H     0.58977   0.37846   0.99812   0.00000  Uiso   1.00
H960   H     0.42593   0.34751   0.81568   0.00000  Uiso   1.00
H961   H     0.64334   0.51449   0.97170   0.00000  Uiso   1.00
H962   H     0.64665   0.47574   0.50194   0.00000  Uiso   1.00
H963   H     0.34819   0.47642   0.95261   0.00000  Uiso   1.00
H964   H     0.62123   0.41991   0.95321   0.00000  Uiso   1.00
H965   H     0.62124   0.45848   0.92425   0.00000  Uiso   1.00
H966   H     0.42655   0.45558   0.58714   0.00000  Uiso   1.00
H967   H     0.35006   0.52577   0.71454   0.00000  Uiso   1.00
H968   H     0.65138   0.47489   0.78618   0.00000  Uiso   1.00
H969   H     0.53421   0.33394   0.71225   0.00000  Uiso   1.00
H970   H     0.48470   0.50731   0.59817   0.00000  Uiso   1.00
H971   H     0.57696   0.42717   0.59860   0.00000  Uiso   1.00
H972   H     0.38801   0.55900   0.97897   0.00000  Uiso   1.00
H973   H     0.41193   0.55999   0.90757   0.00000  Uiso   1.00
H974   H     0.51866   0.49340   0.90027   0.00000  Uiso   1.00
O975   O     0.50000   0.50000   0.75000   0.00000  Uiso   1.00
O976   O     0.49027   0.45726   0.66625   0.00000  Uiso   1.00
O977   O     0.46020   0.53979   0.83749   0.00000  Uiso   1.00
O978   O     0.54421   0.50826   0.65877   0.00000  Uiso   1.00
O979   O     0.50532   0.49468   0.83749   0.00000  Uiso   1.00
O980   O     0.62578   0.39108   0.53559   0.00000  Uiso   1.00
O981   O     0.47176   0.65286   0.82570   0.00000  Uiso   1.00
O982   O     0.38507   0.49774   0.59768   0.00000  Uiso   1.00
O983   O     0.51182   0.41434   0.77820   0.00000  Uiso   1.00
O984   O     0.47914   0.59469   0.76767   0.00000  Uiso   1.00
O985   O     0.40785   0.46584   0.73607   0.00000  Uiso   1.00
O986   O     0.60119   0.52512   0.71805   0.00000  Uiso   1.00
O987   O     0.40323   0.52293   0.77820   0.00000  Uiso   1.00
O988   O     0.58773   0.48610   0.76767   0.00000  Uiso   1.00
O989   O     0.47133   0.40236   0.73607   0.00000  Uiso   1.00
O990   O     0.53771   0.58860   0.71805   0.00000  Uiso   1.00
Zn991  Zn    0.52577   0.47423   0.78277   0.00000  Uiso   1.00
Zn992  Zn    0.46792   0.45711   0.72257   0.00000  Uiso   1.00
Zn993  Zn    0.54500   0.52997   0.71188   0.00000  Uiso   1.00
Zn994  Zn    0.46131   0.53868   0.78277   0.00000  Uiso   1.00
C995   C     0.71917   0.49329   0.75896   0.00000  Uiso   1.00
C996   C     0.87865   0.47939   0.96040   0.00000  Uiso   1.00
C997   C     0.90211   0.46006   0.97895   0.00000  Uiso   1.00
C998   C     0.94769   0.50685   0.74126   0.00000  Uiso   1.00
C999   C     0.88455   0.45483   0.51962   0.00000  Uiso   1.00
C1000  C     0.84739   0.47535   0.54100   0.00000  Uiso   1.00
C1001  C     0.90449   0.43368   0.54096   0.00000  Uiso   1.00
C1002  C     0.89486   0.44232   0.58191   0.00000  Uiso   1.00
C1003  C     0.84069   0.48556   0.58172   0.00000  Uiso   1.00
C1004  C     0.99367   0.50928   0.73766   0.00000  Uiso   1.00
C1005  C     0.67375   0.49123   0.76264   0.00000  Uiso   1.00
C1006  C     0.76448   0.54623   0.92174   0.00000  Uiso   1.00
C1007  C     0.84499   0.65501   0.73825   0.00000  Uiso   1.00
C1008  C     0.81853   0.34676   0.76483   0.00000  Uiso   1.00
C1009  C     0.82329   0.38969   0.75874   0.00000  Uiso   1.00
C1010  C     0.84332   0.61099   0.74173   0.00000  Uiso   1.00
C1011  C     0.85480   0.47878   0.64416   0.00000  Uiso   1.00
C1012  C     0.81211   0.52098   0.85622   0.00000  Uiso   1.00
C1013  C     0.80087   0.52671   0.89948   0.00000  Uiso   1.00
C1014  C     0.86444   0.46954   0.60177   0.00000  Uiso   1.00
C1015  C     0.75088   0.54564   0.96246   0.00000  Uiso   1.00
C1016  C     0.93041   0.39865   0.52263   0.00000  Uiso   1.00
C1017  C     0.82506   0.50915   0.91858   0.00000  Uiso   1.00
C1018  C     0.79111   0.33666   0.80435   0.00000  Uiso   1.00
C1019  C     0.94839   0.45260   0.95544   0.00000  Uiso   1.00
C1020  C     0.98185   0.48158   0.97161   0.00000  Uiso   1.00
C1021  C     0.75093   0.48232   0.57756   0.00000  Uiso   1.00
C1022  C     0.81287   0.50941   0.95984   0.00000  Uiso   1.00
C1023  C     0.77394   0.52617   0.98144   0.00000  Uiso   1.00
C1024  C     0.83725   0.49205   0.97993   0.00000  Uiso   1.00
C1025  C     0.82046   0.48876   0.52093   0.00000  Uiso   1.00
C1026  C     0.77741   0.49900   0.54023   0.00000  Uiso   1.00
C1027  C     0.75657   0.52061   0.52113   0.00000  Uiso   1.00
H1028  H     0.72476   0.53020   0.53635   0.00000  Uiso   1.00
H1029  H     0.89455   0.48587   0.93058   0.00000  Uiso   1.00
H1030  H     0.92310   0.37846   0.99812   0.00000  Uiso   1.00
H1031  H     0.75927   0.34751   0.81568   0.00000  Uiso   1.00
H1032  H     0.97668   0.51449   0.97170   0.00000  Uiso   1.00
H1033  H     0.97998   0.47574   0.50194   0.00000  Uiso   1.00
H1034  H     0.68152   0.47642   0.95261   0.00000  Uiso   1.00
H1035  H     0.95456   0.41991   0.95321   0.00000  Uiso   1.00
H1036  H     0.95458   0.45848   0.92425   0.00000  Uiso   1.00
H1037  H     0.75988   0.45558   0.58714   0.00000  Uiso   1.00
H1038  H     0.68339   0.52577   0.71454   0.00000  Uiso   1.00
H1039  H     0.98471   0.47489   0.78618   0.00000  Uiso   1.00
H1040  H     0.86754   0.33394   0.71225   0.00000  Uiso   1.00
H1041  H     0.81803   0.50731   0.59817   0.00000  Uiso   1.00
H1042  H     0.91029   0.42717   0.59860   0.00000  Uiso   1.00
H1043  H     0.72134   0.55900   0.97897   0.00000  Uiso   1.00
H1044  H     0.74526   0.55999   0.90757   0.00000  Uiso   1.00
H1045  H     0.85199   0.49340   0.90027   0.00000  Uiso   1.00
O1046  O     0.83333   0.50000   0.75000   0.00000  Uiso   1.00
O1047  O     0.82360   0.45726   0.66625   0.00000  Uiso   1.00
O1048  O     0.79354   0.53979   0.83749   0.00000  Uiso   1.00
O1049  O     0.87755   0.50826   0.65877   0.00000  Uiso   1.00
O1050  O     0.83865   0.49468   0.83749   0.00000  Uiso   1.00
O1051  O     0.95911   0.39108   0.53559   0.00000  Uiso   1.00
O1052  O     0.80509   0.65286   0.82570   0.00000  Uiso   1.00
O1053  O     0.71840   0.49774   0.59768   0.00000  Uiso   1.00
O1054  O     0.84515   0.41434   0.77820   0.00000  Uiso   1.00
O1055  O     0.81247   0.59469   0.76767   0.00000  Uiso   1.00
O1056  O     0.74119   0.46584   0.73607   0.00000  Uiso   1.00
O1057  O     0.93452   0.52512   0.71805   0.00000  Uiso   1.00
O1058  O     0.73656   0.52293   0.77820   0.00000  Uiso   1.00
O1059  O     0.92106   0.48610   0.76767   0.00000  Uiso   1.00
O1060  O     0.80467   0.40236   0.73607   0.00000  Uiso   1.00
O1061  O     0.87104   0.58860   0.71805   0.00000  Uiso   1.00
Zn1062 Zn    0.85910   0.47423   0.78277   0.00000  Uiso   1.00
Zn1063 Zn    0.80125   0.45711   0.72257   0.00000  Uiso   1.00
Zn1064 Zn    0.87833   0.52997   0.71188   0.00000  Uiso   1.00
Zn1065 Zn    0.79465   0.53868   0.78277   0.00000  Uiso   1.00
C1066  C     0.05251   0.82662   0.75896   0.00000  Uiso   1.00
C1067  C     0.21198   0.81272   0.96040   0.00000  Uiso   1.00
C1068  C     0.23544   0.79339   0.97895   0.00000  Uiso   1.00
C1069  C     0.28102   0.84018   0.74126   0.00000  Uiso   1.00
C1070  C     0.21788   0.78817   0.51962   0.00000  Uiso   1.00
C1071  C     0.18072   0.80868   0.54100   0.00000  Uiso   1.00
C1072  C     0.23783   0.76701   0.54096   0.00000  Uiso   1.00
C1073  C     0.22819   0.77566   0.58191   0.00000  Uiso   1.00
C1074  C     0.17402   0.81889   0.58172   0.00000  Uiso   1.00
C1075  C     0.32700   0.84262   0.73766   0.00000  Uiso   1.00
C1076  C     0.00708   0.82456   0.76264   0.00000  Uiso   1.00
C1077  C     0.09781   0.87956   0.92174   0.00000  Uiso   1.00
C1078  C     0.17832   0.98834   0.73825   0.00000  Uiso   1.00
C1079  C     0.15187   0.68009   0.76483   0.00000  Uiso   1.00
C1080  C     0.15662   0.72302   0.75874   0.00000  Uiso   1.00
C1081  C     0.17665   0.94432   0.74173   0.00000  Uiso   1.00
C1082  C     0.18814   0.81212   0.64416   0.00000  Uiso   1.00
C1083  C     0.14544   0.85431   0.85622   0.00000  Uiso   1.00
C1084  C     0.13420   0.86005   0.89948   0.00000  Uiso   1.00
C1085  C     0.19778   0.80287   0.60177   0.00000  Uiso   1.00
C1086  C     0.08422   0.87897   0.96246   0.00000  Uiso   1.00
C1087  C     0.26374   0.73198   0.52263   0.00000  Uiso   1.00
C1088  C     0.15840   0.84249   0.91858   0.00000  Uiso   1.00
C1089  C     0.12445   0.66999   0.80435   0.00000  Uiso   1.00
C1090  C     0.28173   0.78593   0.95544   0.00000  Uiso   1.00
C1091  C     0.31518   0.81492   0.97161   0.00000  Uiso   1.00
C1092  C     0.08427   0.81565   0.57756   0.00000  Uiso   1.00
C1093  C     0.14621   0.84275   0.95984   0.00000  Uiso   1.00
C1094  C     0.10727   0.85950   0.98144   0.00000  Uiso   1.00
C1095  C     0.17059   0.82538   0.97993   0.00000  Uiso   1.00
C1096  C     0.15380   0.82210   0.52093   0.00000  Uiso   1.00
C1097  C     0.11075   0.83233   0.54023   0.00000  Uiso   1.00
C1098  C     0.08991   0.85394   0.52113   0.00000  Uiso   1.00
H1099  H     0.05809   0.86353   0.53635   0.00000  Uiso   1.00
H1100  H     0.22788   0.81920   0.93058   0.00000  Uiso   1.00
H1101  H     0.25644   0.71179   0.99812   0.00000  Uiso   1.00
H1102  H     0.09260   0.68084   0.81568   0.00000  Uiso   1.00
H1103  H     0.31001   0.84782   0.97170   0.00000  Uiso   1.00
H1104  H     0.31332   0.80907   0.50194   0.00000  Uiso   1.00
H1105  H     0.01486   0.80976   0.95261   0.00000  Uiso   1.00
H1106  H     0.28789   0.75324   0.95321   0.00000  Uiso   1.00
H1107  H     0.28791   0.79181   0.92425   0.00000  Uiso   1.00
H1108  H     0.09321   0.78891   0.58714   0.00000  Uiso   1.00
H1109  H     0.01673   0.85910   0.71454   0.00000  Uiso   1.00
H1110  H     0.31804   0.80822   0.78618   0.00000  Uiso   1.00
H1111  H     0.20088   0.66727   0.71225   0.00000  Uiso   1.00
H1112  H     0.15137   0.84064   0.59817   0.00000  Uiso   1.00
H1113  H     0.24363   0.76050   0.59860   0.00000  Uiso   1.00
H1114  H     0.05467   0.89234   0.97897   0.00000  Uiso   1.00
H1115  H     0.07860   0.89332   0.90757   0.00000  Uiso   1.00
H1116  H     0.18533   0.82673   0.90027   0.00000  Uiso   1.00
O1117  O     0.16667   0.83333   0.75000   0.00000  Uiso   1.00
O1118  O     0.15693   0.79060   0.66625   0.00000  Uiso   1.00
O1119  O     0.12687   0.87313   0.83749   0.00000  Uiso   1.00
O1120  O     0.21088   0.84159   0.65877   0.00000  Uiso   1.00
O1121  O     0.17198   0.82802   0.83749   0.00000  Uiso   1.00
O1122  O     0.29245   0.72441   0.53559   0.00000  Uiso   1.00
O1123  O     0.13842   0.98619   0.82570   0.00000  Uiso   1.00
O1124  O     0.05174   0.83107   0.59768   0.00000  Uiso   1.00
O1125  O     0.17849   0.74768   0.77820   0.00000  Uiso   1.00
O1126  O     0.14581   0.92803   0.76767   0.00000  Uiso   1.00
O1127  O     0.07452   0.79917   0.73607   0.00000  Uiso   1.00
O1128  O     0.26785   0.85845   0.71805   0.00000  Uiso   1.00
O1129  O     0.06990   0.85627   0.77820   0.00000  Uiso   1.00
O1130  O     0.25440   0.81944   0.76767   0.00000  Uiso   1.00
O1131  O     0.13800   0.73570   0.73607   0.00000  Uiso   1.00
O1132  O     0.20437   0.92193   0.71805   0.00000  Uiso   1.00
Zn1133 Zn    0.19244   0.80756   0.78277   0.00000  Uiso   1.00
Zn1134 Zn    0.13459   0.79044   0.72257   0.00000  Uiso   1.00
Zn1135 Zn    0.21166   0.86331   0.71188   0.00000  Uiso   1.00
Zn1136 Zn    0.12798   0.87202   0.78277   0.00000  Uiso   1.00
C1137  C     0.38584   0.82662   0.75896   0.00000  Uiso   1.00
C1138  C     0.54532   0.81272   0.96040   0.00000  Uiso   1.00
C1139  C     0.56878   0.79339   0.97895   0.00000  Uiso   1.00
C1140  C     0.61436   0.84018   0.74126   0.00000  Uiso   1.00
C1141  C     0.55122   0.78817   0.51962   0.00000  Uiso   1.00
C1142  C     0.51406   0.80868   0.54100   0.00000  Uiso   1.00
C1143  C     0.57116   0.76701   0.54096   0.00000  Uiso   1.00
C1144  C     0.56152   0.77566   0.58191   0.00000  Uiso   1.00
C1145  C     0.50736   0.81889   0.58172   0.00000  Uiso   1.00
C1146  C     0.66034   0.84262   0.73766   0.00000  Uiso   1.00
C1147  C     0.34042   0.82456   0.76264   0.00000  Uiso   1.00
C1148  C     0.43114   0.87956   0.92174   0.00000  Uiso   1.00
C1149  C     0.51165   0.98834   0.73825   0.00000  Uiso   1.00
C1150  C     0.48520   0.68009   0.76483   0.00000  Uiso   1.00
C1151  C     0.48996   0.72302   0.75874   0.00000  Uiso   1.00
C1152  C     0.50999   0.94432   0.74173   0.00000  Uiso   1.00
C1153  C     0.52147   0.81212   0.64416   0.00000  Uiso   1.00
C1154  C     0.47877   0.85431   0.85622   0.00000  Uiso   1.00
C1155  C     0.46754   0.86005   0.89948   0.00000  Uiso   1.00
C1156  C     0.53111   0.80287   0.60177   0.00000  Uiso   1.00
C1157  C     0.41755   0.87897   0.96246   0.00000  Uiso   1.00
C1158  C     0.59708   0.73198   0.52263   0.00000  Uiso   1.00
C1159  C     0.49173   0.84249   0.91858   0.00000  Uiso   1.00
C1160  C     0.45778   0.66999   0.80435   0.00000  Uiso   1.00
C1161  C     0.61506   0.78593   0.95544   0.00000  Uiso   1.00
C1162  C     0.64851   0.81492   0.97161   0.00000  Uiso   1.00
C1163  C     0.41760   0.81565   0.57756   0.00000  Uiso   1.00
C1164  C     0.47954   0.84275   0.95984   0.00000  Uiso   1.00
C1165  C     0.44060   0.85950   0.98144   0.00000  Uiso   1.00
C1166  C     0.50392   0.82538   0.97993   0.00000  Uiso   1.00
C1167  C     0.48713   0.82210   0.52093   0.00000  Uiso   1.00
C1168  C     0.44408   0.83233   0.54023   0.00000  Uiso   1.00
C1169  C     0.42324   0.85394   0.52113   0.00000  Uiso   1.00
H1170  H     0.39143   0.86353   0.53635   0.00000  Uiso   1.00
H1171  H     0.56121   0.81920   0.93058   0.00000  Uiso   1.00
H1172  H     0.58977   0.71179   0.99812   0.00000  Uiso   1.00
H1173  H     0.42593   0.68084   0.81568   0.00000  Uiso   1.00
H1174  H     0.64334   0.84782   0.97170   0.00000  Uiso   1.00
H1175  H     0.64665   0.80907   0.50194   0.00000  Uiso   1.00
H1176  H     0.34819   0.80976   0.95261   0.00000  Uiso   1.00
H1177  H     0.62123   0.75324   0.95321   0.00000  Uiso   1.00
H1178  H     0.62124   0.79181   0.92425   0.00000  Uiso   1.00
H1179  H     0.42655   0.78891   0.58714   0.00000  Uiso   1.00
H1180  H     0.35006   0.85910   0.71454   0.00000  Uiso   1.00
H1181  H     0.65138   0.80822   0.78618   0.00000  Uiso   1.00
H1182  H     0.53421   0.66727   0.71225   0.00000  Uiso   1.00
H1183  H     0.48470   0.84064   0.59817   0.00000  Uiso   1.00
H1184  H     0.57696   0.76050   0.59860   0.00000  Uiso   1.00
H1185  H     0.38801   0.89234   0.97897   0.00000  Uiso   1.00
H1186  H     0.41193   0.89332   0.90757   0.00000  Uiso   1.00
H1187  H     0.51866   0.82673   0.90027   0.00000  Uiso   1.00
O1188  O     0.50000   0.83333   0.75000   0.00000  Uiso   1.00
O1189  O     0.49027   0.79060   0.66625   0.00000  Uiso   1.00
O1190  O     0.46020   0.87313   0.83749   0.00000  Uiso   1.00
O1191  O     0.54421   0.84159   0.65877   0.00000  Uiso   1.00
O1192  O     0.50532   0.82802   0.83749   0.00000  Uiso   1.00
O1193  O     0.62578   0.72441   0.53559   0.00000  Uiso   1.00
O1194  O     0.47176   0.98619   0.82570   0.00000  Uiso   1.00
O1195  O     0.38507   0.83107   0.59768   0.00000  Uiso   1.00
O1196  O     0.51182   0.74768   0.77820   0.00000  Uiso   1.00
O1197  O     0.47914   0.92803   0.76767   0.00000  Uiso   1.00
O1198  O     0.40785   0.79917   0.73607   0.00000  Uiso   1.00
O1199  O     0.60119   0.85845   0.71805   0.00000  Uiso   1.00
O1200  O     0.40323   0.85627   0.77820   0.00000  Uiso   1.00
O1201  O     0.58773   0.81944   0.76767   0.00000  Uiso   1.00
O1202  O     0.47133   0.73570   0.73607   0.00000  Uiso   1.00
O1203  O     0.53771   0.92193   0.71805   0.00000  Uiso   1.00
Zn1204 Zn    0.52577   0.80756   0.78277   0.00000  Uiso   1.00
Zn1205 Zn    0.46792   0.79044   0.72257   0.00000  Uiso   1.00
Zn1206 Zn    0.54500   0.86331   0.71188   0.00000  Uiso   1.00
Zn1207 Zn    0.46131   0.87202   0.78277   0.00000  Uiso   1.00
C1208  C     0.71917   0.82662   0.75896   0.00000  Uiso   1.00
C1209  C     0.87865   0.81272   0.96040   0.00000  Uiso   1.00
C1210  C     0.90211   0.79339   0.97895   0.00000  Uiso   1.00
C1211  C     0.94769   0.84018   0.74126   0.00000  Uiso   1.00
C1212  C     0.88455   0.78817   0.51962   0.00000  Uiso   1.00
C1213  C     0.84739   0.80868   0.54100   0.00000  Uiso   1.00
C1214  C     0.90449   0.76701   0.54096   0.00000  Uiso   1.00
C1215  C     0.89486   0.77566   0.58191   0.00000  Uiso   1.00
C1216  C     0.84069   0.81889   0.58172   0.00000  Uiso   1.00
C1217  C     0.99367   0.84262   0.73766   0.00000  Uiso   1.00
C1218  C     0.67375   0.82456   0.76264   0.00000  Uiso   1.00
C1219  C     0.76448   0.87956   0.92174   0.00000  Uiso   1.00
C1220  C     0.84499   0.98834   0.73825   0.00000  Uiso   1.00
C1221  C     0.81853   0.68009   0.76483   0.00000  Uiso   1.00
C1222  C     0.82329   0.72302   0.75874   0.00000  Uiso   1.00
C1223  C     0.84332   0.94432   0.74173   0.00000  Uiso   1.00
C1224  C     0.85480   0.81212   0.64416   0.00000  Uiso   1.00
C1225  C     0.81211   0.85431   0.85622   0.00000  Uiso   1.00
C1226  C     0.80087   0.86005   0.89948   0.00000  Uiso   1.00
C1227  C     0.86444   0.80287   0.60177   0.00000  Uiso   1.00
C1228  C     0.75088   0.87897   0.96246   0.00000  Uiso   1.00
C1229  C     0.93041   0.73198   0.52263   0.00000  Uiso   1.00
C1230  C     0.82506   0.84249   0.91858   0.00000  Uiso   1.00
C1231  C     0.79111   0.66999   0.80435   0.00000  Uiso   1.00
C1232  C     0.94839   0.78593   0.95544   0.00000  Uiso   1.00
C1233  C     0.98185   0.81492   0.97161   0.00000  Uiso   1.00
C1234  C     0.75093   0.81565   0.57756   0.00000  Uiso   1.00
C1235  C     0.81287   0.84275   0.95984   0.00000  Uiso   1.00
C1236  C     0.77394   0.85950   0.98144   0.00000  Uiso   1.00
C1237  C     0.83725   0.82538   0.97993   0.00000  Uiso   1.00
C1238  C     0.82046   0.82210   0.52093   0.00000  Uiso   1.00
C1239  C     0.77741   0.83233   0.54023   0.00000  Uiso   1.00
C1240  C     0.75657   0.85394   0.52113   0.00000  Uiso   1.00
H1241  H     0.72476   0.86353   0.53635   0.00000  Uiso   1.00
H1242  H     0.89455   0.81920   0.93058   0.00000  Uiso   1.00
H1243  H     0.92310   0.71179   0.99812   0.00000  Uiso   1.00
H1244  H     0.75927   0.68084   0.81568   0.00000  Uiso   1.00
H1245  H     0.97668   0.84782   0.97170   0.00000  Uiso   1.00
H1246  H     0.97998   0.80907   0.50194   0.00000  Uiso   1.00
H1247  H     0.68152   0.80976   0.95261   0.00000  Uiso   1.00
H1248  H     0.95456   0.75324   0.95321   0.00000  Uiso   1.00
H1249  H     0.95458   0.79181   0.92425   0.00000  Uiso   1.00
H1250  H     0.75988   0.78891   0.58714   0.00000  Uiso   1.00
H1251  H     0.68339   0.85910   0.71454   0.00000  Uiso   1.00
H1252  H     0.98471   0.80822   0.78618   0.00000  Uiso   1.00
H1253  H     0.86754   0.66727   0.71225   0.00000  Uiso   1.00
H1254  H     0.81803   0.84064   0.59817   0.00000  Uiso   1.00
H1255  H     0.91029   0.76050   0.59860   0.00000  Uiso   1.00
H1256  H     0.72134   0.89234   0.97897   0.00000  Uiso   1.00
H1257  H     0.74526   0.89332   0.90757   0.00000  Uiso   1.00
H1258  H     0.85199   0.82673   0.90027   0.00000  Uiso   1.00
O1259  O     0.83333   0.83333   0.75000   0.00000  Uiso   1.00
O1260  O     0.82360   0.79060   0.66625   0.00000  Uiso   1.00
O1261  O     0.79354   0.87313   0.83749   0.00000  Uiso   1.00
O1262  O     0.87755   0.84159   0.65877   0.00000  Uiso   1.00
O1263  O     0.83865   0.82802   0.83749   0.00000  Uiso   1.00
O1264  O     0.95911   0.72441   0.53559   0.00000  Uiso   1.00
O1265  O     0.80509   0.98619   0.82570   0.00000  Uiso   1.00
O1266  O     0.71840   0.83107   0.59768   0.00000  Uiso   1.00
O1267  O     0.84515   0.74768   0.77820   0.00000  Uiso   1.00
O1268  O     0.81247   0.92803   0.76767   0.00000  Uiso   1.00
O1269  O     0.74119   0.79917   0.73607   0.00000  Uiso   1.00
O1270  O     0.93452   0.85845   0.71805   0.00000  Uiso   1.00
O1271  O     0.73656   0.85627   0.77820   0.00000  Uiso   1.00
O1272  O     0.92106   0.81944   0.76767   0.00000  Uiso   1.00
O1273  O     0.80467   0.73570   0.73607   0.00000  Uiso   1.00
O1274  O     0.87104   0.92193   0.71805   0.00000  Uiso   1.00
Zn1275 Zn    0.85910   0.80756   0.78277   0.00000  Uiso   1.00
Zn1276 Zn    0.80125   0.79044   0.72257   0.00000  Uiso   1.00
Zn1277 Zn    0.87833   0.86331   0.71188   0.00000  Uiso   1.00
Zn1278 Zn    0.79465   0.87202   0.78277   0.00000  Uiso   1.00
loop_
_geom_bond_atom_site_label_1
_geom_bond_atom_site_label_2
_geom_bond_distance
_geom_bond_site_symmetry_2
_ccdc_geom_bond_type
C1     O62     1.273   .     A
C1     O64     1.272   .     A
C1     C11     1.435   .     S
C2     H35     1.076   .     S
C2     C30     1.412   .     A
C2     C3      1.401   .     A
C3     C25     1.528   .     S
C3     C644    1.422   .     S
C4     O63     1.281   .     A
C4     O65     1.279   .     A
C4     C10     1.453   .     S
C5     C6      1.427   .     A
C5     C7      1.427   .     A
C5     C642    1.422   1_554 S
C6     C9      1.405   .     A
C6     C31     1.425   .     A
C7     C22     1.479   .     S
C7     C8      1.400   .     A
C8     H48     1.085   .     S
C8     C20     1.390   .     A
C9     C20     1.386   .     A
C9     H47     1.082   .     S
C10    C82     1.333   .     S
C10    H115    1.088   .     S
C11    C152    1.333   1_455 S
C11    H187    1.086   1_455 S
C12    C19     1.399   .     A
C12    C21     1.393   .     A
C12    H50     1.083   .     S
C13    C16     1.454   .     S
C13    C227    1.348   .     S
C13    H259    1.088   .     S
C14    C24     1.486   .     S
C14    C15     1.430   .     S
C14    C439    1.348   1_545 S
C15    O60     1.269   .     A
C15    O66     1.281   .     A
C16    O61     1.262   .     A
C16    O67     1.277   .     A
C17    O53     1.278   .     A
C17    O55     1.278   .     A
C17    C20     1.451   .     S
C18    O56     1.281   .     A
C18    O54     1.281   .     A
C18    C19     1.471   .     S
C19    C23     1.399   .     A
C21    C29     1.405   .     A
C21    H49     1.084   .     S
C22    O57     1.221   .     D
C22    H675    1.084   1_554 S
C23    H51     1.076   .     S
C23    C28     1.409   .     A
C24    H37     1.085   .     S
C24    O484    1.221   1_545 S
C25    H42     1.112   .     S
C25    H41     1.102   .     S
C25    C26     1.529   .     S
C26    H38     1.111   .     S
C26    H678    1.108   .     S
C26    H111    1.110   .     S
C27    O59     1.222   .     D
C27    C32     1.489   .     S
C27    H43     1.085   .     S
C28    C30     1.426   .     A
C28    C29     1.415   .     A
C29    C672    1.392   .     S
C30    C670    1.420   .     S
C31    C32     1.431   .     A
C31    C669    1.420   1_554 S
C32    C33     1.399   .     A
C33    H34     1.085   .     S
C33    C668    1.392   1_554 S
H36    C661    1.084   .     S
H39    C665    1.108   1_554 S
H40    C168    1.110   1_455 S
H44    C152    1.088   1_455 S
H45    C82     1.086   .     S
H46    C439    1.088   1_545 S
O52    Zn68    1.954   .     S
O52    Zn71    1.930   .     S
O52    Zn70    1.939   .     S
O52    Zn69    1.954   .     S
O53    Zn69    1.930   .     S
O54    Zn71    1.939   .     S
O55    Zn70    1.937   .     S
O56    Zn68    1.927   .     S
O58    C237    1.221   .     S
O60    Zn68    1.942   .     S
O61    Zn71    1.943   .     S
O62    Zn69    1.920   .     S
O63    Zn70    1.931   .     S
O64    Zn71    1.932   .     S
O65    Zn68    1.923   .     S
O66    Zn69    1.942   .     S
O67    Zn70    1.938   .     S
C72    O133    1.273   .     A
C72    O135    1.272   .     A
C72    C82     1.435   .     S
C73    H106    1.076   .     S
C73    C101    1.412   .     A
C73    C74     1.401   .     A
C74    C96     1.528   .     S
C74    C715    1.422   .     S
C75    O134    1.281   .     A
C75    O136    1.279   .     A
C75    C81     1.453   .     S
C76    C77     1.427   .     A
C76    C78     1.427   .     A
C76    C713    1.422   1_554 S
C77    C80     1.405   .     A
C77    C102    1.425   .     A
C78    C93     1.479   .     S
C78    C79     1.400   .     A
C79    H119    1.085   .     S
C79    C91     1.390   .     A
C80    C91     1.386   .     A
C80    H118    1.082   .     S
C81    C153    1.333   .     S
C81    H186    1.088   .     S
C83    C90     1.399   .     A
C83    C92     1.393   .     A
C83    H121    1.083   .     S
C84    C87     1.454   .     S
C84    C298    1.348   .     S
C84    H330    1.088   .     S
C85    C95     1.486   .     S
C85    C86     1.430   .     S
C85    C510    1.348   1_545 S
C86    O131    1.269   .     A
C86    O137    1.281   .     A
C87    O132    1.262   .     A
C87    O138    1.277   .     A
C88    O124    1.278   .     A
C88    O126    1.278   .     A
C88    C91     1.451   .     S
C89    O127    1.281   .     A
C89    O125    1.281   .     A
C89    C90     1.471   .     S
C90    C94     1.399   .     A
C92    C100    1.405   .     A
C92    H120    1.084   .     S
C93    O128    1.221   .     D
C93    H746    1.084   1_554 S
C94    H122    1.076   .     S
C94    C99     1.409   .     A
C95    H108    1.085   .     S
C95    O555    1.221   1_545 S
C96    H113    1.112   .     S
C96    H112    1.102   .     S
C96    C97     1.529   .     S
C97    H109    1.111   .     S
C97    H749    1.108   .     S
C97    H182    1.110   .     S
C98    O130    1.222   .     D
C98    C103    1.489   .     S
C98    H114    1.085   .     S
C99    C101    1.426   .     A
C99    C100    1.415   .     A
C100   C743    1.392   .     S
C101   C741    1.420   .     S
C102   C103    1.431   .     A
C102   C740    1.420   1_554 S
C103   C104    1.399   .     A
C104   H105    1.085   .     S
C104   C739    1.392   1_554 S
H107   C732    1.084   .     S
H110   C736    1.108   1_554 S
H116   C153    1.086   .     S
H117   C510    1.088   1_545 S
O123   Zn139   1.954   .     S
O123   Zn142   1.930   .     S
O123   Zn141   1.939   .     S
O123   Zn140   1.954   .     S
O124   Zn140   1.930   .     S
O125   Zn142   1.939   .     S
O126   Zn141   1.937   .     S
O127   Zn139   1.927   .     S
O129   C308    1.221   .     S
O131   Zn139   1.942   .     S
O132   Zn142   1.943   .     S
O133   Zn140   1.920   .     S
O134   Zn141   1.931   .     S
O135   Zn142   1.932   .     S
O136   Zn139   1.923   .     S
O137   Zn140   1.942   .     S
O138   Zn141   1.938   .     S
C143   O204    1.273   .     A
C143   O206    1.272   .     A
C143   C153    1.435   .     S
C144   H177    1.076   .     S
C144   C172    1.412   .     A
C144   C145    1.401   .     A
C145   C167    1.528   .     S
C145   C786    1.422   .     S
C146   O205    1.281   .     A
C146   O207    1.279   .     A
C146   C152    1.453   .     S
C147   C148    1.427   .     A
C147   C149    1.427   .     A
C147   C784    1.422   1_554 S
C148   C151    1.405   .     A
C148   C173    1.425   .     A
C149   C164    1.479   .     S
C149   C150    1.400   .     A
C150   H190    1.085   .     S
C150   C162    1.390   .     A
C151   C162    1.386   .     A
C151   H189    1.082   .     S
C152   C11     1.333   1_655 S
C152   H44     1.088   1_655 S
C154   C161    1.399   .     A
C154   C163    1.393   .     A
C154   H192    1.083   .     S
C155   C158    1.454   .     S
C155   C369    1.348   .     S
C155   H401    1.088   .     S
C156   C166    1.486   .     S
C156   C157    1.430   .     S
C156   C581    1.348   1_545 S
C157   O202    1.269   .     A
C157   O208    1.281   .     A
C158   O203    1.262   .     A
C158   O209    1.277   .     A
C159   O195    1.278   .     A
C159   O197    1.278   .     A
C159   C162    1.451   .     S
C160   O198    1.281   .     A
C160   O196    1.281   .     A
C160   C161    1.471   .     S
C161   C165    1.399   .     A
C163   C171    1.405   .     A
C163   H191    1.084   .     S
C164   O199    1.221   .     D
C164   H817    1.084   1_554 S
C165   H193    1.076   .     S
C165   C170    1.409   .     A
C166   H179    1.085   .     S
C166   O626    1.221   1_545 S
C167   H184    1.112   .     S
C167   H183    1.102   .     S
C167   C168    1.529   .     S
C168   H180    1.111   .     S
C168   H820    1.108   .     S
C168   H40     1.110   1_655 S
C169   O201    1.222   .     D
C169   C174    1.489   .     S
C169   H185    1.085   .     S
C170   C172    1.426   .     A
C170   C171    1.415   .     A
C171   C814    1.392   .     S
C172   C812    1.420   .     S
C173   C174    1.431   .     A
C173   C811    1.420   1_554 S
C174   C175    1.399   .     A
C175   H176    1.085   .     S
C175   C810    1.392   1_554 S
H178   C803    1.084   .     S
H181   C807    1.108   1_554 S
H187   C11     1.086   1_655 S
H188   C581    1.088   1_545 S
O194   Zn210   1.954   .     S
O194   Zn213   1.930   .     S
O194   Zn212   1.939   .     S
O194   Zn211   1.954   .     S
O195   Zn211   1.930   .     S
O196   Zn213   1.939   .     S
O197   Zn212   1.937   .     S
O198   Zn210   1.927   .     S
O200   C379    1.221   .     S
O202   Zn210   1.942   .     S
O203   Zn213   1.943   .     S
O204   Zn211   1.920   .     S
O205   Zn212   1.931   .     S
O206   Zn213   1.932   .     S
O207   Zn210   1.923   .     S
O208   Zn211   1.942   .     S
O209   Zn212   1.938   .     S
C214   O275    1.273   .     A
C214   O277    1.272   .     A
C214   C224    1.435   .     S
C215   H248    1.076   .     S
C215   C243    1.412   .     A
C215   C216    1.401   .     A
C216   C238    1.528   .     S
C216   C857    1.422   .     S
C217   O276    1.281   .     A
C217   O278    1.279   .     A
C217   C223    1.453   .     S
C218   C219    1.427   .     A
C218   C220    1.427   .     A
C218   C855    1.422   1_554 S
C219   C222    1.405   .     A
C219   C244    1.425   .     A
C220   C235    1.479   .     S
C220   C221    1.400   .     A
C221   H261    1.085   .     S
C221   C233    1.390   .     A
C222   C233    1.386   .     A
C222   H260    1.082   .     S
C223   C295    1.333   .     S
C223   H328    1.088   .     S
C224   C365    1.333   1_455 S
C224   H400    1.086   1_455 S
C225   C232    1.399   .     A
C225   C234    1.393   .     A
C225   H263    1.083   .     S
C226   C229    1.454   .     S
C226   C440    1.348   .     S
C226   H472    1.088   .     S
C227   C237    1.486   .     S
C227   C228    1.430   .     S
C228   O273    1.269   .     A
C228   O279    1.281   .     A
C229   O274    1.262   .     A
C229   O280    1.277   .     A
C230   O266    1.278   .     A
C230   O268    1.278   .     A
C230   C233    1.451   .     S
C231   O269    1.281   .     A
C231   O267    1.281   .     A
C231   C232    1.471   .     S
C232   C236    1.399   .     A
C234   C242    1.405   .     A
C234   H262    1.084   .     S
C235   O270    1.221   .     D
C235   H888    1.084   1_554 S
C236   H264    1.076   .     S
C236   C241    1.409   .     A
C237   H250    1.085   .     S
C238   H255    1.112   .     S
C238   H254    1.102   .     S
C238   C239    1.529   .     S
C239   H251    1.111   .     S
C239   H891    1.108   .     S
C239   H324    1.110   .     S
C240   O272    1.222   .     D
C240   C245    1.489   .     S
C240   H256    1.085   .     S
C241   C243    1.426   .     A
C241   C242    1.415   .     A
C242   C885    1.392   .     S
C243   C883    1.420   .     S
C244   C245    1.431   .     A
C244   C882    1.420   1_554 S
C245   C246    1.399   .     A
C246   H247    1.085   .     S
C246   C881    1.392   1_554 S
H249   C874    1.084   .     S
H252   C878    1.108   1_554 S
H253   C381    1.110   1_455 S
H257   C365    1.088   1_455 S
H258   C295    1.086   .     S
O265   Zn281   1.954   .     S
O265   Zn284   1.930   .     S
O265   Zn283   1.939   .     S
O265   Zn282   1.954   .     S
O266   Zn282   1.930   .     S
O267   Zn284   1.939   .     S
O268   Zn283   1.937   .     S
O269   Zn281   1.927   .     S
O271   C450    1.221   .     S
O273   Zn281   1.942   .     S
O274   Zn284   1.943   .     S
O275   Zn282   1.920   .     S
O276   Zn283   1.931   .     S
O277   Zn284   1.932   .     S
O278   Zn281   1.923   .     S
O279   Zn282   1.942   .     S
O280   Zn283   1.938   .     S
C285   O346    1.273   .     A
C285   O348    1.272   .     A
C285   C295    1.435   .     S
C286   H319    1.076   .     S
C286   C314    1.412   .     A
C286   C287    1.401   .     A
C287   C309    1.528   .     S
C287   C928    1.422   .     S
C288   O347    1.281   .     A
C288   O349    1.279   .     A
C288   C294    1.453   .     S
C289   C290    1.427   .     A
C289   C291    1.427   .     A
C289   C926    1.422   1_554 S
C290   C293    1.405   .     A
C290   C315    1.425   .     A
C291   C306    1.479   .     S
C291   C292    1.400   .     A
C292   H332    1.085   .     S
C292   C304    1.390   .     A
C293   C304    1.386   .     A
C293   H331    1.082   .     S
C294   C366    1.333   .     S
C294   H399    1.088   .     S
C296   C303    1.399   .     A
C296   C305    1.393   .     A
C296   H334    1.083   .     S
C297   C300    1.454   .     S
C297   C511    1.348   .     S
C297   H543    1.088   .     S
C298   C308    1.486   .     S
C298   C299    1.430   .     S
C299   O344    1.269   .     A
C299   O350    1.281   .     A
C300   O345    1.262   .     A
C300   O351    1.277   .     A
C301   O337    1.278   .     A
C301   O339    1.278   .     A
C301   C304    1.451   .     S
C302   O340    1.281   .     A
C302   O338    1.281   .     A
C302   C303    1.471   .     S
C303   C307    1.399   .     A
C305   C313    1.405   .     A
C305   H333    1.084   .     S
C306   O341    1.221   .     D
C306   H959    1.084   1_554 S
C307   H335    1.076   .     S
C307   C312    1.409   .     A
C308   H321    1.085   .     S
C309   H326    1.112   .     S
C309   H325    1.102   .     S
C309   C310    1.529   .     S
C310   H322    1.111   .     S
C310   H962    1.108   .     S
C310   H395    1.110   .     S
C311   O343    1.222   .     D
C311   C316    1.489   .     S
C311   H327    1.085   .     S
C312   C314    1.426   .     A
C312   C313    1.415   .     A
C313   C956    1.392   .     S
C314   C954    1.420   .     S
C315   C316    1.431   .     A
C315   C953    1.420   1_554 S
C316   C317    1.399   .     A
C317   H318    1.085   .     S
C317   C952    1.392   1_554 S
H320   C945    1.084   .     S
H323   C949    1.108   1_554 S
H329   C366    1.086   .     S
O336   Zn352   1.954   .     S
O336   Zn355   1.930   .     S
O336   Zn354   1.939   .     S
O336   Zn353   1.954   .     S
O337   Zn353   1.930   .     S
O338   Zn355   1.939   .     S
O339   Zn354   1.937   .     S
O340   Zn352   1.927   .     S
O342   C521    1.221   .     S
O344   Zn352   1.942   .     S
O345   Zn355   1.943   .     S
O346   Zn353   1.920   .     S
O347   Zn354   1.931   .     S
O348   Zn355   1.932   .     S
O349   Zn352   1.923   .     S
O350   Zn353   1.942   .     S
O351   Zn354   1.938   .     S
C356   O417    1.273   .     A
C356   O419    1.272   .     A
C356   C366    1.435   .     S
C357   H390    1.076   .     S
C357   C385    1.412   .     A
C357   C358    1.401   .     A
C358   C380    1.528   .     S
C358   C999    1.422   .     S
C359   O418    1.281   .     A
C359   O420    1.279   .     A
C359   C365    1.453   .     S
C360   C361    1.427   .     A
C360   C362    1.427   .     A
C360   C997    1.422   1_554 S
C361   C364    1.405   .     A
C361   C386    1.425   .     A
C362   C377    1.479   .     S
C362   C363    1.400   .     A
C363   H403    1.085   .     S
C363   C375    1.390   .     A
C364   C375    1.386   .     A
C364   H402    1.082   .     S
C365   C224    1.333   1_655 S
C365   H257    1.088   1_655 S
C367   C374    1.399   .     A
C367   C376    1.393   .     A
C367   H405    1.083   .     S
C368   C371    1.454   .     S
C368   C582    1.348   .     S
C368   H614    1.088   .     S
C369   C379    1.486   .     S
C369   C370    1.430   .     S
C370   O415    1.269   .     A
C370   O421    1.281   .     A
C371   O416    1.262   .     A
C371   O422    1.277   .     A
C372   O408    1.278   .     A
C372   O410    1.278   .     A
C372   C375    1.451   .     S
C373   O411    1.281   .     A
C373   O409    1.281   .     A
C373   C374    1.471   .     S
C374   C378    1.399   .     A
C376   C384    1.405   .     A
C376   H404    1.084   .     S
C377   O412    1.221   .     D
C377   H1030   1.084   1_554 S
C378   H406    1.076   .     S
C378   C383    1.409   .     A
C379   H392    1.085   .     S
C380   H397    1.112   .     S
C380   H396    1.102   .     S
C380   C381    1.529   .     S
C381   H393    1.111   .     S
C381   H1033   1.108   .     S
C381   H253    1.110   1_655 S
C382   O414    1.222   .     D
C382   C387    1.489   .     S
C382   H398    1.085   .     S
C383   C385    1.426   .     A
C383   C384    1.415   .     A
C384   C1027   1.392   .     S
C385   C1025   1.420   .     S
C386   C387    1.431   .     A
C386   C1024   1.420   1_554 S
C387   C388    1.399   .     A
C388   H389    1.085   .     S
C388   C1023   1.392   1_554 S
H391   C1016   1.084   .     S
H394   C1020   1.108   1_554 S
H400   C224    1.086   1_655 S
O407   Zn423   1.954   .     S
O407   Zn426   1.930   .     S
O407   Zn425   1.939   .     S
O407   Zn424   1.954   .     S
O408   Zn424   1.930   .     S
O409   Zn426   1.939   .     S
O410   Zn425   1.937   .     S
O411   Zn423   1.927   .     S
O413   C592    1.221   .     S
O415   Zn423   1.942   .     S
O416   Zn426   1.943   .     S
O417   Zn424   1.920   .     S
O418   Zn425   1.931   .     S
O419   Zn426   1.932   .     S
O420   Zn423   1.923   .     S
O421   Zn424   1.942   .     S
O422   Zn425   1.938   .     S
C427   O488    1.273   .     A
C427   O490    1.272   .     A
C427   C437    1.435   .     S
C428   H461    1.076   .     S
C428   C456    1.412   .     A
C428   C429    1.401   .     A
C429   C451    1.528   .     S
C429   C1070   1.422   .     S
C430   O489    1.281   .     A
C430   O491    1.279   .     A
C430   C436    1.453   .     S
C431   C432    1.427   .     A
C431   C433    1.427   .     A
C431   C1068   1.422   1_554 S
C432   C435    1.405   .     A
C432   C457    1.425   .     A
C433   C448    1.479   .     S
C433   C434    1.400   .     A
C434   H474    1.085   .     S
C434   C446    1.390   .     A
C435   C446    1.386   .     A
C435   H473    1.082   .     S
C436   C508    1.333   .     S
C436   H541    1.088   .     S
C437   C578    1.333   1_455 S
C437   H613    1.086   1_455 S
C438   C445    1.399   .     A
C438   C447    1.393   .     A
C438   H476    1.083   .     S
C439   C442    1.454   .     S
C439   C14     1.348   1_565 S
C439   H46     1.088   1_565 S
C440   C450    1.486   .     S
C440   C441    1.430   .     S
C441   O486    1.269   .     A
C441   O492    1.281   .     A
C442   O487    1.262   .     A
C442   O493    1.277   .     A
C443   O479    1.278   .     A
C443   O481    1.278   .     A
C443   C446    1.451   .     S
C444   O482    1.281   .     A
C444   O480    1.281   .     A
C444   C445    1.471   .     S
C445   C449    1.399   .     A
C447   C455    1.405   .     A
C447   H475    1.084   .     S
C448   O483    1.221   .     D
C448   H1101   1.084   1_554 S
C449   H477    1.076   .     S
C449   C454    1.409   .     A
C450   H463    1.085   .     S
C451   H468    1.112   .     S
C451   H467    1.102   .     S
C451   C452    1.529   .     S
C452   H464    1.111   .     S
C452   H1104   1.108   .     S
C452   H537    1.110   .     S
C453   O485    1.222   .     D
C453   C458    1.489   .     S
C453   H469    1.085   .     S
C454   C456    1.426   .     A
C454   C455    1.415   .     A
C455   C1098   1.392   .     S
C456   C1096   1.420   .     S
C457   C458    1.431   .     A
C457   C1095   1.420   1_554 S
C458   C459    1.399   .     A
C459   H460    1.085   .     S
C459   C1094   1.392   1_554 S
H462   C1087   1.084   .     S
H465   C1091   1.108   1_554 S
H466   C594    1.110   1_455 S
H470   C578    1.088   1_455 S
H471   C508    1.086   .     S
O478   Zn494   1.954   .     S
O478   Zn497   1.930   .     S
O478   Zn496   1.939   .     S
O478   Zn495   1.954   .     S
O479   Zn495   1.930   .     S
O480   Zn497   1.939   .     S
O481   Zn496   1.937   .     S
O482   Zn494   1.927   .     S
O484   C24     1.221   1_565 S
O486   Zn494   1.942   .     S
O487   Zn497   1.943   .     S
O488   Zn495   1.920   .     S
O489   Zn496   1.931   .     S
O490   Zn497   1.932   .     S
O491   Zn494   1.923   .     S
O492   Zn495   1.942   .     S
O493   Zn496   1.938   .     S
C498   O559    1.273   .     A
C498   O561    1.272   .     A
C498   C508    1.435   .     S
C499   H532    1.076   .     S
C499   C527    1.412   .     A
C499   C500    1.401   .     A
C500   C522    1.528   .     S
C500   C1141   1.422   .     S
C501   O560    1.281   .     A
C501   O562    1.279   .     A
C501   C507    1.453   .     S
C502   C503    1.427   .     A
C502   C504    1.427   .     A
C502   C1139   1.422   1_554 S
C503   C506    1.405   .     A
C503   C528    1.425   .     A
C504   C519    1.479   .     S
C504   C505    1.400   .     A
C505   H545    1.085   .     S
C505   C517    1.390   .     A
C506   C517    1.386   .     A
C506   H544    1.082   .     S
C507   C579    1.333   .     S
C507   H612    1.088   .     S
C509   C516    1.399   .     A
C509   C518    1.393   .     A
C509   H547    1.083   .     S
C510   C513    1.454   .     S
C510   C85     1.348   1_565 S
C510   H117    1.088   1_565 S
C511   C521    1.486   .     S
C511   C512    1.430   .     S
C512   O557    1.269   .     A
C512   O563    1.281   .     A
C513   O558    1.262   .     A
C513   O564    1.277   .     A
C514   O550    1.278   .     A
C514   O552    1.278   .     A
C514   C517    1.451   .     S
C515   O553    1.281   .     A
C515   O551    1.281   .     A
C515   C516    1.471   .     S
C516   C520    1.399   .     A
C518   C526    1.405   .     A
C518   H546    1.084   .     S
C519   O554    1.221   .     D
C519   H1172   1.084   1_554 S
C520   H548    1.076   .     S
C520   C525    1.409   .     A
C521   H534    1.085   .     S
C522   H539    1.112   .     S
C522   H538    1.102   .     S
C522   C523    1.529   .     S
C523   H535    1.111   .     S
C523   H1175   1.108   .     S
C523   H608    1.110   .     S
C524   O556    1.222   .     D
C524   C529    1.489   .     S
C524   H540    1.085   .     S
C525   C527    1.426   .     A
C525   C526    1.415   .     A
C526   C1169   1.392   .     S
C527   C1167   1.420   .     S
C528   C529    1.431   .     A
C528   C1166   1.420   1_554 S
C529   C530    1.399   .     A
C530   H531    1.085   .     S
C530   C1165   1.392   1_554 S
H533   C1158   1.084   .     S
H536   C1162   1.108   1_554 S
H542   C579    1.086   .     S
O549   Zn565   1.954   .     S
O549   Zn568   1.930   .     S
O549   Zn567   1.939   .     S
O549   Zn566   1.954   .     S
O550   Zn566   1.930   .     S
O551   Zn568   1.939   .     S
O552   Zn567   1.937   .     S
O553   Zn565   1.927   .     S
O555   C95     1.221   1_565 S
O557   Zn565   1.942   .     S
O558   Zn568   1.943   .     S
O559   Zn566   1.920   .     S
O560   Zn567   1.931   .     S
O561   Zn568   1.932   .     S
O562   Zn565   1.923   .     S
O563   Zn566   1.942   .     S
O564   Zn567   1.938   .     S
C569   O630    1.273   .     A
C569   O632    1.272   .     A
C569   C579    1.435   .     S
C570   H603    1.076   .     S
C570   C598    1.412   .     A
C570   C571    1.401   .     A
C571   C593    1.528   .     S
C571   C1212   1.422   .     S
C572   O631    1.281   .     A
C572   O633    1.279   .     A
C572   C578    1.453   .     S
C573   C574    1.427   .     A
C573   C575    1.427   .     A
C573   C1210   1.422   1_554 S
C574   C577    1.405   .     A
C574   C599    1.425   .     A
C575   C590    1.479   .     S
C575   C576    1.400   .     A
C576   H616    1.085   .     S
C576   C588    1.390   .     A
C577   C588    1.386   .     A
C577   H615    1.082   .     S
C578   C437    1.333   1_655 S
C578   H470    1.088   1_655 S
C580   C587    1.399   .     A
C580   C589    1.393   .     A
C580   H618    1.083   .     S
C581   C584    1.454   .     S
C581   C156    1.348   1_565 S
C581   H188    1.088   1_565 S
C582   C592    1.486   .     S
C582   C583    1.430   .     S
C583   O628    1.269   .     A
C583   O634    1.281   .     A
C584   O629    1.262   .     A
C584   O635    1.277   .     A
C585   O621    1.278   .     A
C585   O623    1.278   .     A
C585   C588    1.451   .     S
C586   O624    1.281   .     A
C586   O622    1.281   .     A
C586   C587    1.471   .     S
C587   C591    1.399   .     A
C589   C597    1.405   .     A
C589   H617    1.084   .     S
C590   O625    1.221   .     D
C590   H1243   1.084   1_554 S
C591   H619    1.076   .     S
C591   C596    1.409   .     A
C592   H605    1.085   .     S
C593   H610    1.112   .     S
C593   H609    1.102   .     S
C593   C594    1.529   .     S
C594   H606    1.111   .     S
C594   H1246   1.108   .     S
C594   H466    1.110   1_655 S
C595   O627    1.222   .     D
C595   C600    1.489   .     S
C595   H611    1.085   .     S
C596   C598    1.426   .     A
C596   C597    1.415   .     A
C597   C1240   1.392   .     S
C598   C1238   1.420   .     S
C599   C600    1.431   .     A
C599   C1237   1.420   1_554 S
C600   C601    1.399   .     A
C601   H602    1.085   .     S
C601   C1236   1.392   1_554 S
H604   C1229   1.084   .     S
H607   C1233   1.108   1_554 S
H613   C437    1.086   1_655 S
O620   Zn636   1.954   .     S
O620   Zn639   1.930   .     S
O620   Zn638   1.939   .     S
O620   Zn637   1.954   .     S
O621   Zn637   1.930   .     S
O622   Zn639   1.939   .     S
O623   Zn638   1.937   .     S
O624   Zn636   1.927   .     S
O626   C166    1.221   1_565 S
O628   Zn636   1.942   .     S
O629   Zn639   1.943   .     S
O630   Zn637   1.920   .     S
O631   Zn638   1.931   .     S
O632   Zn639   1.932   .     S
O633   Zn636   1.923   .     S
O634   Zn637   1.942   .     S
O635   Zn638   1.938   .     S
C640   O701    1.273   .     A
C640   O703    1.272   .     A
C640   C650    1.435   .     S
C641   H674    1.076   .     S
C641   C669    1.412   .     A
C641   C642    1.401   .     A
C642   C664    1.528   .     S
C642   C5      1.422   1_556 S
C643   O702    1.281   .     A
C643   O704    1.279   .     A
C643   C649    1.453   .     S
C644   C645    1.427   .     A
C644   C646    1.427   .     A
C645   C648    1.405   .     A
C645   C670    1.425   .     A
C646   C661    1.479   .     S
C646   C647    1.400   .     A
C647   H687    1.085   .     S
C647   C659    1.390   .     A
C648   C659    1.386   .     A
C648   H686    1.082   .     S
C649   C721    1.333   .     S
C649   H754    1.088   .     S
C650   C791    1.333   1_455 S
C650   H826    1.086   1_455 S
C651   C658    1.399   .     A
C651   C660    1.393   .     A
C651   H689    1.083   .     S
C652   C655    1.454   .     S
C652   C866    1.348   .     S
C652   H898    1.088   .     S
C653   C663    1.486   .     S
C653   C654    1.430   .     S
C653   C1078   1.348   1_545 S
C654   O699    1.269   .     A
C654   O705    1.281   .     A
C655   O700    1.262   .     A
C655   O706    1.277   .     A
C656   O692    1.278   .     A
C656   O694    1.278   .     A
C656   C659    1.451   .     S
C657   O695    1.281   .     A
C657   O693    1.281   .     A
C657   C658    1.471   .     S
C658   C662    1.399   .     A
C660   C668    1.405   .     A
C660   H688    1.084   .     S
C661   O696    1.221   .     D
C662   H690    1.076   .     S
C662   C667    1.409   .     A
C663   H676    1.085   .     S
C663   O1123   1.221   1_545 S
C664   H681    1.112   .     S
C664   H680    1.102   .     S
C664   C665    1.529   .     S
C665   H677    1.111   .     S
C665   H39     1.108   1_556 S
C665   H750    1.110   .     S
C666   O698    1.222   .     D
C666   C671    1.489   .     S
C666   H682    1.085   .     S
C667   C669    1.426   .     A
C667   C668    1.415   .     A
C668   C33     1.392   1_556 S
C669   C31     1.420   1_556 S
C670   C671    1.431   .     A
C671   C672    1.399   .     A
C672   H673    1.085   .     S
H675   C22     1.084   1_556 S
H679   C807    1.110   1_455 S
H683   C791    1.088   1_455 S
H684   C721    1.086   .     S
H685   C1078   1.088   1_545 S
O691   Zn707   1.954   .     S
O691   Zn710   1.930   .     S
O691   Zn709   1.939   .     S
O691   Zn708   1.954   .     S
O692   Zn708   1.930   .     S
O693   Zn710   1.939   .     S
O694   Zn709   1.937   .     S
O695   Zn707   1.927   .     S
O697   C876    1.221   .     S
O699   Zn707   1.942   .     S
O700   Zn710   1.943   .     S
O701   Zn708   1.920   .     S
O702   Zn709   1.931   .     S
O703   Zn710   1.932   .     S
O704   Zn707   1.923   .     S
O705   Zn708   1.942   .     S
O706   Zn709   1.938   .     S
C711   O772    1.273   .     A
C711   O774    1.272   .     A
C711   C721    1.435   .     S
C712   H745    1.076   .     S
C712   C740    1.412   .     A
C712   C713    1.401   .     A
C713   C735    1.528   .     S
C713   C76     1.422   1_556 S
C714   O773    1.281   .     A
C714   O775    1.279   .     A
C714   C720    1.453   .     S
C715   C716    1.427   .     A
C715   C717    1.427   .     A
C716   C719    1.405   .     A
C716   C741    1.425   .     A
C717   C732    1.479   .     S
C717   C718    1.400   .     A
C718   H758    1.085   .     S
C718   C730    1.390   .     A
C719   C730    1.386   .     A
C719   H757    1.082   .     S
C720   C792    1.333   .     S
C720   H825    1.088   .     S
C722   C729    1.399   .     A
C722   C731    1.393   .     A
C722   H760    1.083   .     S
C723   C726    1.454   .     S
C723   C937    1.348   .     S
C723   H969    1.088   .     S
C724   C734    1.486   .     S
C724   C725    1.430   .     S
C724   C1149   1.348   1_545 S
C725   O770    1.269   .     A
C725   O776    1.281   .     A
C726   O771    1.262   .     A
C726   O777    1.277   .     A
C727   O763    1.278   .     A
C727   O765    1.278   .     A
C727   C730    1.451   .     S
C728   O766    1.281   .     A
C728   O764    1.281   .     A
C728   C729    1.471   .     S
C729   C733    1.399   .     A
C731   C739    1.405   .     A
C731   H759    1.084   .     S
C732   O767    1.221   .     D
C733   H761    1.076   .     S
C733   C738    1.409   .     A
C734   H747    1.085   .     S
C734   O1194   1.221   1_545 S
C735   H752    1.112   .     S
C735   H751    1.102   .     S
C735   C736    1.529   .     S
C736   H748    1.111   .     S
C736   H110    1.108   1_556 S
C736   H821    1.110   .     S
C737   O769    1.222   .     D
C737   C742    1.489   .     S
C737   H753    1.085   .     S
C738   C740    1.426   .     A
C738   C739    1.415   .     A
C739   C104    1.392   1_556 S
C740   C102    1.420   1_556 S
C741   C742    1.431   .     A
C742   C743    1.399   .     A
C743   H744    1.085   .     S
H746   C93     1.084   1_556 S
H755   C792    1.086   .     S
H756   C1149   1.088   1_545 S
O762   Zn778   1.954   .     S
O762   Zn781   1.930   .     S
O762   Zn780   1.939   .     S
O762   Zn779   1.954   .     S
O763   Zn779   1.930   .     S
O764   Zn781   1.939   .     S
O765   Zn780   1.937   .     S
O766   Zn778   1.927   .     S
O768   C947    1.221   .     S
O770   Zn778   1.942   .     S
O771   Zn781   1.943   .     S
O772   Zn779   1.920   .     S
O773   Zn780   1.931   .     S
O774   Zn781   1.932   .     S
O775   Zn778   1.923   .     S
O776   Zn779   1.942   .     S
O777   Zn780   1.938   .     S
C782   O843    1.273   .     A
C782   O845    1.272   .     A
C782   C792    1.435   .     S
C783   H816    1.076   .     S
C783   C811    1.412   .     A
C783   C784    1.401   .     A
C784   C806    1.528   .     S
C784   C147    1.422   1_556 S
C785   O844    1.281   .     A
C785   O846    1.279   .     A
C785   C791    1.453   .     S
C786   C787    1.427   .     A
C786   C788    1.427   .     A
C787   C790    1.405   .     A
C787   C812    1.425   .     A
C788   C803    1.479   .     S
C788   C789    1.400   .     A
C789   H829    1.085   .     S
C789   C801    1.390   .     A
C790   C801    1.386   .     A
C790   H828    1.082   .     S
C791   C650    1.333   1_655 S
C791   H683    1.088   1_655 S
C793   C800    1.399   .     A
C793   C802    1.393   .     A
C793   H831    1.083   .     S
C794   C797    1.454   .     S
C794   C1008   1.348   .     S
C794   H1040   1.088   .     S
C795   C805    1.486   .     S
C795   C796    1.430   .     S
C795   C1220   1.348   1_545 S
C796   O841    1.269   .     A
C796   O847    1.281   .     A
C797   O842    1.262   .     A
C797   O848    1.277   .     A
C798   O834    1.278   .     A
C798   O836    1.278   .     A
C798   C801    1.451   .     S
C799   O837    1.281   .     A
C799   O835    1.281   .     A
C799   C800    1.471   .     S
C800   C804    1.399   .     A
C802   C810    1.405   .     A
C802   H830    1.084   .     S
C803   O838    1.221   .     D
C804   H832    1.076   .     S
C804   C809    1.409   .     A
C805   H818    1.085   .     S
C805   O1265   1.221   1_545 S
C806   H823    1.112   .     S
C806   H822    1.102   .     S
C806   C807    1.529   .     S
C807   H819    1.111   .     S
C807   H181    1.108   1_556 S
C807   H679    1.110   1_655 S
C808   O840    1.222   .     D
C808   C813    1.489   .     S
C808   H824    1.085   .     S
C809   C811    1.426   .     A
C809   C810    1.415   .     A
C810   C175    1.392   1_556 S
C811   C173    1.420   1_556 S
C812   C813    1.431   .     A
C813   C814    1.399   .     A
C814   H815    1.085   .     S
H817   C164    1.084   1_556 S
H826   C650    1.086   1_655 S
H827   C1220   1.088   1_545 S
O833   Zn849   1.954   .     S
O833   Zn852   1.930   .     S
O833   Zn851   1.939   .     S
O833   Zn850   1.954   .     S
O834   Zn850   1.930   .     S
O835   Zn852   1.939   .     S
O836   Zn851   1.937   .     S
O837   Zn849   1.927   .     S
O839   C1018   1.221   .     S
O841   Zn849   1.942   .     S
O842   Zn852   1.943   .     S
O843   Zn850   1.920   .     S
O844   Zn851   1.931   .     S
O845   Zn852   1.932   .     S
O846   Zn849   1.923   .     S
O847   Zn850   1.942   .     S
O848   Zn851   1.938   .     S
C853   O914    1.273   .     A
C853   O916    1.272   .     A
C853   C863    1.435   .     S
C854   H887    1.076   .     S
C854   C882    1.412   .     A
C854   C855    1.401   .     A
C855   C877    1.528   .     S
C855   C218    1.422   1_556 S
C856   O915    1.281   .     A
C856   O917    1.279   .     A
C856   C862    1.453   .     S
C857   C858    1.427   .     A
C857   C859    1.427   .     A
C858   C861    1.405   .     A
C858   C883    1.425   .     A
C859   C874    1.479   .     S
C859   C860    1.400   .     A
C860   H900    1.085   .     S
C860   C872    1.390   .     A
C861   C872    1.386   .     A
C861   H899    1.082   .     S
C862   C934    1.333   .     S
C862   H967    1.088   .     S
C863   C1004   1.333   1_455 S
C863   H1039   1.086   1_455 S
C864   C871    1.399   .     A
C864   C873    1.393   .     A
C864   H902    1.083   .     S
C865   C868    1.454   .     S
C865   C1079   1.348   .     S
C865   H1111   1.088   .     S
C866   C876    1.486   .     S
C866   C867    1.430   .     S
C867   O912    1.269   .     A
C867   O918    1.281   .     A
C868   O913    1.262   .     A
C868   O919    1.277   .     A
C869   O905    1.278   .     A
C869   O907    1.278   .     A
C869   C872    1.451   .     S
C870   O908    1.281   .     A
C870   O906    1.281   .     A
C870   C871    1.471   .     S
C871   C875    1.399   .     A
C873   C881    1.405   .     A
C873   H901    1.084   .     S
C874   O909    1.221   .     D
C875   H903    1.076   .     S
C875   C880    1.409   .     A
C876   H889    1.085   .     S
C877   H894    1.112   .     S
C877   H893    1.102   .     S
C877   C878    1.529   .     S
C878   H890    1.111   .     S
C878   H252    1.108   1_556 S
C878   H963    1.110   .     S
C879   O911    1.222   .     D
C879   C884    1.489   .     S
C879   H895    1.085   .     S
C880   C882    1.426   .     A
C880   C881    1.415   .     A
C881   C246    1.392   1_556 S
C882   C244    1.420   1_556 S
C883   C884    1.431   .     A
C884   C885    1.399   .     A
C885   H886    1.085   .     S
H888   C235    1.084   1_556 S
H892   C1020   1.110   1_455 S
H896   C1004   1.088   1_455 S
H897   C934    1.086   .     S
O904   Zn920   1.954   .     S
O904   Zn923   1.930   .     S
O904   Zn922   1.939   .     S
O904   Zn921   1.954   .     S
O905   Zn921   1.930   .     S
O906   Zn923   1.939   .     S
O907   Zn922   1.937   .     S
O908   Zn920   1.927   .     S
O910   C1089   1.221   .     S
O912   Zn920   1.942   .     S
O913   Zn923   1.943   .     S
O914   Zn921   1.920   .     S
O915   Zn922   1.931   .     S
O916   Zn923   1.932   .     S
O917   Zn920   1.923   .     S
O918   Zn921   1.942   .     S
O919   Zn922   1.938   .     S
C924   O985    1.273   .     A
C924   O987    1.272   .     A
C924   C934    1.435   .     S
C925   H958    1.076   .     S
C925   C953    1.412   .     A
C925   C926    1.401   .     A
C926   C948    1.528   .     S
C926   C289    1.422   1_556 S
C927   O986    1.281   .     A
C927   O988    1.279   .     A
C927   C933    1.453   .     S
C928   C929    1.427   .     A
C928   C930    1.427   .     A
C929   C932    1.405   .     A
C929   C954    1.425   .     A
C930   C945    1.479   .     S
C930   C931    1.400   .     A
C931   H971    1.085   .     S
C931   C943    1.390   .     A
C932   C943    1.386   .     A
C932   H970    1.082   .     S
C933   C1005   1.333   .     S
C933   H1038   1.088   .     S
C935   C942    1.399   .     A
C935   C944    1.393   .     A
C935   H973    1.083   .     S
C936   C939    1.454   .     S
C936   C1150   1.348   .     S
C936   H1182   1.088   .     S
C937   C947    1.486   .     S
C937   C938    1.430   .     S
C938   O983    1.269   .     A
C938   O989    1.281   .     A
C939   O984    1.262   .     A
C939   O990    1.277   .     A
C940   O976    1.278   .     A
C940   O978    1.278   .     A
C940   C943    1.451   .     S
C941   O979    1.281   .     A
C941   O977    1.281   .     A
C941   C942    1.471   .     S
C942   C946    1.399   .     A
C944   C952    1.405   .     A
C944   H972    1.084   .     S
C945   O980    1.221   .     D
C946   H974    1.076   .     S
C946   C951    1.409   .     A
C947   H960    1.085   .     S
C948   H965    1.112   .     S
C948   H964    1.102   .     S
C948   C949    1.529   .     S
C949   H961    1.111   .     S
C949   H323    1.108   1_556 S
C949   H1034   1.110   .     S
C950   O982    1.222   .     D
C950   C955    1.489   .     S
C950   H966    1.085   .     S
C951   C953    1.426   .     A
C951   C952    1.415   .     A
C952   C317    1.392   1_556 S
C953   C315    1.420   1_556 S
C954   C955    1.431   .     A
C955   C956    1.399   .     A
C956   H957    1.085   .     S
H959   C306    1.084   1_556 S
H968   C1005   1.086   .     S
O975   Zn991   1.954   .     S
O975   Zn994   1.930   .     S
O975   Zn993   1.939   .     S
O975   Zn992   1.954   .     S
O976   Zn992   1.930   .     S
O977   Zn994   1.939   .     S
O978   Zn993   1.937   .     S
O979   Zn991   1.927   .     S
O981   C1160   1.221   .     S
O983   Zn991   1.942   .     S
O984   Zn994   1.943   .     S
O985   Zn992   1.920   .     S
O986   Zn993   1.931   .     S
O987   Zn994   1.932   .     S
O988   Zn991   1.923   .     S
O989   Zn992   1.942   .     S
O990   Zn993   1.938   .     S
C995   O1056   1.273   .     A
C995   O1058   1.272   .     A
C995   C1005   1.435   .     S
C996   H1029   1.076   .     S
C996   C1024   1.412   .     A
C996   C997    1.401   .     A
C997   C1019   1.528   .     S
C997   C360    1.422   1_556 S
C998   O1057   1.281   .     A
C998   O1059   1.279   .     A
C998   C1004   1.453   .     S
C999   C1000   1.427   .     A
C999   C1001   1.427   .     A
C1000  C1003   1.405   .     A
C1000  C1025   1.425   .     A
C1001  C1016   1.479   .     S
C1001  C1002   1.400   .     A
C1002  H1042   1.085   .     S
C1002  C1014   1.390   .     A
C1003  C1014   1.386   .     A
C1003  H1041   1.082   .     S
C1004  C863    1.333   1_655 S
C1004  H896    1.088   1_655 S
C1006  C1013   1.399   .     A
C1006  C1015   1.393   .     A
C1006  H1044   1.083   .     S
C1007  C1010   1.454   .     S
C1007  C1221   1.348   .     S
C1007  H1253   1.088   .     S
C1008  C1018   1.486   .     S
C1008  C1009   1.430   .     S
C1009  O1054   1.269   .     A
C1009  O1060   1.281   .     A
C1010  O1055   1.262   .     A
C1010  O1061   1.277   .     A
C1011  O1047   1.278   .     A
C1011  O1049   1.278   .     A
C1011  C1014   1.451   .     S
C1012  O1050   1.281   .     A
C1012  O1048   1.281   .     A
C1012  C1013   1.471   .     S
C1013  C1017   1.399   .     A
C1015  C1023   1.405   .     A
C1015  H1043   1.084   .     S
C1016  O1051   1.221   .     D
C1017  H1045   1.076   .     S
C1017  C1022   1.409   .     A
C1018  H1031   1.085   .     S
C1019  H1036   1.112   .     S
C1019  H1035   1.102   .     S
C1019  C1020   1.529   .     S
C1020  H1032   1.111   .     S
C1020  H394    1.108   1_556 S
C1020  H892    1.110   1_655 S
C1021  O1053   1.222   .     D
C1021  C1026   1.489   .     S
C1021  H1037   1.085   .     S
C1022  C1024   1.426   .     A
C1022  C1023   1.415   .     A
C1023  C388    1.392   1_556 S
C1024  C386    1.420   1_556 S
C1025  C1026   1.431   .     A
C1026  C1027   1.399   .     A
C1027  H1028   1.085   .     S
H1030  C377    1.084   1_556 S
H1039  C863    1.086   1_655 S
O1046  Zn1062  1.954   .     S
O1046  Zn1065  1.930   .     S
O1046  Zn1064  1.939   .     S
O1046  Zn1063  1.954   .     S
O1047  Zn1063  1.930   .     S
O1048  Zn1065  1.939   .     S
O1049  Zn1064  1.937   .     S
O1050  Zn1062  1.927   .     S
O1052  C1231   1.221   .     S
O1054  Zn1062  1.942   .     S
O1055  Zn1065  1.943   .     S
O1056  Zn1063  1.920   .     S
O1057  Zn1064  1.931   .     S
O1058  Zn1065  1.932   .     S
O1059  Zn1062  1.923   .     S
O1060  Zn1063  1.942   .     S
O1061  Zn1064  1.938   .     S
C1066  O1127   1.273   .     A
C1066  O1129   1.272   .     A
C1066  C1076   1.435   .     S
C1067  H1100   1.076   .     S
C1067  C1095   1.412   .     A
C1067  C1068   1.401   .     A
C1068  C1090   1.528   .     S
C1068  C431    1.422   1_556 S
C1069  O1128   1.281   .     A
C1069  O1130   1.279   .     A
C1069  C1075   1.453   .     S
C1070  C1071   1.427   .     A
C1070  C1072   1.427   .     A
C1071  C1074   1.405   .     A
C1071  C1096   1.425   .     A
C1072  C1087   1.479   .     S
C1072  C1073   1.400   .     A
C1073  H1113   1.085   .     S
C1073  C1085   1.390   .     A
C1074  C1085   1.386   .     A
C1074  H1112   1.082   .     S
C1075  C1147   1.333   .     S
C1075  H1180   1.088   .     S
C1076  C1217   1.333   1_455 S
C1076  H1252   1.086   1_455 S
C1077  C1084   1.399   .     A
C1077  C1086   1.393   .     A
C1077  H1115   1.083   .     S
C1078  C1081   1.454   .     S
C1078  C653    1.348   1_565 S
C1078  H685    1.088   1_565 S
C1079  C1089   1.486   .     S
C1079  C1080   1.430   .     S
C1080  O1125   1.269   .     A
C1080  O1131   1.281   .     A
C1081  O1126   1.262   .     A
C1081  O1132   1.277   .     A
C1082  O1118   1.278   .     A
C1082  O1120   1.278   .     A
C1082  C1085   1.451   .     S
C1083  O1121   1.281   .     A
C1083  O1119   1.281   .     A
C1083  C1084   1.471   .     S
C1084  C1088   1.399   .     A
C1086  C1094   1.405   .     A
C1086  H1114   1.084   .     S
C1087  O1122   1.221   .     D
C1088  H1116   1.076   .     S
C1088  C1093   1.409   .     A
C1089  H1102   1.085   .     S
C1090  H1107   1.112   .     S
C1090  H1106   1.102   .     S
C1090  C1091   1.529   .     S
C1091  H1103   1.111   .     S
C1091  H465    1.108   1_556 S
C1091  H1176   1.110   .     S
C1092  O1124   1.222   .     D
C1092  C1097   1.489   .     S
C1092  H1108   1.085   .     S
C1093  C1095   1.426   .     A
C1093  C1094   1.415   .     A
C1094  C459    1.392   1_556 S
C1095  C457    1.420   1_556 S
C1096  C1097   1.431   .     A
C1097  C1098   1.399   .     A
C1098  H1099   1.085   .     S
H1101  C448    1.084   1_556 S
H1105  C1233   1.110   1_455 S
H1109  C1217   1.088   1_455 S
H1110  C1147   1.086   .     S
O1117  Zn1133  1.954   .     S
O1117  Zn1136  1.930   .     S
O1117  Zn1135  1.939   .     S
O1117  Zn1134  1.954   .     S
O1118  Zn1134  1.930   .     S
O1119  Zn1136  1.939   .     S
O1120  Zn1135  1.937   .     S
O1121  Zn1133  1.927   .     S
O1123  C663    1.221   1_565 S
O1125  Zn1133  1.942   .     S
O1126  Zn1136  1.943   .     S
O1127  Zn1134  1.920   .     S
O1128  Zn1135  1.931   .     S
O1129  Zn1136  1.932   .     S
O1130  Zn1133  1.923   .     S
O1131  Zn1134  1.942   .     S
O1132  Zn1135  1.938   .     S
C1137  O1198   1.273   .     A
C1137  O1200   1.272   .     A
C1137  C1147   1.435   .     S
C1138  H1171   1.076   .     S
C1138  C1166   1.412   .     A
C1138  C1139   1.401   .     A
C1139  C1161   1.528   .     S
C1139  C502    1.422   1_556 S
C1140  O1199   1.281   .     A
C1140  O1201   1.279   .     A
C1140  C1146   1.453   .     S
C1141  C1142   1.427   .     A
C1141  C1143   1.427   .     A
C1142  C1145   1.405   .     A
C1142  C1167   1.425   .     A
C1143  C1158   1.479   .     S
C1143  C1144   1.400   .     A
C1144  H1184   1.085   .     S
C1144  C1156   1.390   .     A
C1145  C1156   1.386   .     A
C1145  H1183   1.082   .     S
C1146  C1218   1.333   .     S
C1146  H1251   1.088   .     S
C1148  C1155   1.399   .     A
C1148  C1157   1.393   .     A
C1148  H1186   1.083   .     S
C1149  C1152   1.454   .     S
C1149  C724    1.348   1_565 S
C1149  H756    1.088   1_565 S
C1150  C1160   1.486   .     S
C1150  C1151   1.430   .     S
C1151  O1196   1.269   .     A
C1151  O1202   1.281   .     A
C1152  O1197   1.262   .     A
C1152  O1203   1.277   .     A
C1153  O1189   1.278   .     A
C1153  O1191   1.278   .     A
C1153  C1156   1.451   .     S
C1154  O1192   1.281   .     A
C1154  O1190   1.281   .     A
C1154  C1155   1.471   .     S
C1155  C1159   1.399   .     A
C1157  C1165   1.405   .     A
C1157  H1185   1.084   .     S
C1158  O1193   1.221   .     D
C1159  H1187   1.076   .     S
C1159  C1164   1.409   .     A
C1160  H1173   1.085   .     S
C1161  H1178   1.112   .     S
C1161  H1177   1.102   .     S
C1161  C1162   1.529   .     S
C1162  H1174   1.111   .     S
C1162  H536    1.108   1_556 S
C1162  H1247   1.110   .     S
C1163  O1195   1.222   .     D
C1163  C1168   1.489   .     S
C1163  H1179   1.085   .     S
C1164  C1166   1.426   .     A
C1164  C1165   1.415   .     A
C1165  C530    1.392   1_556 S
C1166  C528    1.420   1_556 S
C1167  C1168   1.431   .     A
C1168  C1169   1.399   .     A
C1169  H1170   1.085   .     S
H1172  C519    1.084   1_556 S
H1181  C1218   1.086   .     S
O1188  Zn1204  1.954   .     S
O1188  Zn1207  1.930   .     S
O1188  Zn1206  1.939   .     S
O1188  Zn1205  1.954   .     S
O1189  Zn1205  1.930   .     S
O1190  Zn1207  1.939   .     S
O1191  Zn1206  1.937   .     S
O1192  Zn1204  1.927   .     S
O1194  C734    1.221   1_565 S
O1196  Zn1204  1.942   .     S
O1197  Zn1207  1.943   .     S
O1198  Zn1205  1.920   .     S
O1199  Zn1206  1.931   .     S
O1200  Zn1207  1.932   .     S
O1201  Zn1204  1.923   .     S
O1202  Zn1205  1.942   .     S
O1203  Zn1206  1.938   .     S
C1208  O1269   1.273   .     A
C1208  O1271   1.272   .     A
C1208  C1218   1.435   .     S
C1209  H1242   1.076   .     S
C1209  C1237   1.412   .     A
C1209  C1210   1.401   .     A
C1210  C1232   1.528   .     S
C1210  C573    1.422   1_556 S
C1211  O1270   1.281   .     A
C1211  O1272   1.279   .     A
C1211  C1217   1.453   .     S
C1212  C1213   1.427   .     A
C1212  C1214   1.427   .     A
C1213  C1216   1.405   .     A
C1213  C1238   1.425   .     A
C1214  C1229   1.479   .     S
C1214  C1215   1.400   .     A
C1215  H1255   1.085   .     S
C1215  C1227   1.390   .     A
C1216  C1227   1.386   .     A
C1216  H1254   1.082   .     S
C1217  C1076   1.333   1_655 S
C1217  H1109   1.088   1_655 S
C1219  C1226   1.399   .     A
C1219  C1228   1.393   .     A
C1219  H1257   1.083   .     S
C1220  C1223   1.454   .     S
C1220  C795    1.348   1_565 S
C1220  H827    1.088   1_565 S
C1221  C1231   1.486   .     S
C1221  C1222   1.430   .     S
C1222  O1267   1.269   .     A
C1222  O1273   1.281   .     A
C1223  O1268   1.262   .     A
C1223  O1274   1.277   .     A
C1224  O1260   1.278   .     A
C1224  O1262   1.278   .     A
C1224  C1227   1.451   .     S
C1225  O1263   1.281   .     A
C1225  O1261   1.281   .     A
C1225  C1226   1.471   .     S
C1226  C1230   1.399   .     A
C1228  C1236   1.405   .     A
C1228  H1256   1.084   .     S
C1229  O1264   1.221   .     D
C1230  H1258   1.076   .     S
C1230  C1235   1.409   .     A
C1231  H1244   1.085   .     S
C1232  H1249   1.112   .     S
C1232  H1248   1.102   .     S
C1232  C1233   1.529   .     S
C1233  H1245   1.111   .     S
C1233  H607    1.108   1_556 S
C1233  H1105   1.110   1_655 S
C1234  O1266   1.222   .     D
C1234  C1239   1.489   .     S
C1234  H1250   1.085   .     S
C1235  C1237   1.426   .     A
C1235  C1236   1.415   .     A
C1236  C601    1.392   1_556 S
C1237  C599    1.420   1_556 S
C1238  C1239   1.431   .     A
C1239  C1240   1.399   .     A
C1240  H1241   1.085   .     S
H1243  C590    1.084   1_556 S
H1252  C1076   1.086   1_655 S
O1259  Zn1275  1.954   .     S
O1259  Zn1278  1.930   .     S
O1259  Zn1277  1.939   .     S
O1259  Zn1276  1.954   .     S
O1260  Zn1276  1.930   .     S
O1261  Zn1278  1.939   .     S
O1262  Zn1277  1.937   .     S
O1263  Zn1275  1.927   .     S
O1265  C805    1.221   1_565 S
O1267  Zn1275  1.942   .     S
O1268  Zn1278  1.943   .     S
O1269  Zn1276  1.920   .     S
O1270  Zn1277  1.931   .     S
O1271  Zn1278  1.932   .     S
O1272  Zn1275  1.923   .     S
O1273  Zn1276  1.942   .     S
O1274  Zn1277  1.938   .     S
