data_str_m1_o10_o16_pcu_sym.45
_audit_creation_date              2020-01-03
_audit_creation_method            'Materials Studio'
_symmetry_space_group_name_H-M    'P1'
_symmetry_Int_Tables_number       1
_symmetry_cell_setting            triclinic
loop_
_symmetry_equiv_pos_as_xyz
  x,y,z
_cell_length_a                    32.6074
_cell_length_b                    32.5158
_cell_length_c                    30.9083
_cell_angle_alpha                 96.7636
_cell_angle_beta                  74.5543
_cell_angle_gamma                 98.5732
loop_
_atom_site_label
_atom_site_type_symbol
_atom_site_fract_x
_atom_site_fract_y
_atom_site_fract_z
_atom_site_U_iso_or_equiv
_atom_site_adp_type
_atom_site_occupancy
Zn1    Zn    0.19338   0.13994   0.28734   0.00000  Uiso   1.00
Zn2    Zn    0.13379   0.12458   0.21876   0.00000  Uiso   1.00
Zn3    Zn    0.21056   0.19775   0.20657   0.00000  Uiso   1.00
Zn4    Zn    0.12893   0.20439   0.28734   0.00000  Uiso   1.00
O5     O     0.16667   0.16667   0.25000   0.00000  Uiso   1.00
O6     O     0.07071   0.18878   0.28213   0.00000  Uiso   1.00
O7     O     0.25491   0.15226   0.27014   0.00000  Uiso   1.00
O8     O     0.13760   0.06944   0.23413   0.00000  Uiso   1.00
O9     O     0.20345   0.25620   0.21361   0.00000  Uiso   1.00
O10    O     0.15451   0.12637   0.15459   0.00000  Uiso   1.00
O11    O     0.12940   0.20391   0.34968   0.00000  Uiso   1.00
O12    O     0.20824   0.17759   0.14606   0.00000  Uiso   1.00
O13    O     0.17451   0.15880   0.34968   0.00000  Uiso   1.00
O14    O     0.17930   0.08019   0.28214   0.00000  Uiso   1.00
O15    O     0.14632   0.26085   0.27014   0.00000  Uiso   1.00
O16    O     0.07412   0.13291   0.23413   0.00000  Uiso   1.00
O17    O     0.26693   0.19272   0.21361   0.00000  Uiso   1.00
C18    C     0.05259   0.15933   0.26069   0.00000  Uiso   1.00
C19    C     0.28092   0.17331   0.23930   0.00000  Uiso   1.00
C20    C     0.15604   0.05587   0.26023   0.00000  Uiso   1.00
C21    C     0.17657   0.27795   0.24019   0.00000  Uiso   1.00
C22    C     0.18520   0.14802   0.12920   0.00000  Uiso   1.00
C23    C     0.14833   0.18478   0.37120   0.00000  Uiso   1.00
C24    C     0.20031   0.08792   0.01608   0.00000  Uiso   1.00
C25    C     0.19190   0.13906   0.08061   0.00000  Uiso   1.00
C26    C     0.13072   0.23410   0.44034   0.00000  Uiso   1.00
C27    C     0.12752   0.24463   0.48619   0.00000  Uiso   1.00
C28    C     0.13900   0.21735   0.01133   0.00000  Uiso   1.00
C29    C     0.15127   0.17790   0.49226   0.00000  Uiso   1.00
C30    C     0.14609   0.16410   0.44857   0.00000  Uiso   1.00
C31    C     0.16828   0.15176   0.01538   0.00000  Uiso   1.00
C32    C     0.17831   0.11149   0.49519   0.00000  Uiso   1.00
C33    C     0.16389   0.09536   0.45644   0.00000  Uiso   1.00
C34    C     0.14557   0.12081   0.43489   0.00000  Uiso   1.00
C35    C     0.17598   0.16480   0.05796   0.00000  Uiso   1.00
C36    C     0.20564   0.10116   0.05944   0.00000  Uiso   1.00
C37    C     0.14054   0.19382   0.42078   0.00000  Uiso   1.00
H38    H     0.16781   0.19401   0.07606   0.00000  Uiso   1.00
H39    H     0.13757   0.22803   0.04588   0.00000  Uiso   1.00
C40    C     0.32720   0.17515   0.23328   0.00000  Uiso   1.00
C41    C     0.00767   0.15854   0.26381   0.00000  Uiso   1.00
H42    H     0.31877   0.14533   0.29313   0.00000  Uiso   1.00
C43    C     0.18048   0.32250   0.23657   0.00000  Uiso   1.00
H44    H     0.20708   0.00373   0.21148   0.00000  Uiso   1.00
C45    C     0.15167   0.01175   0.26387   0.00000  Uiso   1.00
H46    H     0.12466   0.33130   0.28901   0.00000  Uiso   1.00
N47    N     0.22434   0.07566   0.08230   0.00000  Uiso   1.00
O48    O     0.25024   0.09277   0.10674   0.00000  Uiso   1.00
O49    O     0.21493   0.03527   0.07958   0.00000  Uiso   1.00
N50    N     0.16432   0.05204   0.44082   0.00000  Uiso   1.00
H51    H     0.13280   0.03810   0.44356   0.00000  Uiso   1.00
H52    H     0.18121   0.04977   0.40691   0.00000  Uiso   1.00
N53    N     0.22019   0.05214   0.49320   0.00000  Uiso   1.00
H54    H     0.19686   0.02652   0.49266   0.00000  Uiso   1.00
H55    H     0.23747   0.05870   0.46056   0.00000  Uiso   1.00
N56    N     0.12574   0.26537   0.41363   0.00000  Uiso   1.00
O57    O     0.08974   0.28120   0.42272   0.00000  Uiso   1.00
O58    O     0.15893   0.28221   0.38473   0.00000  Uiso   1.00
N59    N     0.11478   0.28442   0.00643   0.00000  Uiso   1.00
H60    H     0.13900   0.30745   0.49242   0.00000  Uiso   1.00
H61    H     0.11242   0.28724   0.04103   0.00000  Uiso   1.00
N62    N     0.12032   0.10035   0.40491   0.00000  Uiso   1.00
H63    H     0.14048   0.09133   0.37395   0.00000  Uiso   1.00
H64    H     0.09858   0.11907   0.40052   0.00000  Uiso   1.00
N65    N     0.02317   0.19406   0.19491   0.00000  Uiso   1.00
O66    O     0.01312   0.19059   0.15651   0.00000  Uiso   1.00
O67    O     0.05827   0.21737   0.19890   0.00000  Uiso   1.00
Zn68   Zn    0.52672   0.13994   0.28734   0.00000  Uiso   1.00
Zn69   Zn    0.46713   0.12458   0.21876   0.00000  Uiso   1.00
Zn70   Zn    0.54389   0.19775   0.20657   0.00000  Uiso   1.00
Zn71   Zn    0.46226   0.20439   0.28734   0.00000  Uiso   1.00
O72    O     0.50000   0.16667   0.25000   0.00000  Uiso   1.00
O73    O     0.40405   0.18878   0.28213   0.00000  Uiso   1.00
O74    O     0.58824   0.15226   0.27014   0.00000  Uiso   1.00
O75    O     0.47093   0.06944   0.23413   0.00000  Uiso   1.00
O76    O     0.53678   0.25620   0.21361   0.00000  Uiso   1.00
O77    O     0.48784   0.12637   0.15459   0.00000  Uiso   1.00
O78    O     0.46274   0.20391   0.34968   0.00000  Uiso   1.00
O79    O     0.54157   0.17759   0.14606   0.00000  Uiso   1.00
O80    O     0.50785   0.15880   0.34968   0.00000  Uiso   1.00
O81    O     0.51264   0.08019   0.28214   0.00000  Uiso   1.00
O82    O     0.47965   0.26085   0.27014   0.00000  Uiso   1.00
O83    O     0.40745   0.13291   0.23413   0.00000  Uiso   1.00
O84    O     0.60026   0.19272   0.21361   0.00000  Uiso   1.00
C85    C     0.38593   0.15933   0.26069   0.00000  Uiso   1.00
C86    C     0.61425   0.17331   0.23930   0.00000  Uiso   1.00
C87    C     0.48938   0.05587   0.26023   0.00000  Uiso   1.00
C88    C     0.50991   0.27795   0.24019   0.00000  Uiso   1.00
C89    C     0.51853   0.14802   0.12920   0.00000  Uiso   1.00
C90    C     0.48166   0.18478   0.37120   0.00000  Uiso   1.00
C91    C     0.53365   0.08792   0.01608   0.00000  Uiso   1.00
C92    C     0.52523   0.13906   0.08061   0.00000  Uiso   1.00
C93    C     0.46406   0.23410   0.44034   0.00000  Uiso   1.00
C94    C     0.46085   0.24463   0.48619   0.00000  Uiso   1.00
C95    C     0.47233   0.21735   0.01133   0.00000  Uiso   1.00
C96    C     0.48460   0.17790   0.49226   0.00000  Uiso   1.00
C97    C     0.47943   0.16410   0.44857   0.00000  Uiso   1.00
C98    C     0.50162   0.15176   0.01538   0.00000  Uiso   1.00
C99    C     0.51165   0.11149   0.49519   0.00000  Uiso   1.00
C100   C     0.49723   0.09536   0.45644   0.00000  Uiso   1.00
C101   C     0.47891   0.12081   0.43489   0.00000  Uiso   1.00
C102   C     0.50932   0.16480   0.05796   0.00000  Uiso   1.00
C103   C     0.53897   0.10116   0.05944   0.00000  Uiso   1.00
C104   C     0.47387   0.19382   0.42078   0.00000  Uiso   1.00
H105   H     0.50115   0.19401   0.07606   0.00000  Uiso   1.00
H106   H     0.47090   0.22803   0.04588   0.00000  Uiso   1.00
C107   C     0.66054   0.17515   0.23328   0.00000  Uiso   1.00
C108   C     0.34100   0.15854   0.26381   0.00000  Uiso   1.00
H109   H     0.65211   0.14533   0.29313   0.00000  Uiso   1.00
C110   C     0.51382   0.32250   0.23657   0.00000  Uiso   1.00
H111   H     0.54041   0.00373   0.21148   0.00000  Uiso   1.00
C112   C     0.48500   0.01175   0.26387   0.00000  Uiso   1.00
H113   H     0.45799   0.33130   0.28901   0.00000  Uiso   1.00
N114   N     0.55767   0.07566   0.08230   0.00000  Uiso   1.00
O115   O     0.58358   0.09277   0.10674   0.00000  Uiso   1.00
O116   O     0.54827   0.03527   0.07958   0.00000  Uiso   1.00
N117   N     0.49766   0.05204   0.44082   0.00000  Uiso   1.00
H118   H     0.46613   0.03810   0.44356   0.00000  Uiso   1.00
H119   H     0.51454   0.04977   0.40691   0.00000  Uiso   1.00
N120   N     0.55352   0.05214   0.49320   0.00000  Uiso   1.00
H121   H     0.53020   0.02652   0.49266   0.00000  Uiso   1.00
H122   H     0.57081   0.05870   0.46056   0.00000  Uiso   1.00
N123   N     0.45907   0.26537   0.41363   0.00000  Uiso   1.00
O124   O     0.42307   0.28120   0.42272   0.00000  Uiso   1.00
O125   O     0.49227   0.28221   0.38473   0.00000  Uiso   1.00
N126   N     0.44811   0.28442   0.00643   0.00000  Uiso   1.00
H127   H     0.47234   0.30745   0.49242   0.00000  Uiso   1.00
H128   H     0.44575   0.28724   0.04103   0.00000  Uiso   1.00
N129   N     0.45365   0.10035   0.40491   0.00000  Uiso   1.00
H130   H     0.47382   0.09133   0.37395   0.00000  Uiso   1.00
H131   H     0.43192   0.11907   0.40052   0.00000  Uiso   1.00
N132   N     0.35650   0.19406   0.19491   0.00000  Uiso   1.00
O133   O     0.34646   0.19059   0.15651   0.00000  Uiso   1.00
O134   O     0.39160   0.21737   0.19890   0.00000  Uiso   1.00
Zn135  Zn    0.86005   0.13994   0.28734   0.00000  Uiso   1.00
Zn136  Zn    0.80046   0.12458   0.21876   0.00000  Uiso   1.00
Zn137  Zn    0.87723   0.19775   0.20657   0.00000  Uiso   1.00
Zn138  Zn    0.79560   0.20439   0.28734   0.00000  Uiso   1.00
O139   O     0.83333   0.16667   0.25000   0.00000  Uiso   1.00
O140   O     0.73738   0.18878   0.28213   0.00000  Uiso   1.00
O141   O     0.92158   0.15226   0.27014   0.00000  Uiso   1.00
O142   O     0.80426   0.06944   0.23413   0.00000  Uiso   1.00
O143   O     0.87012   0.25620   0.21361   0.00000  Uiso   1.00
O144   O     0.82118   0.12637   0.15459   0.00000  Uiso   1.00
O145   O     0.79607   0.20391   0.34968   0.00000  Uiso   1.00
O146   O     0.87491   0.17759   0.14606   0.00000  Uiso   1.00
O147   O     0.84118   0.15880   0.34968   0.00000  Uiso   1.00
O148   O     0.84597   0.08019   0.28214   0.00000  Uiso   1.00
O149   O     0.81298   0.26085   0.27014   0.00000  Uiso   1.00
O150   O     0.74078   0.13291   0.23413   0.00000  Uiso   1.00
O151   O     0.93360   0.19272   0.21361   0.00000  Uiso   1.00
C152   C     0.71926   0.15933   0.26069   0.00000  Uiso   1.00
C153   C     0.94758   0.17331   0.23930   0.00000  Uiso   1.00
C154   C     0.82271   0.05587   0.26023   0.00000  Uiso   1.00
C155   C     0.84324   0.27795   0.24019   0.00000  Uiso   1.00
C156   C     0.85186   0.14802   0.12920   0.00000  Uiso   1.00
C157   C     0.81499   0.18478   0.37120   0.00000  Uiso   1.00
C158   C     0.86698   0.08792   0.01608   0.00000  Uiso   1.00
C159   C     0.85856   0.13906   0.08061   0.00000  Uiso   1.00
C160   C     0.79739   0.23410   0.44034   0.00000  Uiso   1.00
C161   C     0.79419   0.24463   0.48619   0.00000  Uiso   1.00
C162   C     0.80567   0.21735   0.01133   0.00000  Uiso   1.00
C163   C     0.81794   0.17790   0.49226   0.00000  Uiso   1.00
C164   C     0.81276   0.16410   0.44857   0.00000  Uiso   1.00
C165   C     0.83495   0.15176   0.01538   0.00000  Uiso   1.00
C166   C     0.84498   0.11149   0.49519   0.00000  Uiso   1.00
C167   C     0.83056   0.09536   0.45644   0.00000  Uiso   1.00
C168   C     0.81224   0.12081   0.43489   0.00000  Uiso   1.00
C169   C     0.84265   0.16480   0.05796   0.00000  Uiso   1.00
C170   C     0.87230   0.10116   0.05944   0.00000  Uiso   1.00
C171   C     0.80720   0.19382   0.42078   0.00000  Uiso   1.00
H172   H     0.83448   0.19401   0.07606   0.00000  Uiso   1.00
H173   H     0.80424   0.22803   0.04588   0.00000  Uiso   1.00
C174   C     0.99387   0.17515   0.23328   0.00000  Uiso   1.00
C175   C     0.67433   0.15854   0.26381   0.00000  Uiso   1.00
H176   H     0.98544   0.14533   0.29313   0.00000  Uiso   1.00
C177   C     0.84715   0.32250   0.23657   0.00000  Uiso   1.00
H178   H     0.87375   0.00373   0.21148   0.00000  Uiso   1.00
C179   C     0.81834   0.01175   0.26387   0.00000  Uiso   1.00
H180   H     0.79133   0.33130   0.28901   0.00000  Uiso   1.00
N181   N     0.89101   0.07566   0.08230   0.00000  Uiso   1.00
O182   O     0.91691   0.09277   0.10674   0.00000  Uiso   1.00
O183   O     0.88160   0.03527   0.07958   0.00000  Uiso   1.00
N184   N     0.83099   0.05204   0.44082   0.00000  Uiso   1.00
H185   H     0.79946   0.03810   0.44356   0.00000  Uiso   1.00
H186   H     0.84787   0.04977   0.40691   0.00000  Uiso   1.00
N187   N     0.88686   0.05214   0.49320   0.00000  Uiso   1.00
H188   H     0.86353   0.02652   0.49266   0.00000  Uiso   1.00
H189   H     0.90414   0.05870   0.46056   0.00000  Uiso   1.00
N190   N     0.79240   0.26537   0.41363   0.00000  Uiso   1.00
O191   O     0.75640   0.28120   0.42272   0.00000  Uiso   1.00
O192   O     0.82560   0.28221   0.38473   0.00000  Uiso   1.00
N193   N     0.78144   0.28442   0.00643   0.00000  Uiso   1.00
H194   H     0.80567   0.30745   0.49242   0.00000  Uiso   1.00
H195   H     0.77909   0.28724   0.04103   0.00000  Uiso   1.00
N196   N     0.78699   0.10035   0.40491   0.00000  Uiso   1.00
H197   H     0.80715   0.09133   0.37395   0.00000  Uiso   1.00
H198   H     0.76525   0.11907   0.40052   0.00000  Uiso   1.00
N199   N     0.68984   0.19406   0.19491   0.00000  Uiso   1.00
O200   O     0.67979   0.19059   0.15651   0.00000  Uiso   1.00
O201   O     0.72493   0.21737   0.19890   0.00000  Uiso   1.00
Zn202  Zn    0.19338   0.47327   0.28734   0.00000  Uiso   1.00
Zn203  Zn    0.13379   0.45791   0.21876   0.00000  Uiso   1.00
Zn204  Zn    0.21056   0.53109   0.20657   0.00000  Uiso   1.00
Zn205  Zn    0.12893   0.53773   0.28734   0.00000  Uiso   1.00
O206   O     0.16667   0.50000   0.25000   0.00000  Uiso   1.00
O207   O     0.07071   0.52211   0.28213   0.00000  Uiso   1.00
O208   O     0.25491   0.48559   0.27014   0.00000  Uiso   1.00
O209   O     0.13760   0.40277   0.23413   0.00000  Uiso   1.00
O210   O     0.20345   0.58953   0.21361   0.00000  Uiso   1.00
O211   O     0.15451   0.45970   0.15459   0.00000  Uiso   1.00
O212   O     0.12940   0.53724   0.34968   0.00000  Uiso   1.00
O213   O     0.20824   0.51092   0.14606   0.00000  Uiso   1.00
O214   O     0.17451   0.49213   0.34968   0.00000  Uiso   1.00
O215   O     0.17930   0.41352   0.28214   0.00000  Uiso   1.00
O216   O     0.14632   0.59418   0.27014   0.00000  Uiso   1.00
O217   O     0.07412   0.46625   0.23413   0.00000  Uiso   1.00
O218   O     0.26693   0.52605   0.21361   0.00000  Uiso   1.00
C219   C     0.05259   0.49266   0.26069   0.00000  Uiso   1.00
C220   C     0.28092   0.50664   0.23930   0.00000  Uiso   1.00
C221   C     0.15604   0.38920   0.26023   0.00000  Uiso   1.00
C222   C     0.17657   0.61128   0.24019   0.00000  Uiso   1.00
C223   C     0.18520   0.48136   0.12920   0.00000  Uiso   1.00
C224   C     0.14833   0.51811   0.37120   0.00000  Uiso   1.00
C225   C     0.20031   0.42125   0.01608   0.00000  Uiso   1.00
C226   C     0.19190   0.47239   0.08061   0.00000  Uiso   1.00
C227   C     0.13072   0.56743   0.44034   0.00000  Uiso   1.00
C228   C     0.12752   0.57796   0.48619   0.00000  Uiso   1.00
C229   C     0.13900   0.55069   0.01133   0.00000  Uiso   1.00
C230   C     0.15127   0.51123   0.49226   0.00000  Uiso   1.00
C231   C     0.14609   0.49743   0.44857   0.00000  Uiso   1.00
C232   C     0.16828   0.48509   0.01538   0.00000  Uiso   1.00
C233   C     0.17831   0.44482   0.49519   0.00000  Uiso   1.00
C234   C     0.16389   0.42870   0.45644   0.00000  Uiso   1.00
C235   C     0.14557   0.45415   0.43489   0.00000  Uiso   1.00
C236   C     0.17598   0.49813   0.05796   0.00000  Uiso   1.00
C237   C     0.20564   0.43450   0.05944   0.00000  Uiso   1.00
C238   C     0.14054   0.52716   0.42078   0.00000  Uiso   1.00
H239   H     0.16781   0.52734   0.07606   0.00000  Uiso   1.00
H240   H     0.13757   0.56136   0.04588   0.00000  Uiso   1.00
C241   C     0.32720   0.50848   0.23328   0.00000  Uiso   1.00
C242   C     0.00767   0.49187   0.26381   0.00000  Uiso   1.00
H243   H     0.31877   0.47866   0.29313   0.00000  Uiso   1.00
C244   C     0.18048   0.65584   0.23657   0.00000  Uiso   1.00
H245   H     0.20708   0.33706   0.21148   0.00000  Uiso   1.00
C246   C     0.15167   0.34509   0.26387   0.00000  Uiso   1.00
H247   H     0.12466   0.66463   0.28901   0.00000  Uiso   1.00
N248   N     0.22434   0.40900   0.08230   0.00000  Uiso   1.00
O249   O     0.25024   0.42611   0.10674   0.00000  Uiso   1.00
O250   O     0.21493   0.36860   0.07958   0.00000  Uiso   1.00
N251   N     0.16432   0.38538   0.44082   0.00000  Uiso   1.00
H252   H     0.13280   0.37143   0.44356   0.00000  Uiso   1.00
H253   H     0.18121   0.38310   0.40691   0.00000  Uiso   1.00
N254   N     0.22019   0.38547   0.49320   0.00000  Uiso   1.00
H255   H     0.19686   0.35985   0.49266   0.00000  Uiso   1.00
H256   H     0.23747   0.39203   0.46056   0.00000  Uiso   1.00
N257   N     0.12574   0.59870   0.41363   0.00000  Uiso   1.00
O258   O     0.08974   0.61454   0.42272   0.00000  Uiso   1.00
O259   O     0.15893   0.61554   0.38473   0.00000  Uiso   1.00
N260   N     0.11478   0.61775   0.00643   0.00000  Uiso   1.00
H261   H     0.13900   0.64078   0.49242   0.00000  Uiso   1.00
H262   H     0.11242   0.62057   0.04103   0.00000  Uiso   1.00
N263   N     0.12032   0.43368   0.40491   0.00000  Uiso   1.00
H264   H     0.14048   0.42466   0.37395   0.00000  Uiso   1.00
H265   H     0.09858   0.45240   0.40052   0.00000  Uiso   1.00
N266   N     0.02317   0.52739   0.19491   0.00000  Uiso   1.00
O267   O     0.01312   0.52393   0.15651   0.00000  Uiso   1.00
O268   O     0.05827   0.55071   0.19890   0.00000  Uiso   1.00
Zn269  Zn    0.52672   0.47327   0.28734   0.00000  Uiso   1.00
Zn270  Zn    0.46713   0.45791   0.21876   0.00000  Uiso   1.00
Zn271  Zn    0.54389   0.53109   0.20657   0.00000  Uiso   1.00
Zn272  Zn    0.46226   0.53773   0.28734   0.00000  Uiso   1.00
O273   O     0.50000   0.50000   0.25000   0.00000  Uiso   1.00
O274   O     0.40405   0.52211   0.28213   0.00000  Uiso   1.00
O275   O     0.58824   0.48559   0.27014   0.00000  Uiso   1.00
O276   O     0.47093   0.40277   0.23413   0.00000  Uiso   1.00
O277   O     0.53678   0.58953   0.21361   0.00000  Uiso   1.00
O278   O     0.48784   0.45970   0.15459   0.00000  Uiso   1.00
O279   O     0.46274   0.53724   0.34968   0.00000  Uiso   1.00
O280   O     0.54157   0.51092   0.14606   0.00000  Uiso   1.00
O281   O     0.50785   0.49213   0.34968   0.00000  Uiso   1.00
O282   O     0.51264   0.41352   0.28214   0.00000  Uiso   1.00
O283   O     0.47965   0.59418   0.27014   0.00000  Uiso   1.00
O284   O     0.40745   0.46625   0.23413   0.00000  Uiso   1.00
O285   O     0.60026   0.52605   0.21361   0.00000  Uiso   1.00
C286   C     0.38593   0.49266   0.26069   0.00000  Uiso   1.00
C287   C     0.61425   0.50664   0.23930   0.00000  Uiso   1.00
C288   C     0.48938   0.38920   0.26023   0.00000  Uiso   1.00
C289   C     0.50991   0.61128   0.24019   0.00000  Uiso   1.00
C290   C     0.51853   0.48136   0.12920   0.00000  Uiso   1.00
C291   C     0.48166   0.51811   0.37120   0.00000  Uiso   1.00
C292   C     0.53365   0.42125   0.01608   0.00000  Uiso   1.00
C293   C     0.52523   0.47239   0.08061   0.00000  Uiso   1.00
C294   C     0.46406   0.56743   0.44034   0.00000  Uiso   1.00
C295   C     0.46085   0.57796   0.48619   0.00000  Uiso   1.00
C296   C     0.47233   0.55069   0.01133   0.00000  Uiso   1.00
C297   C     0.48460   0.51123   0.49226   0.00000  Uiso   1.00
C298   C     0.47943   0.49743   0.44857   0.00000  Uiso   1.00
C299   C     0.50162   0.48509   0.01538   0.00000  Uiso   1.00
C300   C     0.51165   0.44482   0.49519   0.00000  Uiso   1.00
C301   C     0.49723   0.42870   0.45644   0.00000  Uiso   1.00
C302   C     0.47891   0.45415   0.43489   0.00000  Uiso   1.00
C303   C     0.50932   0.49813   0.05796   0.00000  Uiso   1.00
C304   C     0.53897   0.43450   0.05944   0.00000  Uiso   1.00
C305   C     0.47387   0.52716   0.42078   0.00000  Uiso   1.00
H306   H     0.50115   0.52734   0.07606   0.00000  Uiso   1.00
H307   H     0.47090   0.56136   0.04588   0.00000  Uiso   1.00
C308   C     0.66054   0.50848   0.23328   0.00000  Uiso   1.00
C309   C     0.34100   0.49187   0.26381   0.00000  Uiso   1.00
H310   H     0.65211   0.47866   0.29313   0.00000  Uiso   1.00
C311   C     0.51382   0.65584   0.23657   0.00000  Uiso   1.00
H312   H     0.54041   0.33706   0.21148   0.00000  Uiso   1.00
C313   C     0.48500   0.34509   0.26387   0.00000  Uiso   1.00
H314   H     0.45799   0.66463   0.28901   0.00000  Uiso   1.00
N315   N     0.55767   0.40900   0.08230   0.00000  Uiso   1.00
O316   O     0.58358   0.42611   0.10674   0.00000  Uiso   1.00
O317   O     0.54827   0.36860   0.07958   0.00000  Uiso   1.00
N318   N     0.49766   0.38538   0.44082   0.00000  Uiso   1.00
H319   H     0.46613   0.37143   0.44356   0.00000  Uiso   1.00
H320   H     0.51454   0.38310   0.40691   0.00000  Uiso   1.00
N321   N     0.55352   0.38547   0.49320   0.00000  Uiso   1.00
H322   H     0.53020   0.35985   0.49266   0.00000  Uiso   1.00
H323   H     0.57081   0.39203   0.46056   0.00000  Uiso   1.00
N324   N     0.45907   0.59870   0.41363   0.00000  Uiso   1.00
O325   O     0.42307   0.61454   0.42272   0.00000  Uiso   1.00
O326   O     0.49227   0.61554   0.38473   0.00000  Uiso   1.00
N327   N     0.44811   0.61775   0.00643   0.00000  Uiso   1.00
H328   H     0.47234   0.64078   0.49242   0.00000  Uiso   1.00
H329   H     0.44575   0.62057   0.04103   0.00000  Uiso   1.00
N330   N     0.45365   0.43368   0.40491   0.00000  Uiso   1.00
H331   H     0.47382   0.42466   0.37395   0.00000  Uiso   1.00
H332   H     0.43192   0.45240   0.40052   0.00000  Uiso   1.00
N333   N     0.35650   0.52739   0.19491   0.00000  Uiso   1.00
O334   O     0.34646   0.52393   0.15651   0.00000  Uiso   1.00
O335   O     0.39160   0.55071   0.19890   0.00000  Uiso   1.00
Zn336  Zn    0.86005   0.47327   0.28734   0.00000  Uiso   1.00
Zn337  Zn    0.80046   0.45791   0.21876   0.00000  Uiso   1.00
Zn338  Zn    0.87723   0.53109   0.20657   0.00000  Uiso   1.00
Zn339  Zn    0.79560   0.53773   0.28734   0.00000  Uiso   1.00
O340   O     0.83333   0.50000   0.25000   0.00000  Uiso   1.00
O341   O     0.73738   0.52211   0.28213   0.00000  Uiso   1.00
O342   O     0.92158   0.48559   0.27014   0.00000  Uiso   1.00
O343   O     0.80426   0.40277   0.23413   0.00000  Uiso   1.00
O344   O     0.87012   0.58953   0.21361   0.00000  Uiso   1.00
O345   O     0.82118   0.45970   0.15459   0.00000  Uiso   1.00
O346   O     0.79607   0.53724   0.34968   0.00000  Uiso   1.00
O347   O     0.87491   0.51092   0.14606   0.00000  Uiso   1.00
O348   O     0.84118   0.49213   0.34968   0.00000  Uiso   1.00
O349   O     0.84597   0.41352   0.28214   0.00000  Uiso   1.00
O350   O     0.81298   0.59418   0.27014   0.00000  Uiso   1.00
O351   O     0.74078   0.46625   0.23413   0.00000  Uiso   1.00
O352   O     0.93360   0.52605   0.21361   0.00000  Uiso   1.00
C353   C     0.71926   0.49266   0.26069   0.00000  Uiso   1.00
C354   C     0.94758   0.50664   0.23930   0.00000  Uiso   1.00
C355   C     0.82271   0.38920   0.26023   0.00000  Uiso   1.00
C356   C     0.84324   0.61128   0.24019   0.00000  Uiso   1.00
C357   C     0.85186   0.48136   0.12920   0.00000  Uiso   1.00
C358   C     0.81499   0.51811   0.37120   0.00000  Uiso   1.00
C359   C     0.86698   0.42125   0.01608   0.00000  Uiso   1.00
C360   C     0.85856   0.47239   0.08061   0.00000  Uiso   1.00
C361   C     0.79739   0.56743   0.44034   0.00000  Uiso   1.00
C362   C     0.79419   0.57796   0.48619   0.00000  Uiso   1.00
C363   C     0.80567   0.55069   0.01133   0.00000  Uiso   1.00
C364   C     0.81794   0.51123   0.49226   0.00000  Uiso   1.00
C365   C     0.81276   0.49743   0.44857   0.00000  Uiso   1.00
C366   C     0.83495   0.48509   0.01538   0.00000  Uiso   1.00
C367   C     0.84498   0.44482   0.49519   0.00000  Uiso   1.00
C368   C     0.83056   0.42870   0.45644   0.00000  Uiso   1.00
C369   C     0.81224   0.45415   0.43489   0.00000  Uiso   1.00
C370   C     0.84265   0.49813   0.05796   0.00000  Uiso   1.00
C371   C     0.87230   0.43450   0.05944   0.00000  Uiso   1.00
C372   C     0.80720   0.52716   0.42078   0.00000  Uiso   1.00
H373   H     0.83448   0.52734   0.07606   0.00000  Uiso   1.00
H374   H     0.80424   0.56136   0.04588   0.00000  Uiso   1.00
C375   C     0.99387   0.50848   0.23328   0.00000  Uiso   1.00
C376   C     0.67433   0.49187   0.26381   0.00000  Uiso   1.00
H377   H     0.98544   0.47866   0.29313   0.00000  Uiso   1.00
C378   C     0.84715   0.65584   0.23657   0.00000  Uiso   1.00
H379   H     0.87375   0.33706   0.21148   0.00000  Uiso   1.00
C380   C     0.81834   0.34509   0.26387   0.00000  Uiso   1.00
H381   H     0.79133   0.66463   0.28901   0.00000  Uiso   1.00
N382   N     0.89101   0.40900   0.08230   0.00000  Uiso   1.00
O383   O     0.91691   0.42611   0.10674   0.00000  Uiso   1.00
O384   O     0.88160   0.36860   0.07958   0.00000  Uiso   1.00
N385   N     0.83099   0.38538   0.44082   0.00000  Uiso   1.00
H386   H     0.79946   0.37143   0.44356   0.00000  Uiso   1.00
H387   H     0.84787   0.38310   0.40691   0.00000  Uiso   1.00
N388   N     0.88686   0.38547   0.49320   0.00000  Uiso   1.00
H389   H     0.86353   0.35985   0.49266   0.00000  Uiso   1.00
H390   H     0.90414   0.39203   0.46056   0.00000  Uiso   1.00
N391   N     0.79240   0.59870   0.41363   0.00000  Uiso   1.00
O392   O     0.75640   0.61454   0.42272   0.00000  Uiso   1.00
O393   O     0.82560   0.61554   0.38473   0.00000  Uiso   1.00
N394   N     0.78144   0.61775   0.00643   0.00000  Uiso   1.00
H395   H     0.80567   0.64078   0.49242   0.00000  Uiso   1.00
H396   H     0.77909   0.62057   0.04103   0.00000  Uiso   1.00
N397   N     0.78699   0.43368   0.40491   0.00000  Uiso   1.00
H398   H     0.80715   0.42466   0.37395   0.00000  Uiso   1.00
H399   H     0.76525   0.45240   0.40052   0.00000  Uiso   1.00
N400   N     0.68984   0.52739   0.19491   0.00000  Uiso   1.00
O401   O     0.67979   0.52393   0.15651   0.00000  Uiso   1.00
O402   O     0.72493   0.55071   0.19890   0.00000  Uiso   1.00
Zn403  Zn    0.19338   0.80661   0.28734   0.00000  Uiso   1.00
Zn404  Zn    0.13379   0.79124   0.21876   0.00000  Uiso   1.00
Zn405  Zn    0.21056   0.86442   0.20657   0.00000  Uiso   1.00
Zn406  Zn    0.12893   0.87106   0.28734   0.00000  Uiso   1.00
O407   O     0.16667   0.83333   0.25000   0.00000  Uiso   1.00
O408   O     0.07071   0.85544   0.28213   0.00000  Uiso   1.00
O409   O     0.25491   0.81892   0.27014   0.00000  Uiso   1.00
O410   O     0.13760   0.73610   0.23413   0.00000  Uiso   1.00
O411   O     0.20345   0.92286   0.21361   0.00000  Uiso   1.00
O412   O     0.15451   0.79304   0.15459   0.00000  Uiso   1.00
O413   O     0.12940   0.87058   0.34968   0.00000  Uiso   1.00
O414   O     0.20824   0.84425   0.14606   0.00000  Uiso   1.00
O415   O     0.17451   0.82546   0.34968   0.00000  Uiso   1.00
O416   O     0.17930   0.74686   0.28214   0.00000  Uiso   1.00
O417   O     0.14632   0.92751   0.27014   0.00000  Uiso   1.00
O418   O     0.07412   0.79958   0.23413   0.00000  Uiso   1.00
O419   O     0.26693   0.85939   0.21361   0.00000  Uiso   1.00
C420   C     0.05259   0.82599   0.26069   0.00000  Uiso   1.00
C421   C     0.28092   0.83998   0.23930   0.00000  Uiso   1.00
C422   C     0.15604   0.72253   0.26023   0.00000  Uiso   1.00
C423   C     0.17657   0.94461   0.24019   0.00000  Uiso   1.00
C424   C     0.18520   0.81469   0.12920   0.00000  Uiso   1.00
C425   C     0.14833   0.85144   0.37120   0.00000  Uiso   1.00
C426   C     0.20031   0.75458   0.01608   0.00000  Uiso   1.00
C427   C     0.19190   0.80572   0.08061   0.00000  Uiso   1.00
C428   C     0.13072   0.90076   0.44034   0.00000  Uiso   1.00
C429   C     0.12752   0.91129   0.48619   0.00000  Uiso   1.00
C430   C     0.13900   0.88402   0.01133   0.00000  Uiso   1.00
C431   C     0.15127   0.84457   0.49226   0.00000  Uiso   1.00
C432   C     0.14609   0.83077   0.44857   0.00000  Uiso   1.00
C433   C     0.16828   0.81842   0.01538   0.00000  Uiso   1.00
C434   C     0.17831   0.77815   0.49519   0.00000  Uiso   1.00
C435   C     0.16389   0.76203   0.45644   0.00000  Uiso   1.00
C436   C     0.14557   0.78748   0.43489   0.00000  Uiso   1.00
C437   C     0.17598   0.83146   0.05796   0.00000  Uiso   1.00
C438   C     0.20564   0.76783   0.05944   0.00000  Uiso   1.00
C439   C     0.14054   0.86049   0.42078   0.00000  Uiso   1.00
H440   H     0.16781   0.86067   0.07606   0.00000  Uiso   1.00
H441   H     0.13757   0.89469   0.04588   0.00000  Uiso   1.00
C442   C     0.32720   0.84182   0.23328   0.00000  Uiso   1.00
C443   C     0.00767   0.82520   0.26381   0.00000  Uiso   1.00
H444   H     0.31877   0.81199   0.29313   0.00000  Uiso   1.00
C445   C     0.18048   0.98917   0.23657   0.00000  Uiso   1.00
H446   H     0.20708   0.67040   0.21148   0.00000  Uiso   1.00
C447   C     0.15167   0.67842   0.26387   0.00000  Uiso   1.00
H448   H     0.12466   0.99797   0.28901   0.00000  Uiso   1.00
N449   N     0.22434   0.74233   0.08230   0.00000  Uiso   1.00
O450   O     0.25024   0.75944   0.10674   0.00000  Uiso   1.00
O451   O     0.21493   0.70194   0.07958   0.00000  Uiso   1.00
N452   N     0.16432   0.71871   0.44082   0.00000  Uiso   1.00
H453   H     0.13280   0.70476   0.44356   0.00000  Uiso   1.00
H454   H     0.18121   0.71643   0.40691   0.00000  Uiso   1.00
N455   N     0.22019   0.71880   0.49320   0.00000  Uiso   1.00
H456   H     0.19686   0.69318   0.49266   0.00000  Uiso   1.00
H457   H     0.23747   0.72537   0.46056   0.00000  Uiso   1.00
N458   N     0.12574   0.93203   0.41363   0.00000  Uiso   1.00
O459   O     0.08974   0.94787   0.42272   0.00000  Uiso   1.00
O460   O     0.15893   0.94888   0.38473   0.00000  Uiso   1.00
N461   N     0.11478   0.95108   0.00643   0.00000  Uiso   1.00
H462   H     0.13900   0.97412   0.49242   0.00000  Uiso   1.00
H463   H     0.11242   0.95390   0.04103   0.00000  Uiso   1.00
N464   N     0.12032   0.76701   0.40491   0.00000  Uiso   1.00
H465   H     0.14048   0.75800   0.37395   0.00000  Uiso   1.00
H466   H     0.09858   0.78573   0.40052   0.00000  Uiso   1.00
N467   N     0.02317   0.86072   0.19491   0.00000  Uiso   1.00
O468   O     0.01312   0.85726   0.15651   0.00000  Uiso   1.00
O469   O     0.05827   0.88404   0.19890   0.00000  Uiso   1.00
Zn470  Zn    0.52672   0.80661   0.28734   0.00000  Uiso   1.00
Zn471  Zn    0.46713   0.79124   0.21876   0.00000  Uiso   1.00
Zn472  Zn    0.54389   0.86442   0.20657   0.00000  Uiso   1.00
Zn473  Zn    0.46226   0.87106   0.28734   0.00000  Uiso   1.00
O474   O     0.50000   0.83333   0.25000   0.00000  Uiso   1.00
O475   O     0.40405   0.85544   0.28213   0.00000  Uiso   1.00
O476   O     0.58824   0.81892   0.27014   0.00000  Uiso   1.00
O477   O     0.47093   0.73610   0.23413   0.00000  Uiso   1.00
O478   O     0.53678   0.92286   0.21361   0.00000  Uiso   1.00
O479   O     0.48784   0.79304   0.15459   0.00000  Uiso   1.00
O480   O     0.46274   0.87058   0.34968   0.00000  Uiso   1.00
O481   O     0.54157   0.84425   0.14606   0.00000  Uiso   1.00
O482   O     0.50785   0.82546   0.34968   0.00000  Uiso   1.00
O483   O     0.51264   0.74686   0.28214   0.00000  Uiso   1.00
O484   O     0.47965   0.92751   0.27014   0.00000  Uiso   1.00
O485   O     0.40745   0.79958   0.23413   0.00000  Uiso   1.00
O486   O     0.60026   0.85939   0.21361   0.00000  Uiso   1.00
C487   C     0.38593   0.82599   0.26069   0.00000  Uiso   1.00
C488   C     0.61425   0.83998   0.23930   0.00000  Uiso   1.00
C489   C     0.48938   0.72253   0.26023   0.00000  Uiso   1.00
C490   C     0.50991   0.94461   0.24019   0.00000  Uiso   1.00
C491   C     0.51853   0.81469   0.12920   0.00000  Uiso   1.00
C492   C     0.48166   0.85144   0.37120   0.00000  Uiso   1.00
C493   C     0.53365   0.75458   0.01608   0.00000  Uiso   1.00
C494   C     0.52523   0.80572   0.08061   0.00000  Uiso   1.00
C495   C     0.46406   0.90076   0.44034   0.00000  Uiso   1.00
C496   C     0.46085   0.91129   0.48619   0.00000  Uiso   1.00
C497   C     0.47233   0.88402   0.01133   0.00000  Uiso   1.00
C498   C     0.48460   0.84457   0.49226   0.00000  Uiso   1.00
C499   C     0.47943   0.83077   0.44857   0.00000  Uiso   1.00
C500   C     0.50162   0.81842   0.01538   0.00000  Uiso   1.00
C501   C     0.51165   0.77815   0.49519   0.00000  Uiso   1.00
C502   C     0.49723   0.76203   0.45644   0.00000  Uiso   1.00
C503   C     0.47891   0.78748   0.43489   0.00000  Uiso   1.00
C504   C     0.50932   0.83146   0.05796   0.00000  Uiso   1.00
C505   C     0.53897   0.76783   0.05944   0.00000  Uiso   1.00
C506   C     0.47387   0.86049   0.42078   0.00000  Uiso   1.00
H507   H     0.50115   0.86067   0.07606   0.00000  Uiso   1.00
H508   H     0.47090   0.89469   0.04588   0.00000  Uiso   1.00
C509   C     0.66054   0.84182   0.23328   0.00000  Uiso   1.00
C510   C     0.34100   0.82520   0.26381   0.00000  Uiso   1.00
H511   H     0.65211   0.81199   0.29313   0.00000  Uiso   1.00
C512   C     0.51382   0.98917   0.23657   0.00000  Uiso   1.00
H513   H     0.54041   0.67040   0.21148   0.00000  Uiso   1.00
C514   C     0.48500   0.67842   0.26387   0.00000  Uiso   1.00
H515   H     0.45799   0.99797   0.28901   0.00000  Uiso   1.00
N516   N     0.55767   0.74233   0.08230   0.00000  Uiso   1.00
O517   O     0.58358   0.75944   0.10674   0.00000  Uiso   1.00
O518   O     0.54827   0.70194   0.07958   0.00000  Uiso   1.00
N519   N     0.49766   0.71871   0.44082   0.00000  Uiso   1.00
H520   H     0.46613   0.70476   0.44356   0.00000  Uiso   1.00
H521   H     0.51454   0.71643   0.40691   0.00000  Uiso   1.00
N522   N     0.55352   0.71880   0.49320   0.00000  Uiso   1.00
H523   H     0.53020   0.69318   0.49266   0.00000  Uiso   1.00
H524   H     0.57081   0.72537   0.46056   0.00000  Uiso   1.00
N525   N     0.45907   0.93203   0.41363   0.00000  Uiso   1.00
O526   O     0.42307   0.94787   0.42272   0.00000  Uiso   1.00
O527   O     0.49227   0.94888   0.38473   0.00000  Uiso   1.00
N528   N     0.44811   0.95108   0.00643   0.00000  Uiso   1.00
H529   H     0.47234   0.97412   0.49242   0.00000  Uiso   1.00
H530   H     0.44575   0.95390   0.04103   0.00000  Uiso   1.00
N531   N     0.45365   0.76701   0.40491   0.00000  Uiso   1.00
H532   H     0.47382   0.75800   0.37395   0.00000  Uiso   1.00
H533   H     0.43192   0.78573   0.40052   0.00000  Uiso   1.00
N534   N     0.35650   0.86072   0.19491   0.00000  Uiso   1.00
O535   O     0.34646   0.85726   0.15651   0.00000  Uiso   1.00
O536   O     0.39160   0.88404   0.19890   0.00000  Uiso   1.00
Zn537  Zn    0.86005   0.80661   0.28734   0.00000  Uiso   1.00
Zn538  Zn    0.80046   0.79124   0.21876   0.00000  Uiso   1.00
Zn539  Zn    0.87723   0.86442   0.20657   0.00000  Uiso   1.00
Zn540  Zn    0.79560   0.87106   0.28734   0.00000  Uiso   1.00
O541   O     0.83333   0.83333   0.25000   0.00000  Uiso   1.00
O542   O     0.73738   0.85544   0.28213   0.00000  Uiso   1.00
O543   O     0.92158   0.81892   0.27014   0.00000  Uiso   1.00
O544   O     0.80426   0.73610   0.23413   0.00000  Uiso   1.00
O545   O     0.87012   0.92286   0.21361   0.00000  Uiso   1.00
O546   O     0.82118   0.79304   0.15459   0.00000  Uiso   1.00
O547   O     0.79607   0.87058   0.34968   0.00000  Uiso   1.00
O548   O     0.87491   0.84425   0.14606   0.00000  Uiso   1.00
O549   O     0.84118   0.82546   0.34968   0.00000  Uiso   1.00
O550   O     0.84597   0.74686   0.28214   0.00000  Uiso   1.00
O551   O     0.81298   0.92751   0.27014   0.00000  Uiso   1.00
O552   O     0.74078   0.79958   0.23413   0.00000  Uiso   1.00
O553   O     0.93360   0.85939   0.21361   0.00000  Uiso   1.00
C554   C     0.71926   0.82599   0.26069   0.00000  Uiso   1.00
C555   C     0.94758   0.83998   0.23930   0.00000  Uiso   1.00
C556   C     0.82271   0.72253   0.26023   0.00000  Uiso   1.00
C557   C     0.84324   0.94461   0.24019   0.00000  Uiso   1.00
C558   C     0.85186   0.81469   0.12920   0.00000  Uiso   1.00
C559   C     0.81499   0.85144   0.37120   0.00000  Uiso   1.00
C560   C     0.86698   0.75458   0.01608   0.00000  Uiso   1.00
C561   C     0.85856   0.80572   0.08061   0.00000  Uiso   1.00
C562   C     0.79739   0.90076   0.44034   0.00000  Uiso   1.00
C563   C     0.79419   0.91129   0.48619   0.00000  Uiso   1.00
C564   C     0.80567   0.88402   0.01133   0.00000  Uiso   1.00
C565   C     0.81794   0.84457   0.49226   0.00000  Uiso   1.00
C566   C     0.81276   0.83077   0.44857   0.00000  Uiso   1.00
C567   C     0.83495   0.81842   0.01538   0.00000  Uiso   1.00
C568   C     0.84498   0.77815   0.49519   0.00000  Uiso   1.00
C569   C     0.83056   0.76203   0.45644   0.00000  Uiso   1.00
C570   C     0.81224   0.78748   0.43489   0.00000  Uiso   1.00
C571   C     0.84265   0.83146   0.05796   0.00000  Uiso   1.00
C572   C     0.87230   0.76783   0.05944   0.00000  Uiso   1.00
C573   C     0.80720   0.86049   0.42078   0.00000  Uiso   1.00
H574   H     0.83448   0.86067   0.07606   0.00000  Uiso   1.00
H575   H     0.80424   0.89469   0.04588   0.00000  Uiso   1.00
C576   C     0.99387   0.84182   0.23328   0.00000  Uiso   1.00
C577   C     0.67433   0.82520   0.26381   0.00000  Uiso   1.00
H578   H     0.98544   0.81199   0.29313   0.00000  Uiso   1.00
C579   C     0.84715   0.98917   0.23657   0.00000  Uiso   1.00
H580   H     0.87375   0.67040   0.21148   0.00000  Uiso   1.00
C581   C     0.81834   0.67842   0.26387   0.00000  Uiso   1.00
H582   H     0.79133   0.99797   0.28901   0.00000  Uiso   1.00
N583   N     0.89101   0.74233   0.08230   0.00000  Uiso   1.00
O584   O     0.91691   0.75944   0.10674   0.00000  Uiso   1.00
O585   O     0.88160   0.70194   0.07958   0.00000  Uiso   1.00
N586   N     0.83099   0.71871   0.44082   0.00000  Uiso   1.00
H587   H     0.79946   0.70476   0.44356   0.00000  Uiso   1.00
H588   H     0.84787   0.71643   0.40691   0.00000  Uiso   1.00
N589   N     0.88686   0.71880   0.49320   0.00000  Uiso   1.00
H590   H     0.86353   0.69318   0.49266   0.00000  Uiso   1.00
H591   H     0.90414   0.72537   0.46056   0.00000  Uiso   1.00
N592   N     0.79240   0.93203   0.41363   0.00000  Uiso   1.00
O593   O     0.75640   0.94787   0.42272   0.00000  Uiso   1.00
O594   O     0.82560   0.94888   0.38473   0.00000  Uiso   1.00
N595   N     0.78144   0.95108   0.00643   0.00000  Uiso   1.00
H596   H     0.80567   0.97412   0.49242   0.00000  Uiso   1.00
H597   H     0.77909   0.95390   0.04103   0.00000  Uiso   1.00
N598   N     0.78699   0.76701   0.40491   0.00000  Uiso   1.00
H599   H     0.80715   0.75800   0.37395   0.00000  Uiso   1.00
H600   H     0.76525   0.78573   0.40052   0.00000  Uiso   1.00
N601   N     0.68984   0.86072   0.19491   0.00000  Uiso   1.00
O602   O     0.67979   0.85726   0.15651   0.00000  Uiso   1.00
O603   O     0.72493   0.88404   0.19890   0.00000  Uiso   1.00
Zn604  Zn    0.19338   0.13994   0.78734   0.00000  Uiso   1.00
Zn605  Zn    0.13379   0.12458   0.71876   0.00000  Uiso   1.00
Zn606  Zn    0.21056   0.19775   0.70657   0.00000  Uiso   1.00
Zn607  Zn    0.12893   0.20439   0.78734   0.00000  Uiso   1.00
O608   O     0.16667   0.16667   0.75000   0.00000  Uiso   1.00
O609   O     0.07071   0.18878   0.78213   0.00000  Uiso   1.00
O610   O     0.25491   0.15226   0.77014   0.00000  Uiso   1.00
O611   O     0.13760   0.06944   0.73413   0.00000  Uiso   1.00
O612   O     0.20345   0.25620   0.71361   0.00000  Uiso   1.00
O613   O     0.15451   0.12637   0.65459   0.00000  Uiso   1.00
O614   O     0.12940   0.20391   0.84968   0.00000  Uiso   1.00
O615   O     0.20824   0.17759   0.64606   0.00000  Uiso   1.00
O616   O     0.17451   0.15880   0.84968   0.00000  Uiso   1.00
O617   O     0.17930   0.08019   0.78214   0.00000  Uiso   1.00
O618   O     0.14632   0.26085   0.77014   0.00000  Uiso   1.00
O619   O     0.07412   0.13291   0.73413   0.00000  Uiso   1.00
O620   O     0.26693   0.19272   0.71361   0.00000  Uiso   1.00
C621   C     0.05259   0.15933   0.76069   0.00000  Uiso   1.00
C622   C     0.28092   0.17331   0.73930   0.00000  Uiso   1.00
C623   C     0.15604   0.05587   0.76023   0.00000  Uiso   1.00
C624   C     0.17657   0.27795   0.74019   0.00000  Uiso   1.00
C625   C     0.18520   0.14802   0.62920   0.00000  Uiso   1.00
C626   C     0.14833   0.18478   0.87120   0.00000  Uiso   1.00
C627   C     0.20031   0.08792   0.51608   0.00000  Uiso   1.00
C628   C     0.19190   0.13906   0.58061   0.00000  Uiso   1.00
C629   C     0.13072   0.23410   0.94034   0.00000  Uiso   1.00
C630   C     0.12752   0.24463   0.98619   0.00000  Uiso   1.00
C631   C     0.13900   0.21735   0.51133   0.00000  Uiso   1.00
C632   C     0.15127   0.17790   0.99226   0.00000  Uiso   1.00
C633   C     0.14609   0.16410   0.94857   0.00000  Uiso   1.00
C634   C     0.16828   0.15176   0.51538   0.00000  Uiso   1.00
C635   C     0.17831   0.11149   0.99519   0.00000  Uiso   1.00
C636   C     0.16389   0.09536   0.95644   0.00000  Uiso   1.00
C637   C     0.14557   0.12081   0.93489   0.00000  Uiso   1.00
C638   C     0.17598   0.16480   0.55796   0.00000  Uiso   1.00
C639   C     0.20564   0.10116   0.55944   0.00000  Uiso   1.00
C640   C     0.14054   0.19382   0.92078   0.00000  Uiso   1.00
H641   H     0.16781   0.19401   0.57606   0.00000  Uiso   1.00
H642   H     0.13757   0.22803   0.54588   0.00000  Uiso   1.00
C643   C     0.32720   0.17515   0.73328   0.00000  Uiso   1.00
C644   C     0.00767   0.15854   0.76381   0.00000  Uiso   1.00
H645   H     0.31877   0.14533   0.79313   0.00000  Uiso   1.00
C646   C     0.18048   0.32250   0.73657   0.00000  Uiso   1.00
H647   H     0.20708   0.00373   0.71148   0.00000  Uiso   1.00
C648   C     0.15167   0.01175   0.76387   0.00000  Uiso   1.00
H649   H     0.12466   0.33130   0.78901   0.00000  Uiso   1.00
N650   N     0.22434   0.07566   0.58230   0.00000  Uiso   1.00
O651   O     0.25024   0.09277   0.60674   0.00000  Uiso   1.00
O652   O     0.21493   0.03527   0.57958   0.00000  Uiso   1.00
N653   N     0.16432   0.05204   0.94082   0.00000  Uiso   1.00
H654   H     0.13280   0.03810   0.94356   0.00000  Uiso   1.00
H655   H     0.18121   0.04977   0.90691   0.00000  Uiso   1.00
N656   N     0.22019   0.05214   0.99320   0.00000  Uiso   1.00
H657   H     0.19686   0.02652   0.99266   0.00000  Uiso   1.00
H658   H     0.23747   0.05870   0.96056   0.00000  Uiso   1.00
N659   N     0.12574   0.26537   0.91363   0.00000  Uiso   1.00
O660   O     0.08974   0.28120   0.92272   0.00000  Uiso   1.00
O661   O     0.15893   0.28221   0.88473   0.00000  Uiso   1.00
N662   N     0.11478   0.28442   0.50643   0.00000  Uiso   1.00
H663   H     0.13900   0.30745   0.99242   0.00000  Uiso   1.00
H664   H     0.11242   0.28724   0.54103   0.00000  Uiso   1.00
N665   N     0.12032   0.10035   0.90491   0.00000  Uiso   1.00
H666   H     0.14048   0.09133   0.87395   0.00000  Uiso   1.00
H667   H     0.09858   0.11907   0.90052   0.00000  Uiso   1.00
N668   N     0.02317   0.19406   0.69491   0.00000  Uiso   1.00
O669   O     0.01312   0.19059   0.65651   0.00000  Uiso   1.00
O670   O     0.05827   0.21737   0.69890   0.00000  Uiso   1.00
Zn671  Zn    0.52672   0.13994   0.78734   0.00000  Uiso   1.00
Zn672  Zn    0.46713   0.12458   0.71876   0.00000  Uiso   1.00
Zn673  Zn    0.54389   0.19775   0.70657   0.00000  Uiso   1.00
Zn674  Zn    0.46226   0.20439   0.78734   0.00000  Uiso   1.00
O675   O     0.50000   0.16667   0.75000   0.00000  Uiso   1.00
O676   O     0.40405   0.18878   0.78213   0.00000  Uiso   1.00
O677   O     0.58824   0.15226   0.77014   0.00000  Uiso   1.00
O678   O     0.47093   0.06944   0.73413   0.00000  Uiso   1.00
O679   O     0.53678   0.25620   0.71361   0.00000  Uiso   1.00
O680   O     0.48784   0.12637   0.65459   0.00000  Uiso   1.00
O681   O     0.46274   0.20391   0.84968   0.00000  Uiso   1.00
O682   O     0.54157   0.17759   0.64606   0.00000  Uiso   1.00
O683   O     0.50785   0.15880   0.84968   0.00000  Uiso   1.00
O684   O     0.51264   0.08019   0.78214   0.00000  Uiso   1.00
O685   O     0.47965   0.26085   0.77014   0.00000  Uiso   1.00
O686   O     0.40745   0.13291   0.73413   0.00000  Uiso   1.00
O687   O     0.60026   0.19272   0.71361   0.00000  Uiso   1.00
C688   C     0.38593   0.15933   0.76069   0.00000  Uiso   1.00
C689   C     0.61425   0.17331   0.73930   0.00000  Uiso   1.00
C690   C     0.48938   0.05587   0.76023   0.00000  Uiso   1.00
C691   C     0.50991   0.27795   0.74019   0.00000  Uiso   1.00
C692   C     0.51853   0.14802   0.62920   0.00000  Uiso   1.00
C693   C     0.48166   0.18478   0.87120   0.00000  Uiso   1.00
C694   C     0.53365   0.08792   0.51608   0.00000  Uiso   1.00
C695   C     0.52523   0.13906   0.58061   0.00000  Uiso   1.00
C696   C     0.46406   0.23410   0.94034   0.00000  Uiso   1.00
C697   C     0.46085   0.24463   0.98619   0.00000  Uiso   1.00
C698   C     0.47233   0.21735   0.51133   0.00000  Uiso   1.00
C699   C     0.48460   0.17790   0.99226   0.00000  Uiso   1.00
C700   C     0.47943   0.16410   0.94857   0.00000  Uiso   1.00
C701   C     0.50162   0.15176   0.51538   0.00000  Uiso   1.00
C702   C     0.51165   0.11149   0.99519   0.00000  Uiso   1.00
C703   C     0.49723   0.09536   0.95644   0.00000  Uiso   1.00
C704   C     0.47891   0.12081   0.93489   0.00000  Uiso   1.00
C705   C     0.50932   0.16480   0.55796   0.00000  Uiso   1.00
C706   C     0.53897   0.10116   0.55944   0.00000  Uiso   1.00
C707   C     0.47387   0.19382   0.92078   0.00000  Uiso   1.00
H708   H     0.50115   0.19401   0.57606   0.00000  Uiso   1.00
H709   H     0.47090   0.22803   0.54588   0.00000  Uiso   1.00
C710   C     0.66054   0.17515   0.73328   0.00000  Uiso   1.00
C711   C     0.34100   0.15854   0.76381   0.00000  Uiso   1.00
H712   H     0.65211   0.14533   0.79313   0.00000  Uiso   1.00
C713   C     0.51382   0.32250   0.73657   0.00000  Uiso   1.00
H714   H     0.54041   0.00373   0.71148   0.00000  Uiso   1.00
C715   C     0.48500   0.01175   0.76387   0.00000  Uiso   1.00
H716   H     0.45799   0.33130   0.78901   0.00000  Uiso   1.00
N717   N     0.55767   0.07566   0.58230   0.00000  Uiso   1.00
O718   O     0.58358   0.09277   0.60674   0.00000  Uiso   1.00
O719   O     0.54827   0.03527   0.57958   0.00000  Uiso   1.00
N720   N     0.49766   0.05204   0.94082   0.00000  Uiso   1.00
H721   H     0.46613   0.03810   0.94356   0.00000  Uiso   1.00
H722   H     0.51454   0.04977   0.90691   0.00000  Uiso   1.00
N723   N     0.55352   0.05214   0.99320   0.00000  Uiso   1.00
H724   H     0.53020   0.02652   0.99266   0.00000  Uiso   1.00
H725   H     0.57081   0.05870   0.96056   0.00000  Uiso   1.00
N726   N     0.45907   0.26537   0.91363   0.00000  Uiso   1.00
O727   O     0.42307   0.28120   0.92272   0.00000  Uiso   1.00
O728   O     0.49227   0.28221   0.88473   0.00000  Uiso   1.00
N729   N     0.44811   0.28442   0.50643   0.00000  Uiso   1.00
H730   H     0.47234   0.30745   0.99242   0.00000  Uiso   1.00
H731   H     0.44575   0.28724   0.54103   0.00000  Uiso   1.00
N732   N     0.45365   0.10035   0.90491   0.00000  Uiso   1.00
H733   H     0.47382   0.09133   0.87395   0.00000  Uiso   1.00
H734   H     0.43192   0.11907   0.90052   0.00000  Uiso   1.00
N735   N     0.35650   0.19406   0.69491   0.00000  Uiso   1.00
O736   O     0.34646   0.19059   0.65651   0.00000  Uiso   1.00
O737   O     0.39160   0.21737   0.69890   0.00000  Uiso   1.00
Zn738  Zn    0.86005   0.13994   0.78734   0.00000  Uiso   1.00
Zn739  Zn    0.80046   0.12458   0.71876   0.00000  Uiso   1.00
Zn740  Zn    0.87723   0.19775   0.70657   0.00000  Uiso   1.00
Zn741  Zn    0.79560   0.20439   0.78734   0.00000  Uiso   1.00
O742   O     0.83333   0.16667   0.75000   0.00000  Uiso   1.00
O743   O     0.73738   0.18878   0.78213   0.00000  Uiso   1.00
O744   O     0.92158   0.15226   0.77014   0.00000  Uiso   1.00
O745   O     0.80426   0.06944   0.73413   0.00000  Uiso   1.00
O746   O     0.87012   0.25620   0.71361   0.00000  Uiso   1.00
O747   O     0.82118   0.12637   0.65459   0.00000  Uiso   1.00
O748   O     0.79607   0.20391   0.84968   0.00000  Uiso   1.00
O749   O     0.87491   0.17759   0.64606   0.00000  Uiso   1.00
O750   O     0.84118   0.15880   0.84968   0.00000  Uiso   1.00
O751   O     0.84597   0.08019   0.78214   0.00000  Uiso   1.00
O752   O     0.81298   0.26085   0.77014   0.00000  Uiso   1.00
O753   O     0.74078   0.13291   0.73413   0.00000  Uiso   1.00
O754   O     0.93360   0.19272   0.71361   0.00000  Uiso   1.00
C755   C     0.71926   0.15933   0.76069   0.00000  Uiso   1.00
C756   C     0.94758   0.17331   0.73930   0.00000  Uiso   1.00
C757   C     0.82271   0.05587   0.76023   0.00000  Uiso   1.00
C758   C     0.84324   0.27795   0.74019   0.00000  Uiso   1.00
C759   C     0.85186   0.14802   0.62920   0.00000  Uiso   1.00
C760   C     0.81499   0.18478   0.87120   0.00000  Uiso   1.00
C761   C     0.86698   0.08792   0.51608   0.00000  Uiso   1.00
C762   C     0.85856   0.13906   0.58061   0.00000  Uiso   1.00
C763   C     0.79739   0.23410   0.94034   0.00000  Uiso   1.00
C764   C     0.79419   0.24463   0.98619   0.00000  Uiso   1.00
C765   C     0.80567   0.21735   0.51133   0.00000  Uiso   1.00
C766   C     0.81794   0.17790   0.99226   0.00000  Uiso   1.00
C767   C     0.81276   0.16410   0.94857   0.00000  Uiso   1.00
C768   C     0.83495   0.15176   0.51538   0.00000  Uiso   1.00
C769   C     0.84498   0.11149   0.99519   0.00000  Uiso   1.00
C770   C     0.83056   0.09536   0.95644   0.00000  Uiso   1.00
C771   C     0.81224   0.12081   0.93489   0.00000  Uiso   1.00
C772   C     0.84265   0.16480   0.55796   0.00000  Uiso   1.00
C773   C     0.87230   0.10116   0.55944   0.00000  Uiso   1.00
C774   C     0.80720   0.19382   0.92078   0.00000  Uiso   1.00
H775   H     0.83448   0.19401   0.57606   0.00000  Uiso   1.00
H776   H     0.80424   0.22803   0.54588   0.00000  Uiso   1.00
C777   C     0.99387   0.17515   0.73328   0.00000  Uiso   1.00
C778   C     0.67433   0.15854   0.76381   0.00000  Uiso   1.00
H779   H     0.98544   0.14533   0.79313   0.00000  Uiso   1.00
C780   C     0.84715   0.32250   0.73657   0.00000  Uiso   1.00
H781   H     0.87375   0.00373   0.71148   0.00000  Uiso   1.00
C782   C     0.81834   0.01175   0.76387   0.00000  Uiso   1.00
H783   H     0.79133   0.33130   0.78901   0.00000  Uiso   1.00
N784   N     0.89101   0.07566   0.58230   0.00000  Uiso   1.00
O785   O     0.91691   0.09277   0.60674   0.00000  Uiso   1.00
O786   O     0.88160   0.03527   0.57958   0.00000  Uiso   1.00
N787   N     0.83099   0.05204   0.94082   0.00000  Uiso   1.00
H788   H     0.79946   0.03810   0.94356   0.00000  Uiso   1.00
H789   H     0.84787   0.04977   0.90691   0.00000  Uiso   1.00
N790   N     0.88686   0.05214   0.99320   0.00000  Uiso   1.00
H791   H     0.86353   0.02652   0.99266   0.00000  Uiso   1.00
H792   H     0.90414   0.05870   0.96056   0.00000  Uiso   1.00
N793   N     0.79240   0.26537   0.91363   0.00000  Uiso   1.00
O794   O     0.75640   0.28120   0.92272   0.00000  Uiso   1.00
O795   O     0.82560   0.28221   0.88473   0.00000  Uiso   1.00
N796   N     0.78144   0.28442   0.50643   0.00000  Uiso   1.00
H797   H     0.80567   0.30745   0.99242   0.00000  Uiso   1.00
H798   H     0.77909   0.28724   0.54103   0.00000  Uiso   1.00
N799   N     0.78699   0.10035   0.90491   0.00000  Uiso   1.00
H800   H     0.80715   0.09133   0.87395   0.00000  Uiso   1.00
H801   H     0.76525   0.11907   0.90052   0.00000  Uiso   1.00
N802   N     0.68984   0.19406   0.69491   0.00000  Uiso   1.00
O803   O     0.67979   0.19059   0.65651   0.00000  Uiso   1.00
O804   O     0.72493   0.21737   0.69890   0.00000  Uiso   1.00
Zn805  Zn    0.19338   0.47327   0.78734   0.00000  Uiso   1.00
Zn806  Zn    0.13379   0.45791   0.71876   0.00000  Uiso   1.00
Zn807  Zn    0.21056   0.53109   0.70657   0.00000  Uiso   1.00
Zn808  Zn    0.12893   0.53773   0.78734   0.00000  Uiso   1.00
O809   O     0.16667   0.50000   0.75000   0.00000  Uiso   1.00
O810   O     0.07071   0.52211   0.78213   0.00000  Uiso   1.00
O811   O     0.25491   0.48559   0.77014   0.00000  Uiso   1.00
O812   O     0.13760   0.40277   0.73413   0.00000  Uiso   1.00
O813   O     0.20345   0.58953   0.71361   0.00000  Uiso   1.00
O814   O     0.15451   0.45970   0.65459   0.00000  Uiso   1.00
O815   O     0.12940   0.53724   0.84968   0.00000  Uiso   1.00
O816   O     0.20824   0.51092   0.64606   0.00000  Uiso   1.00
O817   O     0.17451   0.49213   0.84968   0.00000  Uiso   1.00
O818   O     0.17930   0.41352   0.78214   0.00000  Uiso   1.00
O819   O     0.14632   0.59418   0.77014   0.00000  Uiso   1.00
O820   O     0.07412   0.46625   0.73413   0.00000  Uiso   1.00
O821   O     0.26693   0.52605   0.71361   0.00000  Uiso   1.00
C822   C     0.05259   0.49266   0.76069   0.00000  Uiso   1.00
C823   C     0.28092   0.50664   0.73930   0.00000  Uiso   1.00
C824   C     0.15604   0.38920   0.76023   0.00000  Uiso   1.00
C825   C     0.17657   0.61128   0.74019   0.00000  Uiso   1.00
C826   C     0.18520   0.48136   0.62920   0.00000  Uiso   1.00
C827   C     0.14833   0.51811   0.87120   0.00000  Uiso   1.00
C828   C     0.20031   0.42125   0.51608   0.00000  Uiso   1.00
C829   C     0.19190   0.47239   0.58061   0.00000  Uiso   1.00
C830   C     0.13072   0.56743   0.94034   0.00000  Uiso   1.00
C831   C     0.12752   0.57796   0.98619   0.00000  Uiso   1.00
C832   C     0.13900   0.55069   0.51133   0.00000  Uiso   1.00
C833   C     0.15127   0.51123   0.99226   0.00000  Uiso   1.00
C834   C     0.14609   0.49743   0.94857   0.00000  Uiso   1.00
C835   C     0.16828   0.48509   0.51538   0.00000  Uiso   1.00
C836   C     0.17831   0.44482   0.99519   0.00000  Uiso   1.00
C837   C     0.16389   0.42870   0.95644   0.00000  Uiso   1.00
C838   C     0.14557   0.45415   0.93489   0.00000  Uiso   1.00
C839   C     0.17598   0.49813   0.55796   0.00000  Uiso   1.00
C840   C     0.20564   0.43450   0.55944   0.00000  Uiso   1.00
C841   C     0.14054   0.52716   0.92078   0.00000  Uiso   1.00
H842   H     0.16781   0.52734   0.57606   0.00000  Uiso   1.00
H843   H     0.13757   0.56136   0.54588   0.00000  Uiso   1.00
C844   C     0.32720   0.50848   0.73328   0.00000  Uiso   1.00
C845   C     0.00767   0.49187   0.76381   0.00000  Uiso   1.00
H846   H     0.31877   0.47866   0.79313   0.00000  Uiso   1.00
C847   C     0.18048   0.65584   0.73657   0.00000  Uiso   1.00
H848   H     0.20708   0.33706   0.71148   0.00000  Uiso   1.00
C849   C     0.15167   0.34509   0.76387   0.00000  Uiso   1.00
H850   H     0.12466   0.66463   0.78901   0.00000  Uiso   1.00
N851   N     0.22434   0.40900   0.58230   0.00000  Uiso   1.00
O852   O     0.25024   0.42611   0.60674   0.00000  Uiso   1.00
O853   O     0.21493   0.36860   0.57958   0.00000  Uiso   1.00
N854   N     0.16432   0.38538   0.94082   0.00000  Uiso   1.00
H855   H     0.13280   0.37143   0.94356   0.00000  Uiso   1.00
H856   H     0.18121   0.38310   0.90691   0.00000  Uiso   1.00
N857   N     0.22019   0.38547   0.99320   0.00000  Uiso   1.00
H858   H     0.19686   0.35985   0.99266   0.00000  Uiso   1.00
H859   H     0.23747   0.39203   0.96056   0.00000  Uiso   1.00
N860   N     0.12574   0.59870   0.91363   0.00000  Uiso   1.00
O861   O     0.08974   0.61454   0.92272   0.00000  Uiso   1.00
O862   O     0.15893   0.61554   0.88473   0.00000  Uiso   1.00
N863   N     0.11478   0.61775   0.50643   0.00000  Uiso   1.00
H864   H     0.13900   0.64078   0.99242   0.00000  Uiso   1.00
H865   H     0.11242   0.62057   0.54103   0.00000  Uiso   1.00
N866   N     0.12032   0.43368   0.90491   0.00000  Uiso   1.00
H867   H     0.14048   0.42466   0.87395   0.00000  Uiso   1.00
H868   H     0.09858   0.45240   0.90052   0.00000  Uiso   1.00
N869   N     0.02317   0.52739   0.69491   0.00000  Uiso   1.00
O870   O     0.01312   0.52393   0.65651   0.00000  Uiso   1.00
O871   O     0.05827   0.55071   0.69890   0.00000  Uiso   1.00
Zn872  Zn    0.52672   0.47327   0.78734   0.00000  Uiso   1.00
Zn873  Zn    0.46713   0.45791   0.71876   0.00000  Uiso   1.00
Zn874  Zn    0.54389   0.53109   0.70657   0.00000  Uiso   1.00
Zn875  Zn    0.46226   0.53773   0.78734   0.00000  Uiso   1.00
O876   O     0.50000   0.50000   0.75000   0.00000  Uiso   1.00
O877   O     0.40405   0.52211   0.78213   0.00000  Uiso   1.00
O878   O     0.58824   0.48559   0.77014   0.00000  Uiso   1.00
O879   O     0.47093   0.40277   0.73413   0.00000  Uiso   1.00
O880   O     0.53678   0.58953   0.71361   0.00000  Uiso   1.00
O881   O     0.48784   0.45970   0.65459   0.00000  Uiso   1.00
O882   O     0.46274   0.53724   0.84968   0.00000  Uiso   1.00
O883   O     0.54157   0.51092   0.64606   0.00000  Uiso   1.00
O884   O     0.50785   0.49213   0.84968   0.00000  Uiso   1.00
O885   O     0.51264   0.41352   0.78214   0.00000  Uiso   1.00
O886   O     0.47965   0.59418   0.77014   0.00000  Uiso   1.00
O887   O     0.40745   0.46625   0.73413   0.00000  Uiso   1.00
O888   O     0.60026   0.52605   0.71361   0.00000  Uiso   1.00
C889   C     0.38593   0.49266   0.76069   0.00000  Uiso   1.00
C890   C     0.61425   0.50664   0.73930   0.00000  Uiso   1.00
C891   C     0.48938   0.38920   0.76023   0.00000  Uiso   1.00
C892   C     0.50991   0.61128   0.74019   0.00000  Uiso   1.00
C893   C     0.51853   0.48136   0.62920   0.00000  Uiso   1.00
C894   C     0.48166   0.51811   0.87120   0.00000  Uiso   1.00
C895   C     0.53365   0.42125   0.51608   0.00000  Uiso   1.00
C896   C     0.52523   0.47239   0.58061   0.00000  Uiso   1.00
C897   C     0.46406   0.56743   0.94034   0.00000  Uiso   1.00
C898   C     0.46085   0.57796   0.98619   0.00000  Uiso   1.00
C899   C     0.47233   0.55069   0.51133   0.00000  Uiso   1.00
C900   C     0.48460   0.51123   0.99226   0.00000  Uiso   1.00
C901   C     0.47943   0.49743   0.94857   0.00000  Uiso   1.00
C902   C     0.50162   0.48509   0.51538   0.00000  Uiso   1.00
C903   C     0.51165   0.44482   0.99519   0.00000  Uiso   1.00
C904   C     0.49723   0.42870   0.95644   0.00000  Uiso   1.00
C905   C     0.47891   0.45415   0.93489   0.00000  Uiso   1.00
C906   C     0.50932   0.49813   0.55796   0.00000  Uiso   1.00
C907   C     0.53897   0.43450   0.55944   0.00000  Uiso   1.00
C908   C     0.47387   0.52716   0.92078   0.00000  Uiso   1.00
H909   H     0.50115   0.52734   0.57606   0.00000  Uiso   1.00
H910   H     0.47090   0.56136   0.54588   0.00000  Uiso   1.00
C911   C     0.66054   0.50848   0.73328   0.00000  Uiso   1.00
C912   C     0.34100   0.49187   0.76381   0.00000  Uiso   1.00
H913   H     0.65211   0.47866   0.79313   0.00000  Uiso   1.00
C914   C     0.51382   0.65584   0.73657   0.00000  Uiso   1.00
H915   H     0.54041   0.33706   0.71148   0.00000  Uiso   1.00
C916   C     0.48500   0.34509   0.76387   0.00000  Uiso   1.00
H917   H     0.45799   0.66463   0.78901   0.00000  Uiso   1.00
N918   N     0.55767   0.40900   0.58230   0.00000  Uiso   1.00
O919   O     0.58358   0.42611   0.60674   0.00000  Uiso   1.00
O920   O     0.54827   0.36860   0.57958   0.00000  Uiso   1.00
N921   N     0.49766   0.38538   0.94082   0.00000  Uiso   1.00
H922   H     0.46613   0.37143   0.94356   0.00000  Uiso   1.00
H923   H     0.51454   0.38310   0.90691   0.00000  Uiso   1.00
N924   N     0.55352   0.38547   0.99320   0.00000  Uiso   1.00
H925   H     0.53020   0.35985   0.99266   0.00000  Uiso   1.00
H926   H     0.57081   0.39203   0.96056   0.00000  Uiso   1.00
N927   N     0.45907   0.59870   0.91363   0.00000  Uiso   1.00
O928   O     0.42307   0.61454   0.92272   0.00000  Uiso   1.00
O929   O     0.49227   0.61554   0.88473   0.00000  Uiso   1.00
N930   N     0.44811   0.61775   0.50643   0.00000  Uiso   1.00
H931   H     0.47234   0.64078   0.99242   0.00000  Uiso   1.00
H932   H     0.44575   0.62057   0.54103   0.00000  Uiso   1.00
N933   N     0.45365   0.43368   0.90491   0.00000  Uiso   1.00
H934   H     0.47382   0.42466   0.87395   0.00000  Uiso   1.00
H935   H     0.43192   0.45240   0.90052   0.00000  Uiso   1.00
N936   N     0.35650   0.52739   0.69491   0.00000  Uiso   1.00
O937   O     0.34646   0.52393   0.65651   0.00000  Uiso   1.00
O938   O     0.39160   0.55071   0.69890   0.00000  Uiso   1.00
Zn939  Zn    0.86005   0.47327   0.78734   0.00000  Uiso   1.00
Zn940  Zn    0.80046   0.45791   0.71876   0.00000  Uiso   1.00
Zn941  Zn    0.87723   0.53109   0.70657   0.00000  Uiso   1.00
Zn942  Zn    0.79560   0.53773   0.78734   0.00000  Uiso   1.00
O943   O     0.83333   0.50000   0.75000   0.00000  Uiso   1.00
O944   O     0.73738   0.52211   0.78213   0.00000  Uiso   1.00
O945   O     0.92158   0.48559   0.77014   0.00000  Uiso   1.00
O946   O     0.80426   0.40277   0.73413   0.00000  Uiso   1.00
O947   O     0.87012   0.58953   0.71361   0.00000  Uiso   1.00
O948   O     0.82118   0.45970   0.65459   0.00000  Uiso   1.00
O949   O     0.79607   0.53724   0.84968   0.00000  Uiso   1.00
O950   O     0.87491   0.51092   0.64606   0.00000  Uiso   1.00
O951   O     0.84118   0.49213   0.84968   0.00000  Uiso   1.00
O952   O     0.84597   0.41352   0.78214   0.00000  Uiso   1.00
O953   O     0.81298   0.59418   0.77014   0.00000  Uiso   1.00
O954   O     0.74078   0.46625   0.73413   0.00000  Uiso   1.00
O955   O     0.93360   0.52605   0.71361   0.00000  Uiso   1.00
C956   C     0.71926   0.49266   0.76069   0.00000  Uiso   1.00
C957   C     0.94758   0.50664   0.73930   0.00000  Uiso   1.00
C958   C     0.82271   0.38920   0.76023   0.00000  Uiso   1.00
C959   C     0.84324   0.61128   0.74019   0.00000  Uiso   1.00
C960   C     0.85186   0.48136   0.62920   0.00000  Uiso   1.00
C961   C     0.81499   0.51811   0.87120   0.00000  Uiso   1.00
C962   C     0.86698   0.42125   0.51608   0.00000  Uiso   1.00
C963   C     0.85856   0.47239   0.58061   0.00000  Uiso   1.00
C964   C     0.79739   0.56743   0.94034   0.00000  Uiso   1.00
C965   C     0.79419   0.57796   0.98619   0.00000  Uiso   1.00
C966   C     0.80567   0.55069   0.51133   0.00000  Uiso   1.00
C967   C     0.81794   0.51123   0.99226   0.00000  Uiso   1.00
C968   C     0.81276   0.49743   0.94857   0.00000  Uiso   1.00
C969   C     0.83495   0.48509   0.51538   0.00000  Uiso   1.00
C970   C     0.84498   0.44482   0.99519   0.00000  Uiso   1.00
C971   C     0.83056   0.42870   0.95644   0.00000  Uiso   1.00
C972   C     0.81224   0.45415   0.93489   0.00000  Uiso   1.00
C973   C     0.84265   0.49813   0.55796   0.00000  Uiso   1.00
C974   C     0.87230   0.43450   0.55944   0.00000  Uiso   1.00
C975   C     0.80720   0.52716   0.92078   0.00000  Uiso   1.00
H976   H     0.83448   0.52734   0.57606   0.00000  Uiso   1.00
H977   H     0.80424   0.56136   0.54588   0.00000  Uiso   1.00
C978   C     0.99387   0.50848   0.73328   0.00000  Uiso   1.00
C979   C     0.67433   0.49187   0.76381   0.00000  Uiso   1.00
H980   H     0.98544   0.47866   0.79313   0.00000  Uiso   1.00
C981   C     0.84715   0.65584   0.73657   0.00000  Uiso   1.00
H982   H     0.87375   0.33706   0.71148   0.00000  Uiso   1.00
C983   C     0.81834   0.34509   0.76387   0.00000  Uiso   1.00
H984   H     0.79133   0.66463   0.78901   0.00000  Uiso   1.00
N985   N     0.89101   0.40900   0.58230   0.00000  Uiso   1.00
O986   O     0.91691   0.42611   0.60674   0.00000  Uiso   1.00
O987   O     0.88160   0.36860   0.57958   0.00000  Uiso   1.00
N988   N     0.83099   0.38538   0.94082   0.00000  Uiso   1.00
H989   H     0.79946   0.37143   0.94356   0.00000  Uiso   1.00
H990   H     0.84787   0.38310   0.90691   0.00000  Uiso   1.00
N991   N     0.88686   0.38547   0.99320   0.00000  Uiso   1.00
H992   H     0.86353   0.35985   0.99266   0.00000  Uiso   1.00
H993   H     0.90414   0.39203   0.96056   0.00000  Uiso   1.00
N994   N     0.79240   0.59870   0.91363   0.00000  Uiso   1.00
O995   O     0.75640   0.61454   0.92272   0.00000  Uiso   1.00
O996   O     0.82560   0.61554   0.88473   0.00000  Uiso   1.00
N997   N     0.78144   0.61775   0.50643   0.00000  Uiso   1.00
H998   H     0.80567   0.64078   0.99242   0.00000  Uiso   1.00
H999   H     0.77909   0.62057   0.54103   0.00000  Uiso   1.00
N1000  N     0.78699   0.43368   0.90491   0.00000  Uiso   1.00
H1001  H     0.80715   0.42466   0.87395   0.00000  Uiso   1.00
H1002  H     0.76525   0.45240   0.90052   0.00000  Uiso   1.00
N1003  N     0.68984   0.52739   0.69491   0.00000  Uiso   1.00
O1004  O     0.67979   0.52393   0.65651   0.00000  Uiso   1.00
O1005  O     0.72493   0.55071   0.69890   0.00000  Uiso   1.00
Zn1006 Zn    0.19338   0.80661   0.78734   0.00000  Uiso   1.00
Zn1007 Zn    0.13379   0.79124   0.71876   0.00000  Uiso   1.00
Zn1008 Zn    0.21056   0.86442   0.70657   0.00000  Uiso   1.00
Zn1009 Zn    0.12893   0.87106   0.78734   0.00000  Uiso   1.00
O1010  O     0.16667   0.83333   0.75000   0.00000  Uiso   1.00
O1011  O     0.07071   0.85544   0.78213   0.00000  Uiso   1.00
O1012  O     0.25491   0.81892   0.77014   0.00000  Uiso   1.00
O1013  O     0.13760   0.73610   0.73413   0.00000  Uiso   1.00
O1014  O     0.20345   0.92286   0.71361   0.00000  Uiso   1.00
O1015  O     0.15451   0.79304   0.65459   0.00000  Uiso   1.00
O1016  O     0.12940   0.87058   0.84968   0.00000  Uiso   1.00
O1017  O     0.20824   0.84425   0.64606   0.00000  Uiso   1.00
O1018  O     0.17451   0.82546   0.84968   0.00000  Uiso   1.00
O1019  O     0.17930   0.74686   0.78214   0.00000  Uiso   1.00
O1020  O     0.14632   0.92751   0.77014   0.00000  Uiso   1.00
O1021  O     0.07412   0.79958   0.73413   0.00000  Uiso   1.00
O1022  O     0.26693   0.85939   0.71361   0.00000  Uiso   1.00
C1023  C     0.05259   0.82599   0.76069   0.00000  Uiso   1.00
C1024  C     0.28092   0.83998   0.73930   0.00000  Uiso   1.00
C1025  C     0.15604   0.72253   0.76023   0.00000  Uiso   1.00
C1026  C     0.17657   0.94461   0.74019   0.00000  Uiso   1.00
C1027  C     0.18520   0.81469   0.62920   0.00000  Uiso   1.00
C1028  C     0.14833   0.85144   0.87120   0.00000  Uiso   1.00
C1029  C     0.20031   0.75458   0.51608   0.00000  Uiso   1.00
C1030  C     0.19190   0.80572   0.58061   0.00000  Uiso   1.00
C1031  C     0.13072   0.90076   0.94034   0.00000  Uiso   1.00
C1032  C     0.12752   0.91129   0.98619   0.00000  Uiso   1.00
C1033  C     0.13900   0.88402   0.51133   0.00000  Uiso   1.00
C1034  C     0.15127   0.84457   0.99226   0.00000  Uiso   1.00
C1035  C     0.14609   0.83077   0.94857   0.00000  Uiso   1.00
C1036  C     0.16828   0.81842   0.51538   0.00000  Uiso   1.00
C1037  C     0.17831   0.77815   0.99519   0.00000  Uiso   1.00
C1038  C     0.16389   0.76203   0.95644   0.00000  Uiso   1.00
C1039  C     0.14557   0.78748   0.93489   0.00000  Uiso   1.00
C1040  C     0.17598   0.83146   0.55796   0.00000  Uiso   1.00
C1041  C     0.20564   0.76783   0.55944   0.00000  Uiso   1.00
C1042  C     0.14054   0.86049   0.92078   0.00000  Uiso   1.00
H1043  H     0.16781   0.86067   0.57606   0.00000  Uiso   1.00
H1044  H     0.13757   0.89469   0.54588   0.00000  Uiso   1.00
C1045  C     0.32720   0.84182   0.73328   0.00000  Uiso   1.00
C1046  C     0.00767   0.82520   0.76381   0.00000  Uiso   1.00
H1047  H     0.31877   0.81199   0.79313   0.00000  Uiso   1.00
C1048  C     0.18048   0.98917   0.73657   0.00000  Uiso   1.00
H1049  H     0.20708   0.67040   0.71148   0.00000  Uiso   1.00
C1050  C     0.15167   0.67842   0.76387   0.00000  Uiso   1.00
H1051  H     0.12466   0.99797   0.78901   0.00000  Uiso   1.00
N1052  N     0.22434   0.74233   0.58230   0.00000  Uiso   1.00
O1053  O     0.25024   0.75944   0.60674   0.00000  Uiso   1.00
O1054  O     0.21493   0.70194   0.57958   0.00000  Uiso   1.00
N1055  N     0.16432   0.71871   0.94082   0.00000  Uiso   1.00
H1056  H     0.13280   0.70476   0.94356   0.00000  Uiso   1.00
H1057  H     0.18121   0.71643   0.90691   0.00000  Uiso   1.00
N1058  N     0.22019   0.71880   0.99320   0.00000  Uiso   1.00
H1059  H     0.19686   0.69318   0.99266   0.00000  Uiso   1.00
H1060  H     0.23747   0.72537   0.96056   0.00000  Uiso   1.00
N1061  N     0.12574   0.93203   0.91363   0.00000  Uiso   1.00
O1062  O     0.08974   0.94787   0.92272   0.00000  Uiso   1.00
O1063  O     0.15893   0.94888   0.88473   0.00000  Uiso   1.00
N1064  N     0.11478   0.95108   0.50643   0.00000  Uiso   1.00
H1065  H     0.13900   0.97412   0.99242   0.00000  Uiso   1.00
H1066  H     0.11242   0.95390   0.54103   0.00000  Uiso   1.00
N1067  N     0.12032   0.76701   0.90491   0.00000  Uiso   1.00
H1068  H     0.14048   0.75800   0.87395   0.00000  Uiso   1.00
H1069  H     0.09858   0.78573   0.90052   0.00000  Uiso   1.00
N1070  N     0.02317   0.86072   0.69491   0.00000  Uiso   1.00
O1071  O     0.01312   0.85726   0.65651   0.00000  Uiso   1.00
O1072  O     0.05827   0.88404   0.69890   0.00000  Uiso   1.00
Zn1073 Zn    0.52672   0.80661   0.78734   0.00000  Uiso   1.00
Zn1074 Zn    0.46713   0.79124   0.71876   0.00000  Uiso   1.00
Zn1075 Zn    0.54389   0.86442   0.70657   0.00000  Uiso   1.00
Zn1076 Zn    0.46226   0.87106   0.78734   0.00000  Uiso   1.00
O1077  O     0.50000   0.83333   0.75000   0.00000  Uiso   1.00
O1078  O     0.40405   0.85544   0.78213   0.00000  Uiso   1.00
O1079  O     0.58824   0.81892   0.77014   0.00000  Uiso   1.00
O1080  O     0.47093   0.73610   0.73413   0.00000  Uiso   1.00
O1081  O     0.53678   0.92286   0.71361   0.00000  Uiso   1.00
O1082  O     0.48784   0.79304   0.65459   0.00000  Uiso   1.00
O1083  O     0.46274   0.87058   0.84968   0.00000  Uiso   1.00
O1084  O     0.54157   0.84425   0.64606   0.00000  Uiso   1.00
O1085  O     0.50785   0.82546   0.84968   0.00000  Uiso   1.00
O1086  O     0.51264   0.74686   0.78214   0.00000  Uiso   1.00
O1087  O     0.47965   0.92751   0.77014   0.00000  Uiso   1.00
O1088  O     0.40745   0.79958   0.73413   0.00000  Uiso   1.00
O1089  O     0.60026   0.85939   0.71361   0.00000  Uiso   1.00
C1090  C     0.38593   0.82599   0.76069   0.00000  Uiso   1.00
C1091  C     0.61425   0.83998   0.73930   0.00000  Uiso   1.00
C1092  C     0.48938   0.72253   0.76023   0.00000  Uiso   1.00
C1093  C     0.50991   0.94461   0.74019   0.00000  Uiso   1.00
C1094  C     0.51853   0.81469   0.62920   0.00000  Uiso   1.00
C1095  C     0.48166   0.85144   0.87120   0.00000  Uiso   1.00
C1096  C     0.53365   0.75458   0.51608   0.00000  Uiso   1.00
C1097  C     0.52523   0.80572   0.58061   0.00000  Uiso   1.00
C1098  C     0.46406   0.90076   0.94034   0.00000  Uiso   1.00
C1099  C     0.46085   0.91129   0.98619   0.00000  Uiso   1.00
C1100  C     0.47233   0.88402   0.51133   0.00000  Uiso   1.00
C1101  C     0.48460   0.84457   0.99226   0.00000  Uiso   1.00
C1102  C     0.47943   0.83077   0.94857   0.00000  Uiso   1.00
C1103  C     0.50162   0.81842   0.51538   0.00000  Uiso   1.00
C1104  C     0.51165   0.77815   0.99519   0.00000  Uiso   1.00
C1105  C     0.49723   0.76203   0.95644   0.00000  Uiso   1.00
C1106  C     0.47891   0.78748   0.93489   0.00000  Uiso   1.00
C1107  C     0.50932   0.83146   0.55796   0.00000  Uiso   1.00
C1108  C     0.53897   0.76783   0.55944   0.00000  Uiso   1.00
C1109  C     0.47387   0.86049   0.92078   0.00000  Uiso   1.00
H1110  H     0.50115   0.86067   0.57606   0.00000  Uiso   1.00
H1111  H     0.47090   0.89469   0.54588   0.00000  Uiso   1.00
C1112  C     0.66054   0.84182   0.73328   0.00000  Uiso   1.00
C1113  C     0.34100   0.82520   0.76381   0.00000  Uiso   1.00
H1114  H     0.65211   0.81199   0.79313   0.00000  Uiso   1.00
C1115  C     0.51382   0.98917   0.73657   0.00000  Uiso   1.00
H1116  H     0.54041   0.67040   0.71148   0.00000  Uiso   1.00
C1117  C     0.48500   0.67842   0.76387   0.00000  Uiso   1.00
H1118  H     0.45799   0.99797   0.78901   0.00000  Uiso   1.00
N1119  N     0.55767   0.74233   0.58230   0.00000  Uiso   1.00
O1120  O     0.58358   0.75944   0.60674   0.00000  Uiso   1.00
O1121  O     0.54827   0.70194   0.57958   0.00000  Uiso   1.00
N1122  N     0.49766   0.71871   0.94082   0.00000  Uiso   1.00
H1123  H     0.46613   0.70476   0.94356   0.00000  Uiso   1.00
H1124  H     0.51454   0.71643   0.90691   0.00000  Uiso   1.00
N1125  N     0.55352   0.71880   0.99320   0.00000  Uiso   1.00
H1126  H     0.53020   0.69318   0.99266   0.00000  Uiso   1.00
H1127  H     0.57081   0.72537   0.96056   0.00000  Uiso   1.00
N1128  N     0.45907   0.93203   0.91363   0.00000  Uiso   1.00
O1129  O     0.42307   0.94787   0.92272   0.00000  Uiso   1.00
O1130  O     0.49227   0.94888   0.88473   0.00000  Uiso   1.00
N1131  N     0.44811   0.95108   0.50643   0.00000  Uiso   1.00
H1132  H     0.47234   0.97412   0.99242   0.00000  Uiso   1.00
H1133  H     0.44575   0.95390   0.54103   0.00000  Uiso   1.00
N1134  N     0.45365   0.76701   0.90491   0.00000  Uiso   1.00
H1135  H     0.47382   0.75800   0.87395   0.00000  Uiso   1.00
H1136  H     0.43192   0.78573   0.90052   0.00000  Uiso   1.00
N1137  N     0.35650   0.86072   0.69491   0.00000  Uiso   1.00
O1138  O     0.34646   0.85726   0.65651   0.00000  Uiso   1.00
O1139  O     0.39160   0.88404   0.69890   0.00000  Uiso   1.00
Zn1140 Zn    0.86005   0.80661   0.78734   0.00000  Uiso   1.00
Zn1141 Zn    0.80046   0.79124   0.71876   0.00000  Uiso   1.00
Zn1142 Zn    0.87723   0.86442   0.70657   0.00000  Uiso   1.00
Zn1143 Zn    0.79560   0.87106   0.78734   0.00000  Uiso   1.00
O1144  O     0.83333   0.83333   0.75000   0.00000  Uiso   1.00
O1145  O     0.73738   0.85544   0.78213   0.00000  Uiso   1.00
O1146  O     0.92158   0.81892   0.77014   0.00000  Uiso   1.00
O1147  O     0.80426   0.73610   0.73413   0.00000  Uiso   1.00
O1148  O     0.87012   0.92286   0.71361   0.00000  Uiso   1.00
O1149  O     0.82118   0.79304   0.65459   0.00000  Uiso   1.00
O1150  O     0.79607   0.87058   0.84968   0.00000  Uiso   1.00
O1151  O     0.87491   0.84425   0.64606   0.00000  Uiso   1.00
O1152  O     0.84118   0.82546   0.84968   0.00000  Uiso   1.00
O1153  O     0.84597   0.74686   0.78214   0.00000  Uiso   1.00
O1154  O     0.81298   0.92751   0.77014   0.00000  Uiso   1.00
O1155  O     0.74078   0.79958   0.73413   0.00000  Uiso   1.00
O1156  O     0.93360   0.85939   0.71361   0.00000  Uiso   1.00
C1157  C     0.71926   0.82599   0.76069   0.00000  Uiso   1.00
C1158  C     0.94758   0.83998   0.73930   0.00000  Uiso   1.00
C1159  C     0.82271   0.72253   0.76023   0.00000  Uiso   1.00
C1160  C     0.84324   0.94461   0.74019   0.00000  Uiso   1.00
C1161  C     0.85186   0.81469   0.62920   0.00000  Uiso   1.00
C1162  C     0.81499   0.85144   0.87120   0.00000  Uiso   1.00
C1163  C     0.86698   0.75458   0.51608   0.00000  Uiso   1.00
C1164  C     0.85856   0.80572   0.58061   0.00000  Uiso   1.00
C1165  C     0.79739   0.90076   0.94034   0.00000  Uiso   1.00
C1166  C     0.79419   0.91129   0.98619   0.00000  Uiso   1.00
C1167  C     0.80567   0.88402   0.51133   0.00000  Uiso   1.00
C1168  C     0.81794   0.84457   0.99226   0.00000  Uiso   1.00
C1169  C     0.81276   0.83077   0.94857   0.00000  Uiso   1.00
C1170  C     0.83495   0.81842   0.51538   0.00000  Uiso   1.00
C1171  C     0.84498   0.77815   0.99519   0.00000  Uiso   1.00
C1172  C     0.83056   0.76203   0.95644   0.00000  Uiso   1.00
C1173  C     0.81224   0.78748   0.93489   0.00000  Uiso   1.00
C1174  C     0.84265   0.83146   0.55796   0.00000  Uiso   1.00
C1175  C     0.87230   0.76783   0.55944   0.00000  Uiso   1.00
C1176  C     0.80720   0.86049   0.92078   0.00000  Uiso   1.00
H1177  H     0.83448   0.86067   0.57606   0.00000  Uiso   1.00
H1178  H     0.80424   0.89469   0.54588   0.00000  Uiso   1.00
C1179  C     0.99387   0.84182   0.73328   0.00000  Uiso   1.00
C1180  C     0.67433   0.82520   0.76381   0.00000  Uiso   1.00
H1181  H     0.98544   0.81199   0.79313   0.00000  Uiso   1.00
C1182  C     0.84715   0.98917   0.73657   0.00000  Uiso   1.00
H1183  H     0.87375   0.67040   0.71148   0.00000  Uiso   1.00
C1184  C     0.81834   0.67842   0.76387   0.00000  Uiso   1.00
H1185  H     0.79133   0.99797   0.78901   0.00000  Uiso   1.00
N1186  N     0.89101   0.74233   0.58230   0.00000  Uiso   1.00
O1187  O     0.91691   0.75944   0.60674   0.00000  Uiso   1.00
O1188  O     0.88160   0.70194   0.57958   0.00000  Uiso   1.00
N1189  N     0.83099   0.71871   0.94082   0.00000  Uiso   1.00
H1190  H     0.79946   0.70476   0.94356   0.00000  Uiso   1.00
H1191  H     0.84787   0.71643   0.90691   0.00000  Uiso   1.00
N1192  N     0.88686   0.71880   0.99320   0.00000  Uiso   1.00
H1193  H     0.86353   0.69318   0.99266   0.00000  Uiso   1.00
H1194  H     0.90414   0.72537   0.96056   0.00000  Uiso   1.00
N1195  N     0.79240   0.93203   0.91363   0.00000  Uiso   1.00
O1196  O     0.75640   0.94787   0.92272   0.00000  Uiso   1.00
O1197  O     0.82560   0.94888   0.88473   0.00000  Uiso   1.00
N1198  N     0.78144   0.95108   0.50643   0.00000  Uiso   1.00
H1199  H     0.80567   0.97412   0.99242   0.00000  Uiso   1.00
H1200  H     0.77909   0.95390   0.54103   0.00000  Uiso   1.00
N1201  N     0.78699   0.76701   0.90491   0.00000  Uiso   1.00
H1202  H     0.80715   0.75800   0.87395   0.00000  Uiso   1.00
H1203  H     0.76525   0.78573   0.90052   0.00000  Uiso   1.00
N1204  N     0.68984   0.86072   0.69491   0.00000  Uiso   1.00
O1205  O     0.67979   0.85726   0.65651   0.00000  Uiso   1.00
O1206  O     0.72493   0.88404   0.69890   0.00000  Uiso   1.00
loop_
_geom_bond_atom_site_label_1
_geom_bond_atom_site_label_2
_geom_bond_distance
_geom_bond_site_symmetry_2
_ccdc_geom_bond_type
Zn1    O14     1.926   .     S
Zn1    O5      1.961   .     S
Zn1    O13     1.916   .     S
Zn1    O7      1.926   .     S
Zn2    O16     1.929   .     S
Zn2    O8      1.938   .     S
Zn2    O5      1.938   .     S
Zn2    O10     1.922   .     S
Zn3    O9      1.929   .     S
Zn3    O17     1.940   .     S
Zn3    O12     1.925   .     S
Zn3    O5      1.933   .     S
Zn4    O15     1.932   .     S
Zn4    O11     1.933   .     S
Zn4    O6      1.935   .     S
Zn4    O5      1.926   .     S
O6     C18     1.263   .     A
O7     C19     1.283   .     A
O8     C20     1.276   .     A
O9     C21     1.268   .     A
O10    C22     1.271   .     A
O11    C23     1.281   .     A
O12    C22     1.279   .     A
O13    C23     1.290   .     A
O14    C20     1.276   .     A
O15    C21     1.269   .     A
O16    C18     1.269   .     A
O17    C19     1.278   .     A
C18    C41     1.439   .     S
C19    C40     1.464   .     S
C20    C45     1.435   .     S
C21    C43     1.450   .     S
C22    C25     1.459   .     S
C23    C37     1.486   .     S
C24    C36     1.406   .     A
C24    C635    1.431   1_554 S
C24    N656    1.435   1_554 S
C25    C35     1.386   .     A
C25    C36     1.402   .     A
C26    C37     1.421   .     A
C26    C27     1.398   .     A
C26    N56     1.435   .     S
C27    C631    1.395   .     S
C27    N662    1.438   .     S
C28    H39     1.074   .     S
C28    C630    1.395   1_554 S
C28    C632    1.415   1_554 S
C29    C30     1.418   .     A
C29    C631    1.415   .     S
C29    C634    1.427   .     S
C30    C34     1.420   .     A
C30    C37     1.427   .     A
C31    C35     1.410   .     A
C31    C632    1.427   1_554 S
C31    C635    1.427   1_554 S
C32    C33     1.417   .     A
C32    C634    1.427   .     S
C32    C627    1.431   .     S
C33    C34     1.405   .     A
C33    N50     1.435   .     S
C34    N62     1.441   .     S
C35    H38     1.076   .     S
C36    N47     1.441   .     S
C40    C108    1.343   .     S
C40    N132    1.446   .     S
C41    C174    1.343   1_455 S
C41    H176    1.086   1_455 S
H42    C108    1.086   .     S
C43    H245    1.088   .     S
C43    C246    1.331   .     S
H44    C445    1.088   1_545 S
C45    C445    1.331   1_545 S
C45    H448    1.086   1_545 S
H46    C246    1.086   .     S
N47    O49     1.301   .     A
N47    O48     1.302   .     A
N50    H52     1.046   .     S
N50    H51     1.046   .     S
N53    H54     1.043   .     S
N53    H55     1.046   .     S
N53    C627    1.435   .     S
N56    O58     1.301   .     A
N56    O57     1.301   .     A
N59    H61     1.046   .     S
N59    C630    1.438   1_554 S
N59    H663    1.044   1_554 S
H60    N662    1.044   .     S
N62    H63     1.044   .     S
N62    H64     1.044   .     S
N65    O66     1.301   .     A
N65    O67     1.302   .     A
N65    C174    1.446   1_455 S
Zn68   O81     1.926   .     S
Zn68   O72     1.961   .     S
Zn68   O80     1.916   .     S
Zn68   O74     1.926   .     S
Zn69   O83     1.929   .     S
Zn69   O75     1.938   .     S
Zn69   O72     1.938   .     S
Zn69   O77     1.922   .     S
Zn70   O76     1.929   .     S
Zn70   O84     1.940   .     S
Zn70   O79     1.925   .     S
Zn70   O72     1.933   .     S
Zn71   O82     1.932   .     S
Zn71   O78     1.933   .     S
Zn71   O73     1.935   .     S
Zn71   O72     1.926   .     S
O73    C85     1.263   .     A
O74    C86     1.283   .     A
O75    C87     1.276   .     A
O76    C88     1.268   .     A
O77    C89     1.271   .     A
O78    C90     1.281   .     A
O79    C89     1.279   .     A
O80    C90     1.290   .     A
O81    C87     1.276   .     A
O82    C88     1.269   .     A
O83    C85     1.269   .     A
O84    C86     1.278   .     A
C85    C108    1.439   .     S
C86    C107    1.464   .     S
C87    C112    1.435   .     S
C88    C110    1.450   .     S
C89    C92     1.459   .     S
C90    C104    1.486   .     S
C91    C103    1.406   .     A
C91    C702    1.431   1_554 S
C91    N723    1.435   1_554 S
C92    C102    1.386   .     A
C92    C103    1.402   .     A
C93    C104    1.421   .     A
C93    C94     1.398   .     A
C93    N123    1.435   .     S
C94    C698    1.395   .     S
C94    N729    1.438   .     S
C95    H106    1.074   .     S
C95    C697    1.395   1_554 S
C95    C699    1.415   1_554 S
C96    C97     1.418   .     A
C96    C698    1.415   .     S
C96    C701    1.427   .     S
C97    C101    1.420   .     A
C97    C104    1.427   .     A
C98    C102    1.410   .     A
C98    C699    1.427   1_554 S
C98    C702    1.427   1_554 S
C99    C100    1.417   .     A
C99    C701    1.427   .     S
C99    C694    1.431   .     S
C100   C101    1.405   .     A
C100   N117    1.435   .     S
C101   N129    1.441   .     S
C102   H105    1.076   .     S
C103   N114    1.441   .     S
C107   C175    1.343   .     S
C107   N199    1.446   .     S
H109   C175    1.086   .     S
C110   H312    1.088   .     S
C110   C313    1.331   .     S
H111   C512    1.088   1_545 S
C112   C512    1.331   1_545 S
C112   H515    1.086   1_545 S
H113   C313    1.086   .     S
N114   O116    1.301   .     A
N114   O115    1.302   .     A
N117   H119    1.046   .     S
N117   H118    1.046   .     S
N120   H121    1.043   .     S
N120   H122    1.046   .     S
N120   C694    1.435   .     S
N123   O125    1.301   .     A
N123   O124    1.301   .     A
N126   H128    1.046   .     S
N126   C697    1.438   1_554 S
N126   H730    1.044   1_554 S
H127   N729    1.044   .     S
N129   H130    1.044   .     S
N129   H131    1.044   .     S
N132   O133    1.301   .     A
N132   O134    1.302   .     A
Zn135  O148    1.926   .     S
Zn135  O139    1.961   .     S
Zn135  O147    1.916   .     S
Zn135  O141    1.926   .     S
Zn136  O150    1.929   .     S
Zn136  O142    1.938   .     S
Zn136  O139    1.938   .     S
Zn136  O144    1.922   .     S
Zn137  O143    1.929   .     S
Zn137  O151    1.940   .     S
Zn137  O146    1.925   .     S
Zn137  O139    1.933   .     S
Zn138  O149    1.932   .     S
Zn138  O145    1.933   .     S
Zn138  O140    1.935   .     S
Zn138  O139    1.926   .     S
O140   C152    1.263   .     A
O141   C153    1.283   .     A
O142   C154    1.276   .     A
O143   C155    1.268   .     A
O144   C156    1.271   .     A
O145   C157    1.281   .     A
O146   C156    1.279   .     A
O147   C157    1.290   .     A
O148   C154    1.276   .     A
O149   C155    1.269   .     A
O150   C152    1.269   .     A
O151   C153    1.278   .     A
C152   C175    1.439   .     S
C153   C174    1.464   .     S
C154   C179    1.435   .     S
C155   C177    1.450   .     S
C156   C159    1.459   .     S
C157   C171    1.486   .     S
C158   C170    1.406   .     A
C158   C769    1.431   1_554 S
C158   N790    1.435   1_554 S
C159   C169    1.386   .     A
C159   C170    1.402   .     A
C160   C171    1.421   .     A
C160   C161    1.398   .     A
C160   N190    1.435   .     S
C161   C765    1.395   .     S
C161   N796    1.438   .     S
C162   H173    1.074   .     S
C162   C764    1.395   1_554 S
C162   C766    1.415   1_554 S
C163   C164    1.418   .     A
C163   C765    1.415   .     S
C163   C768    1.427   .     S
C164   C168    1.420   .     A
C164   C171    1.427   .     A
C165   C169    1.410   .     A
C165   C766    1.427   1_554 S
C165   C769    1.427   1_554 S
C166   C167    1.417   .     A
C166   C768    1.427   .     S
C166   C761    1.431   .     S
C167   C168    1.405   .     A
C167   N184    1.435   .     S
C168   N196    1.441   .     S
C169   H172    1.076   .     S
C170   N181    1.441   .     S
C174   C41     1.343   1_655 S
C174   N65     1.446   1_655 S
H176   C41     1.086   1_655 S
C177   H379    1.088   .     S
C177   C380    1.331   .     S
H178   C579    1.088   1_545 S
C179   C579    1.331   1_545 S
C179   H582    1.086   1_545 S
H180   C380    1.086   .     S
N181   O183    1.301   .     A
N181   O182    1.302   .     A
N184   H186    1.046   .     S
N184   H185    1.046   .     S
N187   H188    1.043   .     S
N187   H189    1.046   .     S
N187   C761    1.435   .     S
N190   O192    1.301   .     A
N190   O191    1.301   .     A
N193   H195    1.046   .     S
N193   C764    1.438   1_554 S
N193   H797    1.044   1_554 S
H194   N796    1.044   .     S
N196   H197    1.044   .     S
N196   H198    1.044   .     S
N199   O200    1.301   .     A
N199   O201    1.302   .     A
Zn202  O215    1.926   .     S
Zn202  O206    1.961   .     S
Zn202  O214    1.916   .     S
Zn202  O208    1.926   .     S
Zn203  O217    1.929   .     S
Zn203  O209    1.938   .     S
Zn203  O206    1.938   .     S
Zn203  O211    1.922   .     S
Zn204  O210    1.929   .     S
Zn204  O218    1.940   .     S
Zn204  O213    1.925   .     S
Zn204  O206    1.933   .     S
Zn205  O216    1.932   .     S
Zn205  O212    1.933   .     S
Zn205  O207    1.935   .     S
Zn205  O206    1.926   .     S
O207   C219    1.263   .     A
O208   C220    1.283   .     A
O209   C221    1.276   .     A
O210   C222    1.268   .     A
O211   C223    1.271   .     A
O212   C224    1.281   .     A
O213   C223    1.279   .     A
O214   C224    1.290   .     A
O215   C221    1.276   .     A
O216   C222    1.269   .     A
O217   C219    1.269   .     A
O218   C220    1.278   .     A
C219   C242    1.439   .     S
C220   C241    1.464   .     S
C221   C246    1.435   .     S
C222   C244    1.450   .     S
C223   C226    1.459   .     S
C224   C238    1.486   .     S
C225   C237    1.406   .     A
C225   C836    1.431   1_554 S
C225   N857    1.435   1_554 S
C226   C236    1.386   .     A
C226   C237    1.402   .     A
C227   C238    1.421   .     A
C227   C228    1.398   .     A
C227   N257    1.435   .     S
C228   C832    1.395   .     S
C228   N863    1.438   .     S
C229   H240    1.074   .     S
C229   C831    1.395   1_554 S
C229   C833    1.415   1_554 S
C230   C231    1.418   .     A
C230   C832    1.415   .     S
C230   C835    1.427   .     S
C231   C235    1.420   .     A
C231   C238    1.427   .     A
C232   C236    1.410   .     A
C232   C833    1.427   1_554 S
C232   C836    1.427   1_554 S
C233   C234    1.417   .     A
C233   C835    1.427   .     S
C233   C828    1.431   .     S
C234   C235    1.405   .     A
C234   N251    1.435   .     S
C235   N263    1.441   .     S
C236   H239    1.076   .     S
C237   N248    1.441   .     S
C241   C309    1.343   .     S
C241   N333    1.446   .     S
C242   C375    1.343   1_455 S
C242   H377    1.086   1_455 S
H243   C309    1.086   .     S
C244   H446    1.088   .     S
C244   C447    1.331   .     S
H247   C447    1.086   .     S
N248   O250    1.301   .     A
N248   O249    1.302   .     A
N251   H253    1.046   .     S
N251   H252    1.046   .     S
N254   H255    1.043   .     S
N254   H256    1.046   .     S
N254   C828    1.435   .     S
N257   O259    1.301   .     A
N257   O258    1.301   .     A
N260   H262    1.046   .     S
N260   C831    1.438   1_554 S
N260   H864    1.044   1_554 S
H261   N863    1.044   .     S
N263   H264    1.044   .     S
N263   H265    1.044   .     S
N266   O267    1.301   .     A
N266   O268    1.302   .     A
N266   C375    1.446   1_455 S
Zn269  O282    1.926   .     S
Zn269  O273    1.961   .     S
Zn269  O281    1.916   .     S
Zn269  O275    1.926   .     S
Zn270  O284    1.929   .     S
Zn270  O276    1.938   .     S
Zn270  O273    1.938   .     S
Zn270  O278    1.922   .     S
Zn271  O277    1.929   .     S
Zn271  O285    1.940   .     S
Zn271  O280    1.925   .     S
Zn271  O273    1.933   .     S
Zn272  O283    1.932   .     S
Zn272  O279    1.933   .     S
Zn272  O274    1.935   .     S
Zn272  O273    1.926   .     S
O274   C286    1.263   .     A
O275   C287    1.283   .     A
O276   C288    1.276   .     A
O277   C289    1.268   .     A
O278   C290    1.271   .     A
O279   C291    1.281   .     A
O280   C290    1.279   .     A
O281   C291    1.290   .     A
O282   C288    1.276   .     A
O283   C289    1.269   .     A
O284   C286    1.269   .     A
O285   C287    1.278   .     A
C286   C309    1.439   .     S
C287   C308    1.464   .     S
C288   C313    1.435   .     S
C289   C311    1.450   .     S
C290   C293    1.459   .     S
C291   C305    1.486   .     S
C292   C304    1.406   .     A
C292   C903    1.431   1_554 S
C292   N924    1.435   1_554 S
C293   C303    1.386   .     A
C293   C304    1.402   .     A
C294   C305    1.421   .     A
C294   C295    1.398   .     A
C294   N324    1.435   .     S
C295   C899    1.395   .     S
C295   N930    1.438   .     S
C296   H307    1.074   .     S
C296   C898    1.395   1_554 S
C296   C900    1.415   1_554 S
C297   C298    1.418   .     A
C297   C899    1.415   .     S
C297   C902    1.427   .     S
C298   C302    1.420   .     A
C298   C305    1.427   .     A
C299   C303    1.410   .     A
C299   C900    1.427   1_554 S
C299   C903    1.427   1_554 S
C300   C301    1.417   .     A
C300   C902    1.427   .     S
C300   C895    1.431   .     S
C301   C302    1.405   .     A
C301   N318    1.435   .     S
C302   N330    1.441   .     S
C303   H306    1.076   .     S
C304   N315    1.441   .     S
C308   C376    1.343   .     S
C308   N400    1.446   .     S
H310   C376    1.086   .     S
C311   H513    1.088   .     S
C311   C514    1.331   .     S
H314   C514    1.086   .     S
N315   O317    1.301   .     A
N315   O316    1.302   .     A
N318   H320    1.046   .     S
N318   H319    1.046   .     S
N321   H322    1.043   .     S
N321   H323    1.046   .     S
N321   C895    1.435   .     S
N324   O326    1.301   .     A
N324   O325    1.301   .     A
N327   H329    1.046   .     S
N327   C898    1.438   1_554 S
N327   H931    1.044   1_554 S
H328   N930    1.044   .     S
N330   H331    1.044   .     S
N330   H332    1.044   .     S
N333   O334    1.301   .     A
N333   O335    1.302   .     A
Zn336  O349    1.926   .     S
Zn336  O340    1.961   .     S
Zn336  O348    1.916   .     S
Zn336  O342    1.926   .     S
Zn337  O351    1.929   .     S
Zn337  O343    1.938   .     S
Zn337  O340    1.938   .     S
Zn337  O345    1.922   .     S
Zn338  O344    1.929   .     S
Zn338  O352    1.940   .     S
Zn338  O347    1.925   .     S
Zn338  O340    1.933   .     S
Zn339  O350    1.932   .     S
Zn339  O346    1.933   .     S
Zn339  O341    1.935   .     S
Zn339  O340    1.926   .     S
O341   C353    1.263   .     A
O342   C354    1.283   .     A
O343   C355    1.276   .     A
O344   C356    1.268   .     A
O345   C357    1.271   .     A
O346   C358    1.281   .     A
O347   C357    1.279   .     A
O348   C358    1.290   .     A
O349   C355    1.276   .     A
O350   C356    1.269   .     A
O351   C353    1.269   .     A
O352   C354    1.278   .     A
C353   C376    1.439   .     S
C354   C375    1.464   .     S
C355   C380    1.435   .     S
C356   C378    1.450   .     S
C357   C360    1.459   .     S
C358   C372    1.486   .     S
C359   C371    1.406   .     A
C359   C970    1.431   1_554 S
C359   N991    1.435   1_554 S
C360   C370    1.386   .     A
C360   C371    1.402   .     A
C361   C372    1.421   .     A
C361   C362    1.398   .     A
C361   N391    1.435   .     S
C362   C966    1.395   .     S
C362   N997    1.438   .     S
C363   H374    1.074   .     S
C363   C965    1.395   1_554 S
C363   C967    1.415   1_554 S
C364   C365    1.418   .     A
C364   C966    1.415   .     S
C364   C969    1.427   .     S
C365   C369    1.420   .     A
C365   C372    1.427   .     A
C366   C370    1.410   .     A
C366   C967    1.427   1_554 S
C366   C970    1.427   1_554 S
C367   C368    1.417   .     A
C367   C969    1.427   .     S
C367   C962    1.431   .     S
C368   C369    1.405   .     A
C368   N385    1.435   .     S
C369   N397    1.441   .     S
C370   H373    1.076   .     S
C371   N382    1.441   .     S
C375   C242    1.343   1_655 S
C375   N266    1.446   1_655 S
H377   C242    1.086   1_655 S
C378   H580    1.088   .     S
C378   C581    1.331   .     S
H381   C581    1.086   .     S
N382   O384    1.301   .     A
N382   O383    1.302   .     A
N385   H387    1.046   .     S
N385   H386    1.046   .     S
N388   H389    1.043   .     S
N388   H390    1.046   .     S
N388   C962    1.435   .     S
N391   O393    1.301   .     A
N391   O392    1.301   .     A
N394   H396    1.046   .     S
N394   C965    1.438   1_554 S
N394   H998    1.044   1_554 S
H395   N997    1.044   .     S
N397   H398    1.044   .     S
N397   H399    1.044   .     S
N400   O401    1.301   .     A
N400   O402    1.302   .     A
Zn403  O416    1.926   .     S
Zn403  O407    1.961   .     S
Zn403  O415    1.916   .     S
Zn403  O409    1.926   .     S
Zn404  O418    1.929   .     S
Zn404  O410    1.938   .     S
Zn404  O407    1.938   .     S
Zn404  O412    1.922   .     S
Zn405  O411    1.929   .     S
Zn405  O419    1.940   .     S
Zn405  O414    1.925   .     S
Zn405  O407    1.933   .     S
Zn406  O417    1.932   .     S
Zn406  O413    1.933   .     S
Zn406  O408    1.935   .     S
Zn406  O407    1.926   .     S
O408   C420    1.263   .     A
O409   C421    1.283   .     A
O410   C422    1.276   .     A
O411   C423    1.268   .     A
O412   C424    1.271   .     A
O413   C425    1.281   .     A
O414   C424    1.279   .     A
O415   C425    1.290   .     A
O416   C422    1.276   .     A
O417   C423    1.269   .     A
O418   C420    1.269   .     A
O419   C421    1.278   .     A
C420   C443    1.439   .     S
C421   C442    1.464   .     S
C422   C447    1.435   .     S
C423   C445    1.450   .     S
C424   C427    1.459   .     S
C425   C439    1.486   .     S
C426   C438    1.406   .     A
C426   C1037   1.431   1_554 S
C426   N1058   1.435   1_554 S
C427   C437    1.386   .     A
C427   C438    1.402   .     A
C428   C439    1.421   .     A
C428   C429    1.398   .     A
C428   N458    1.435   .     S
C429   C1033   1.395   .     S
C429   N1064   1.438   .     S
C430   H441    1.074   .     S
C430   C1032   1.395   1_554 S
C430   C1034   1.415   1_554 S
C431   C432    1.418   .     A
C431   C1033   1.415   .     S
C431   C1036   1.427   .     S
C432   C436    1.420   .     A
C432   C439    1.427   .     A
C433   C437    1.410   .     A
C433   C1034   1.427   1_554 S
C433   C1037   1.427   1_554 S
C434   C435    1.417   .     A
C434   C1036   1.427   .     S
C434   C1029   1.431   .     S
C435   C436    1.405   .     A
C435   N452    1.435   .     S
C436   N464    1.441   .     S
C437   H440    1.076   .     S
C438   N449    1.441   .     S
C442   C510    1.343   .     S
C442   N534    1.446   .     S
C443   C576    1.343   1_455 S
C443   H578    1.086   1_455 S
H444   C510    1.086   .     S
C445   H44     1.088   1_565 S
C445   C45     1.331   1_565 S
H448   C45     1.086   1_565 S
N449   O451    1.301   .     A
N449   O450    1.302   .     A
N452   H454    1.046   .     S
N452   H453    1.046   .     S
N455   H456    1.043   .     S
N455   H457    1.046   .     S
N455   C1029   1.435   .     S
N458   O460    1.301   .     A
N458   O459    1.301   .     A
N461   H463    1.046   .     S
N461   C1032   1.438   1_554 S
N461   H1065   1.044   1_554 S
H462   N1064   1.044   .     S
N464   H465    1.044   .     S
N464   H466    1.044   .     S
N467   O468    1.301   .     A
N467   O469    1.302   .     A
N467   C576    1.446   1_455 S
Zn470  O483    1.926   .     S
Zn470  O474    1.961   .     S
Zn470  O482    1.916   .     S
Zn470  O476    1.926   .     S
Zn471  O485    1.929   .     S
Zn471  O477    1.938   .     S
Zn471  O474    1.938   .     S
Zn471  O479    1.922   .     S
Zn472  O478    1.929   .     S
Zn472  O486    1.940   .     S
Zn472  O481    1.925   .     S
Zn472  O474    1.933   .     S
Zn473  O484    1.932   .     S
Zn473  O480    1.933   .     S
Zn473  O475    1.935   .     S
Zn473  O474    1.926   .     S
O475   C487    1.263   .     A
O476   C488    1.283   .     A
O477   C489    1.276   .     A
O478   C490    1.268   .     A
O479   C491    1.271   .     A
O480   C492    1.281   .     A
O481   C491    1.279   .     A
O482   C492    1.290   .     A
O483   C489    1.276   .     A
O484   C490    1.269   .     A
O485   C487    1.269   .     A
O486   C488    1.278   .     A
C487   C510    1.439   .     S
C488   C509    1.464   .     S
C489   C514    1.435   .     S
C490   C512    1.450   .     S
C491   C494    1.459   .     S
C492   C506    1.486   .     S
C493   C505    1.406   .     A
C493   C1104   1.431   1_554 S
C493   N1125   1.435   1_554 S
C494   C504    1.386   .     A
C494   C505    1.402   .     A
C495   C506    1.421   .     A
C495   C496    1.398   .     A
C495   N525    1.435   .     S
C496   C1100   1.395   .     S
C496   N1131   1.438   .     S
C497   H508    1.074   .     S
C497   C1099   1.395   1_554 S
C497   C1101   1.415   1_554 S
C498   C499    1.418   .     A
C498   C1100   1.415   .     S
C498   C1103   1.427   .     S
C499   C503    1.420   .     A
C499   C506    1.427   .     A
C500   C504    1.410   .     A
C500   C1101   1.427   1_554 S
C500   C1104   1.427   1_554 S
C501   C502    1.417   .     A
C501   C1103   1.427   .     S
C501   C1096   1.431   .     S
C502   C503    1.405   .     A
C502   N519    1.435   .     S
C503   N531    1.441   .     S
C504   H507    1.076   .     S
C505   N516    1.441   .     S
C509   C577    1.343   .     S
C509   N601    1.446   .     S
H511   C577    1.086   .     S
C512   H111    1.088   1_565 S
C512   C112    1.331   1_565 S
H515   C112    1.086   1_565 S
N516   O518    1.301   .     A
N516   O517    1.302   .     A
N519   H521    1.046   .     S
N519   H520    1.046   .     S
N522   H523    1.043   .     S
N522   H524    1.046   .     S
N522   C1096   1.435   .     S
N525   O527    1.301   .     A
N525   O526    1.301   .     A
N528   H530    1.046   .     S
N528   C1099   1.438   1_554 S
N528   H1132   1.044   1_554 S
H529   N1131   1.044   .     S
N531   H532    1.044   .     S
N531   H533    1.044   .     S
N534   O535    1.301   .     A
N534   O536    1.302   .     A
Zn537  O550    1.926   .     S
Zn537  O541    1.961   .     S
Zn537  O549    1.916   .     S
Zn537  O543    1.926   .     S
Zn538  O552    1.929   .     S
Zn538  O544    1.938   .     S
Zn538  O541    1.938   .     S
Zn538  O546    1.922   .     S
Zn539  O545    1.929   .     S
Zn539  O553    1.940   .     S
Zn539  O548    1.925   .     S
Zn539  O541    1.933   .     S
Zn540  O551    1.932   .     S
Zn540  O547    1.933   .     S
Zn540  O542    1.935   .     S
Zn540  O541    1.926   .     S
O542   C554    1.263   .     A
O543   C555    1.283   .     A
O544   C556    1.276   .     A
O545   C557    1.268   .     A
O546   C558    1.271   .     A
O547   C559    1.281   .     A
O548   C558    1.279   .     A
O549   C559    1.290   .     A
O550   C556    1.276   .     A
O551   C557    1.269   .     A
O552   C554    1.269   .     A
O553   C555    1.278   .     A
C554   C577    1.439   .     S
C555   C576    1.464   .     S
C556   C581    1.435   .     S
C557   C579    1.450   .     S
C558   C561    1.459   .     S
C559   C573    1.486   .     S
C560   C572    1.406   .     A
C560   C1171   1.431   1_554 S
C560   N1192   1.435   1_554 S
C561   C571    1.386   .     A
C561   C572    1.402   .     A
C562   C573    1.421   .     A
C562   C563    1.398   .     A
C562   N592    1.435   .     S
C563   C1167   1.395   .     S
C563   N1198   1.438   .     S
C564   H575    1.074   .     S
C564   C1166   1.395   1_554 S
C564   C1168   1.415   1_554 S
C565   C566    1.418   .     A
C565   C1167   1.415   .     S
C565   C1170   1.427   .     S
C566   C570    1.420   .     A
C566   C573    1.427   .     A
C567   C571    1.410   .     A
C567   C1168   1.427   1_554 S
C567   C1171   1.427   1_554 S
C568   C569    1.417   .     A
C568   C1170   1.427   .     S
C568   C1163   1.431   .     S
C569   C570    1.405   .     A
C569   N586    1.435   .     S
C570   N598    1.441   .     S
C571   H574    1.076   .     S
C572   N583    1.441   .     S
C576   C443    1.343   1_655 S
C576   N467    1.446   1_655 S
H578   C443    1.086   1_655 S
C579   H178    1.088   1_565 S
C579   C179    1.331   1_565 S
H582   C179    1.086   1_565 S
N583   O585    1.301   .     A
N583   O584    1.302   .     A
N586   H588    1.046   .     S
N586   H587    1.046   .     S
N589   H590    1.043   .     S
N589   H591    1.046   .     S
N589   C1163   1.435   .     S
N592   O594    1.301   .     A
N592   O593    1.301   .     A
N595   H597    1.046   .     S
N595   C1166   1.438   1_554 S
N595   H1199   1.044   1_554 S
H596   N1198   1.044   .     S
N598   H599    1.044   .     S
N598   H600    1.044   .     S
N601   O602    1.301   .     A
N601   O603    1.302   .     A
Zn604  O617    1.926   .     S
Zn604  O608    1.961   .     S
Zn604  O616    1.916   .     S
Zn604  O610    1.926   .     S
Zn605  O619    1.929   .     S
Zn605  O611    1.938   .     S
Zn605  O608    1.938   .     S
Zn605  O613    1.922   .     S
Zn606  O612    1.929   .     S
Zn606  O620    1.940   .     S
Zn606  O615    1.925   .     S
Zn606  O608    1.933   .     S
Zn607  O618    1.932   .     S
Zn607  O614    1.933   .     S
Zn607  O609    1.935   .     S
Zn607  O608    1.926   .     S
O609   C621    1.263   .     A
O610   C622    1.283   .     A
O611   C623    1.276   .     A
O612   C624    1.268   .     A
O613   C625    1.271   .     A
O614   C626    1.281   .     A
O615   C625    1.279   .     A
O616   C626    1.290   .     A
O617   C623    1.276   .     A
O618   C624    1.269   .     A
O619   C621    1.269   .     A
O620   C622    1.278   .     A
C621   C644    1.439   .     S
C622   C643    1.464   .     S
C623   C648    1.435   .     S
C624   C646    1.450   .     S
C625   C628    1.459   .     S
C626   C640    1.486   .     S
C627   C639    1.406   .     A
C628   C638    1.386   .     A
C628   C639    1.402   .     A
C629   C640    1.421   .     A
C629   C630    1.398   .     A
C629   N659    1.435   .     S
C630   C28     1.395   1_556 S
C630   N59     1.438   1_556 S
C631   H642    1.074   .     S
C632   C633    1.418   .     A
C632   C28     1.415   1_556 S
C632   C31     1.427   1_556 S
C633   C637    1.420   .     A
C633   C640    1.427   .     A
C634   C638    1.410   .     A
C635   C636    1.417   .     A
C635   C31     1.427   1_556 S
C635   C24     1.431   1_556 S
C636   C637    1.405   .     A
C636   N653    1.435   .     S
C637   N665    1.441   .     S
C638   H641    1.076   .     S
C639   N650    1.441   .     S
C643   C711    1.343   .     S
C643   N735    1.446   .     S
C644   C777    1.343   1_455 S
C644   H779    1.086   1_455 S
H645   C711    1.086   .     S
C646   H848    1.088   .     S
C646   C849    1.331   .     S
H647   C1048   1.088   1_545 S
C648   C1048   1.331   1_545 S
C648   H1051   1.086   1_545 S
H649   C849    1.086   .     S
N650   O652    1.301   .     A
N650   O651    1.302   .     A
N653   H655    1.046   .     S
N653   H654    1.046   .     S
N656   H657    1.043   .     S
N656   H658    1.046   .     S
N656   C24     1.435   1_556 S
N659   O661    1.301   .     A
N659   O660    1.301   .     A
N662   H664    1.046   .     S
H663   N59     1.044   1_556 S
N665   H666    1.044   .     S
N665   H667    1.044   .     S
N668   O669    1.301   .     A
N668   O670    1.302   .     A
N668   C777    1.446   1_455 S
Zn671  O684    1.926   .     S
Zn671  O675    1.961   .     S
Zn671  O683    1.916   .     S
Zn671  O677    1.926   .     S
Zn672  O686    1.929   .     S
Zn672  O678    1.938   .     S
Zn672  O675    1.938   .     S
Zn672  O680    1.922   .     S
Zn673  O679    1.929   .     S
Zn673  O687    1.940   .     S
Zn673  O682    1.925   .     S
Zn673  O675    1.933   .     S
Zn674  O685    1.932   .     S
Zn674  O681    1.933   .     S
Zn674  O676    1.935   .     S
Zn674  O675    1.926   .     S
O676   C688    1.263   .     A
O677   C689    1.283   .     A
O678   C690    1.276   .     A
O679   C691    1.268   .     A
O680   C692    1.271   .     A
O681   C693    1.281   .     A
O682   C692    1.279   .     A
O683   C693    1.290   .     A
O684   C690    1.276   .     A
O685   C691    1.269   .     A
O686   C688    1.269   .     A
O687   C689    1.278   .     A
C688   C711    1.439   .     S
C689   C710    1.464   .     S
C690   C715    1.435   .     S
C691   C713    1.450   .     S
C692   C695    1.459   .     S
C693   C707    1.486   .     S
C694   C706    1.406   .     A
C695   C705    1.386   .     A
C695   C706    1.402   .     A
C696   C707    1.421   .     A
C696   C697    1.398   .     A
C696   N726    1.435   .     S
C697   C95     1.395   1_556 S
C697   N126    1.438   1_556 S
C698   H709    1.074   .     S
C699   C700    1.418   .     A
C699   C95     1.415   1_556 S
C699   C98     1.427   1_556 S
C700   C704    1.420   .     A
C700   C707    1.427   .     A
C701   C705    1.410   .     A
C702   C703    1.417   .     A
C702   C98     1.427   1_556 S
C702   C91     1.431   1_556 S
C703   C704    1.405   .     A
C703   N720    1.435   .     S
C704   N732    1.441   .     S
C705   H708    1.076   .     S
C706   N717    1.441   .     S
C710   C778    1.343   .     S
C710   N802    1.446   .     S
H712   C778    1.086   .     S
C713   H915    1.088   .     S
C713   C916    1.331   .     S
H714   C1115   1.088   1_545 S
C715   C1115   1.331   1_545 S
C715   H1118   1.086   1_545 S
H716   C916    1.086   .     S
N717   O719    1.301   .     A
N717   O718    1.302   .     A
N720   H722    1.046   .     S
N720   H721    1.046   .     S
N723   H724    1.043   .     S
N723   H725    1.046   .     S
N723   C91     1.435   1_556 S
N726   O728    1.301   .     A
N726   O727    1.301   .     A
N729   H731    1.046   .     S
H730   N126    1.044   1_556 S
N732   H733    1.044   .     S
N732   H734    1.044   .     S
N735   O736    1.301   .     A
N735   O737    1.302   .     A
Zn738  O751    1.926   .     S
Zn738  O742    1.961   .     S
Zn738  O750    1.916   .     S
Zn738  O744    1.926   .     S
Zn739  O753    1.929   .     S
Zn739  O745    1.938   .     S
Zn739  O742    1.938   .     S
Zn739  O747    1.922   .     S
Zn740  O746    1.929   .     S
Zn740  O754    1.940   .     S
Zn740  O749    1.925   .     S
Zn740  O742    1.933   .     S
Zn741  O752    1.932   .     S
Zn741  O748    1.933   .     S
Zn741  O743    1.935   .     S
Zn741  O742    1.926   .     S
O743   C755    1.263   .     A
O744   C756    1.283   .     A
O745   C757    1.276   .     A
O746   C758    1.268   .     A
O747   C759    1.271   .     A
O748   C760    1.281   .     A
O749   C759    1.279   .     A
O750   C760    1.290   .     A
O751   C757    1.276   .     A
O752   C758    1.269   .     A
O753   C755    1.269   .     A
O754   C756    1.278   .     A
C755   C778    1.439   .     S
C756   C777    1.464   .     S
C757   C782    1.435   .     S
C758   C780    1.450   .     S
C759   C762    1.459   .     S
C760   C774    1.486   .     S
C761   C773    1.406   .     A
C762   C772    1.386   .     A
C762   C773    1.402   .     A
C763   C774    1.421   .     A
C763   C764    1.398   .     A
C763   N793    1.435   .     S
C764   C162    1.395   1_556 S
C764   N193    1.438   1_556 S
C765   H776    1.074   .     S
C766   C767    1.418   .     A
C766   C162    1.415   1_556 S
C766   C165    1.427   1_556 S
C767   C771    1.420   .     A
C767   C774    1.427   .     A
C768   C772    1.410   .     A
C769   C770    1.417   .     A
C769   C165    1.427   1_556 S
C769   C158    1.431   1_556 S
C770   C771    1.405   .     A
C770   N787    1.435   .     S
C771   N799    1.441   .     S
C772   H775    1.076   .     S
C773   N784    1.441   .     S
C777   C644    1.343   1_655 S
C777   N668    1.446   1_655 S
H779   C644    1.086   1_655 S
C780   H982    1.088   .     S
C780   C983    1.331   .     S
H781   C1182   1.088   1_545 S
C782   C1182   1.331   1_545 S
C782   H1185   1.086   1_545 S
H783   C983    1.086   .     S
N784   O786    1.301   .     A
N784   O785    1.302   .     A
N787   H789    1.046   .     S
N787   H788    1.046   .     S
N790   H791    1.043   .     S
N790   H792    1.046   .     S
N790   C158    1.435   1_556 S
N793   O795    1.301   .     A
N793   O794    1.301   .     A
N796   H798    1.046   .     S
H797   N193    1.044   1_556 S
N799   H800    1.044   .     S
N799   H801    1.044   .     S
N802   O803    1.301   .     A
N802   O804    1.302   .     A
Zn805  O818    1.926   .     S
Zn805  O809    1.961   .     S
Zn805  O817    1.916   .     S
Zn805  O811    1.926   .     S
Zn806  O820    1.929   .     S
Zn806  O812    1.938   .     S
Zn806  O809    1.938   .     S
Zn806  O814    1.922   .     S
Zn807  O813    1.929   .     S
Zn807  O821    1.940   .     S
Zn807  O816    1.925   .     S
Zn807  O809    1.933   .     S
Zn808  O819    1.932   .     S
Zn808  O815    1.933   .     S
Zn808  O810    1.935   .     S
Zn808  O809    1.926   .     S
O810   C822    1.263   .     A
O811   C823    1.283   .     A
O812   C824    1.276   .     A
O813   C825    1.268   .     A
O814   C826    1.271   .     A
O815   C827    1.281   .     A
O816   C826    1.279   .     A
O817   C827    1.290   .     A
O818   C824    1.276   .     A
O819   C825    1.269   .     A
O820   C822    1.269   .     A
O821   C823    1.278   .     A
C822   C845    1.439   .     S
C823   C844    1.464   .     S
C824   C849    1.435   .     S
C825   C847    1.450   .     S
C826   C829    1.459   .     S
C827   C841    1.486   .     S
C828   C840    1.406   .     A
C829   C839    1.386   .     A
C829   C840    1.402   .     A
C830   C841    1.421   .     A
C830   C831    1.398   .     A
C830   N860    1.435   .     S
C831   C229    1.395   1_556 S
C831   N260    1.438   1_556 S
C832   H843    1.074   .     S
C833   C834    1.418   .     A
C833   C229    1.415   1_556 S
C833   C232    1.427   1_556 S
C834   C838    1.420   .     A
C834   C841    1.427   .     A
C835   C839    1.410   .     A
C836   C837    1.417   .     A
C836   C232    1.427   1_556 S
C836   C225    1.431   1_556 S
C837   C838    1.405   .     A
C837   N854    1.435   .     S
C838   N866    1.441   .     S
C839   H842    1.076   .     S
C840   N851    1.441   .     S
C844   C912    1.343   .     S
C844   N936    1.446   .     S
C845   C978    1.343   1_455 S
C845   H980    1.086   1_455 S
H846   C912    1.086   .     S
C847   H1049   1.088   .     S
C847   C1050   1.331   .     S
H850   C1050   1.086   .     S
N851   O853    1.301   .     A
N851   O852    1.302   .     A
N854   H856    1.046   .     S
N854   H855    1.046   .     S
N857   H858    1.043   .     S
N857   H859    1.046   .     S
N857   C225    1.435   1_556 S
N860   O862    1.301   .     A
N860   O861    1.301   .     A
N863   H865    1.046   .     S
H864   N260    1.044   1_556 S
N866   H867    1.044   .     S
N866   H868    1.044   .     S
N869   O870    1.301   .     A
N869   O871    1.302   .     A
N869   C978    1.446   1_455 S
Zn872  O885    1.926   .     S
Zn872  O876    1.961   .     S
Zn872  O884    1.916   .     S
Zn872  O878    1.926   .     S
Zn873  O887    1.929   .     S
Zn873  O879    1.938   .     S
Zn873  O876    1.938   .     S
Zn873  O881    1.922   .     S
Zn874  O880    1.929   .     S
Zn874  O888    1.940   .     S
Zn874  O883    1.925   .     S
Zn874  O876    1.933   .     S
Zn875  O886    1.932   .     S
Zn875  O882    1.933   .     S
Zn875  O877    1.935   .     S
Zn875  O876    1.926   .     S
O877   C889    1.263   .     A
O878   C890    1.283   .     A
O879   C891    1.276   .     A
O880   C892    1.268   .     A
O881   C893    1.271   .     A
O882   C894    1.281   .     A
O883   C893    1.279   .     A
O884   C894    1.290   .     A
O885   C891    1.276   .     A
O886   C892    1.269   .     A
O887   C889    1.269   .     A
O888   C890    1.278   .     A
C889   C912    1.439   .     S
C890   C911    1.464   .     S
C891   C916    1.435   .     S
C892   C914    1.450   .     S
C893   C896    1.459   .     S
C894   C908    1.486   .     S
C895   C907    1.406   .     A
C896   C906    1.386   .     A
C896   C907    1.402   .     A
C897   C908    1.421   .     A
C897   C898    1.398   .     A
C897   N927    1.435   .     S
C898   C296    1.395   1_556 S
C898   N327    1.438   1_556 S
C899   H910    1.074   .     S
C900   C901    1.418   .     A
C900   C296    1.415   1_556 S
C900   C299    1.427   1_556 S
C901   C905    1.420   .     A
C901   C908    1.427   .     A
C902   C906    1.410   .     A
C903   C904    1.417   .     A
C903   C299    1.427   1_556 S
C903   C292    1.431   1_556 S
C904   C905    1.405   .     A
C904   N921    1.435   .     S
C905   N933    1.441   .     S
C906   H909    1.076   .     S
C907   N918    1.441   .     S
C911   C979    1.343   .     S
C911   N1003   1.446   .     S
H913   C979    1.086   .     S
C914   H1116   1.088   .     S
C914   C1117   1.331   .     S
H917   C1117   1.086   .     S
N918   O920    1.301   .     A
N918   O919    1.302   .     A
N921   H923    1.046   .     S
N921   H922    1.046   .     S
N924   H925    1.043   .     S
N924   H926    1.046   .     S
N924   C292    1.435   1_556 S
N927   O929    1.301   .     A
N927   O928    1.301   .     A
N930   H932    1.046   .     S
H931   N327    1.044   1_556 S
N933   H934    1.044   .     S
N933   H935    1.044   .     S
N936   O937    1.301   .     A
N936   O938    1.302   .     A
Zn939  O952    1.926   .     S
Zn939  O943    1.961   .     S
Zn939  O951    1.916   .     S
Zn939  O945    1.926   .     S
Zn940  O954    1.929   .     S
Zn940  O946    1.938   .     S
Zn940  O943    1.938   .     S
Zn940  O948    1.922   .     S
Zn941  O947    1.929   .     S
Zn941  O955    1.940   .     S
Zn941  O950    1.925   .     S
Zn941  O943    1.933   .     S
Zn942  O953    1.932   .     S
Zn942  O949    1.933   .     S
Zn942  O944    1.935   .     S
Zn942  O943    1.926   .     S
O944   C956    1.263   .     A
O945   C957    1.283   .     A
O946   C958    1.276   .     A
O947   C959    1.268   .     A
O948   C960    1.271   .     A
O949   C961    1.281   .     A
O950   C960    1.279   .     A
O951   C961    1.290   .     A
O952   C958    1.276   .     A
O953   C959    1.269   .     A
O954   C956    1.269   .     A
O955   C957    1.278   .     A
C956   C979    1.439   .     S
C957   C978    1.464   .     S
C958   C983    1.435   .     S
C959   C981    1.450   .     S
C960   C963    1.459   .     S
C961   C975    1.486   .     S
C962   C974    1.406   .     A
C963   C973    1.386   .     A
C963   C974    1.402   .     A
C964   C975    1.421   .     A
C964   C965    1.398   .     A
C964   N994    1.435   .     S
C965   C363    1.395   1_556 S
C965   N394    1.438   1_556 S
C966   H977    1.074   .     S
C967   C968    1.418   .     A
C967   C363    1.415   1_556 S
C967   C366    1.427   1_556 S
C968   C972    1.420   .     A
C968   C975    1.427   .     A
C969   C973    1.410   .     A
C970   C971    1.417   .     A
C970   C366    1.427   1_556 S
C970   C359    1.431   1_556 S
C971   C972    1.405   .     A
C971   N988    1.435   .     S
C972   N1000   1.441   .     S
C973   H976    1.076   .     S
C974   N985    1.441   .     S
C978   C845    1.343   1_655 S
C978   N869    1.446   1_655 S
H980   C845    1.086   1_655 S
C981   H1183   1.088   .     S
C981   C1184   1.331   .     S
H984   C1184   1.086   .     S
N985   O987    1.301   .     A
N985   O986    1.302   .     A
N988   H990    1.046   .     S
N988   H989    1.046   .     S
N991   H992    1.043   .     S
N991   H993    1.046   .     S
N991   C359    1.435   1_556 S
N994   O996    1.301   .     A
N994   O995    1.301   .     A
N997   H999    1.046   .     S
H998   N394    1.044   1_556 S
N1000  H1001   1.044   .     S
N1000  H1002   1.044   .     S
N1003  O1004   1.301   .     A
N1003  O1005   1.302   .     A
Zn1006 O1019   1.926   .     S
Zn1006 O1010   1.961   .     S
Zn1006 O1018   1.916   .     S
Zn1006 O1012   1.926   .     S
Zn1007 O1021   1.929   .     S
Zn1007 O1013   1.938   .     S
Zn1007 O1010   1.938   .     S
Zn1007 O1015   1.922   .     S
Zn1008 O1014   1.929   .     S
Zn1008 O1022   1.940   .     S
Zn1008 O1017   1.925   .     S
Zn1008 O1010   1.933   .     S
Zn1009 O1020   1.932   .     S
Zn1009 O1016   1.933   .     S
Zn1009 O1011   1.935   .     S
Zn1009 O1010   1.926   .     S
O1011  C1023   1.263   .     A
O1012  C1024   1.283   .     A
O1013  C1025   1.276   .     A
O1014  C1026   1.268   .     A
O1015  C1027   1.271   .     A
O1016  C1028   1.281   .     A
O1017  C1027   1.279   .     A
O1018  C1028   1.290   .     A
O1019  C1025   1.276   .     A
O1020  C1026   1.269   .     A
O1021  C1023   1.269   .     A
O1022  C1024   1.278   .     A
C1023  C1046   1.439   .     S
C1024  C1045   1.464   .     S
C1025  C1050   1.435   .     S
C1026  C1048   1.450   .     S
C1027  C1030   1.459   .     S
C1028  C1042   1.486   .     S
C1029  C1041   1.406   .     A
C1030  C1040   1.386   .     A
C1030  C1041   1.402   .     A
C1031  C1042   1.421   .     A
C1031  C1032   1.398   .     A
C1031  N1061   1.435   .     S
C1032  C430    1.395   1_556 S
C1032  N461    1.438   1_556 S
C1033  H1044   1.074   .     S
C1034  C1035   1.418   .     A
C1034  C430    1.415   1_556 S
C1034  C433    1.427   1_556 S
C1035  C1039   1.420   .     A
C1035  C1042   1.427   .     A
C1036  C1040   1.410   .     A
C1037  C1038   1.417   .     A
C1037  C433    1.427   1_556 S
C1037  C426    1.431   1_556 S
C1038  C1039   1.405   .     A
C1038  N1055   1.435   .     S
C1039  N1067   1.441   .     S
C1040  H1043   1.076   .     S
C1041  N1052   1.441   .     S
C1045  C1113   1.343   .     S
C1045  N1137   1.446   .     S
C1046  C1179   1.343   1_455 S
C1046  H1181   1.086   1_455 S
H1047  C1113   1.086   .     S
C1048  H647    1.088   1_565 S
C1048  C648    1.331   1_565 S
H1051  C648    1.086   1_565 S
N1052  O1054   1.301   .     A
N1052  O1053   1.302   .     A
N1055  H1057   1.046   .     S
N1055  H1056   1.046   .     S
N1058  H1059   1.043   .     S
N1058  H1060   1.046   .     S
N1058  C426    1.435   1_556 S
N1061  O1063   1.301   .     A
N1061  O1062   1.301   .     A
N1064  H1066   1.046   .     S
H1065  N461    1.044   1_556 S
N1067  H1068   1.044   .     S
N1067  H1069   1.044   .     S
N1070  O1071   1.301   .     A
N1070  O1072   1.302   .     A
N1070  C1179   1.446   1_455 S
Zn1073 O1086   1.926   .     S
Zn1073 O1077   1.961   .     S
Zn1073 O1085   1.916   .     S
Zn1073 O1079   1.926   .     S
Zn1074 O1088   1.929   .     S
Zn1074 O1080   1.938   .     S
Zn1074 O1077   1.938   .     S
Zn1074 O1082   1.922   .     S
Zn1075 O1081   1.929   .     S
Zn1075 O1089   1.940   .     S
Zn1075 O1084   1.925   .     S
Zn1075 O1077   1.933   .     S
Zn1076 O1087   1.932   .     S
Zn1076 O1083   1.933   .     S
Zn1076 O1078   1.935   .     S
Zn1076 O1077   1.926   .     S
O1078  C1090   1.263   .     A
O1079  C1091   1.283   .     A
O1080  C1092   1.276   .     A
O1081  C1093   1.268   .     A
O1082  C1094   1.271   .     A
O1083  C1095   1.281   .     A
O1084  C1094   1.279   .     A
O1085  C1095   1.290   .     A
O1086  C1092   1.276   .     A
O1087  C1093   1.269   .     A
O1088  C1090   1.269   .     A
O1089  C1091   1.278   .     A
C1090  C1113   1.439   .     S
C1091  C1112   1.464   .     S
C1092  C1117   1.435   .     S
C1093  C1115   1.450   .     S
C1094  C1097   1.459   .     S
C1095  C1109   1.486   .     S
C1096  C1108   1.406   .     A
C1097  C1107   1.386   .     A
C1097  C1108   1.402   .     A
C1098  C1109   1.421   .     A
C1098  C1099   1.398   .     A
C1098  N1128   1.435   .     S
C1099  C497    1.395   1_556 S
C1099  N528    1.438   1_556 S
C1100  H1111   1.074   .     S
C1101  C1102   1.418   .     A
C1101  C497    1.415   1_556 S
C1101  C500    1.427   1_556 S
C1102  C1106   1.420   .     A
C1102  C1109   1.427   .     A
C1103  C1107   1.410   .     A
C1104  C1105   1.417   .     A
C1104  C500    1.427   1_556 S
C1104  C493    1.431   1_556 S
C1105  C1106   1.405   .     A
C1105  N1122   1.435   .     S
C1106  N1134   1.441   .     S
C1107  H1110   1.076   .     S
C1108  N1119   1.441   .     S
C1112  C1180   1.343   .     S
C1112  N1204   1.446   .     S
H1114  C1180   1.086   .     S
C1115  H714    1.088   1_565 S
C1115  C715    1.331   1_565 S
H1118  C715    1.086   1_565 S
N1119  O1121   1.301   .     A
N1119  O1120   1.302   .     A
N1122  H1124   1.046   .     S
N1122  H1123   1.046   .     S
N1125  H1126   1.043   .     S
N1125  H1127   1.046   .     S
N1125  C493    1.435   1_556 S
N1128  O1130   1.301   .     A
N1128  O1129   1.301   .     A
N1131  H1133   1.046   .     S
H1132  N528    1.044   1_556 S
N1134  H1135   1.044   .     S
N1134  H1136   1.044   .     S
N1137  O1138   1.301   .     A
N1137  O1139   1.302   .     A
Zn1140 O1153   1.926   .     S
Zn1140 O1144   1.961   .     S
Zn1140 O1152   1.916   .     S
Zn1140 O1146   1.926   .     S
Zn1141 O1155   1.929   .     S
Zn1141 O1147   1.938   .     S
Zn1141 O1144   1.938   .     S
Zn1141 O1149   1.922   .     S
Zn1142 O1148   1.929   .     S
Zn1142 O1156   1.940   .     S
Zn1142 O1151   1.925   .     S
Zn1142 O1144   1.933   .     S
Zn1143 O1154   1.932   .     S
Zn1143 O1150   1.933   .     S
Zn1143 O1145   1.935   .     S
Zn1143 O1144   1.926   .     S
O1145  C1157   1.263   .     A
O1146  C1158   1.283   .     A
O1147  C1159   1.276   .     A
O1148  C1160   1.268   .     A
O1149  C1161   1.271   .     A
O1150  C1162   1.281   .     A
O1151  C1161   1.279   .     A
O1152  C1162   1.290   .     A
O1153  C1159   1.276   .     A
O1154  C1160   1.269   .     A
O1155  C1157   1.269   .     A
O1156  C1158   1.278   .     A
C1157  C1180   1.439   .     S
C1158  C1179   1.464   .     S
C1159  C1184   1.435   .     S
C1160  C1182   1.450   .     S
C1161  C1164   1.459   .     S
C1162  C1176   1.486   .     S
C1163  C1175   1.406   .     A
C1164  C1174   1.386   .     A
C1164  C1175   1.402   .     A
C1165  C1176   1.421   .     A
C1165  C1166   1.398   .     A
C1165  N1195   1.435   .     S
C1166  C564    1.395   1_556 S
C1166  N595    1.438   1_556 S
C1167  H1178   1.074   .     S
C1168  C1169   1.418   .     A
C1168  C564    1.415   1_556 S
C1168  C567    1.427   1_556 S
C1169  C1173   1.420   .     A
C1169  C1176   1.427   .     A
C1170  C1174   1.410   .     A
C1171  C1172   1.417   .     A
C1171  C567    1.427   1_556 S
C1171  C560    1.431   1_556 S
C1172  C1173   1.405   .     A
C1172  N1189   1.435   .     S
C1173  N1201   1.441   .     S
C1174  H1177   1.076   .     S
C1175  N1186   1.441   .     S
C1179  C1046   1.343   1_655 S
C1179  N1070   1.446   1_655 S
H1181  C1046   1.086   1_655 S
C1182  H781    1.088   1_565 S
C1182  C782    1.331   1_565 S
H1185  C782    1.086   1_565 S
N1186  O1188   1.301   .     A
N1186  O1187   1.302   .     A
N1189  H1191   1.046   .     S
N1189  H1190   1.046   .     S
N1192  H1193   1.043   .     S
N1192  H1194   1.046   .     S
N1192  C560    1.435   1_556 S
N1195  O1197   1.301   .     A
N1195  O1196   1.301   .     A
N1198  H1200   1.046   .     S
H1199  N595    1.044   1_556 S
N1201  H1202   1.044   .     S
N1201  H1203   1.044   .     S
N1204  O1205   1.301   .     A
N1204  O1206   1.302   .     A
