data_str_m1_o5_o17_pcu_sym.33
_audit_creation_date              2020-01-03
_audit_creation_method            'Materials Studio'
_symmetry_space_group_name_H-M    'P1'
_symmetry_Int_Tables_number       1
_symmetry_cell_setting            triclinic
loop_
_symmetry_equiv_pos_as_xyz
  x,y,z
_cell_length_a                    31.7332
_cell_length_b                    31.7574
_cell_length_c                    34.4804
_cell_angle_alpha                 89.8151
_cell_angle_beta                  90.0202
_cell_angle_gamma                 89.9082
loop_
_atom_site_label
_atom_site_type_symbol
_atom_site_fract_x
_atom_site_fract_y
_atom_site_fract_z
_atom_site_U_iso_or_equiv
_atom_site_adp_type
_atom_site_occupancy
Zn1    Zn    0.20052   0.00000   0.21730   0.00000  Uiso   1.00
Zn2    Zn    0.29947   0.00000   0.78270   0.00000  Uiso   1.00
Zn3    Zn   -0.00000   0.20052   0.21730   0.00000  Uiso   1.00
Zn4    Zn    0.00000   0.29947   0.78270   0.00000  Uiso   1.00
Zn5    Zn    0.29947   0.00000   0.21730   0.00000  Uiso   1.00
Zn6    Zn    0.20052   0.00000   0.78270   0.00000  Uiso   1.00
Zn7    Zn    0.00000   0.29947   0.21730   0.00000  Uiso   1.00
Zn8    Zn    0.00000   0.20052   0.78270   0.00000  Uiso   1.00
Zn9    Zn    0.45052   0.25000   0.71730   0.00000  Uiso   1.00
Zn10   Zn    0.04947   0.25000   0.28270   0.00000  Uiso   1.00
Zn11   Zn    0.25000   0.45052   0.71730   0.00000  Uiso   1.00
Zn12   Zn    0.25000   0.04948   0.28270   0.00000  Uiso   1.00
Zn13   Zn    0.04947   0.25000   0.71730   0.00000  Uiso   1.00
Zn14   Zn    0.45052   0.25000   0.28270   0.00000  Uiso   1.00
Zn15   Zn    0.25000   0.04948   0.71730   0.00000  Uiso   1.00
Zn16   Zn    0.25000   0.45052   0.28270   0.00000  Uiso   1.00
O17    O     0.25000   0.00000   0.25000   0.00000  Uiso   1.00
O18    O     0.25000   0.00000   0.75000   0.00000  Uiso   1.00
O19    O    -0.00000   0.25000   0.25000   0.00000  Uiso   1.00
O20    O    -0.00000   0.25000   0.75000   0.00000  Uiso   1.00
O21    O     0.25000   0.46538   0.33749   0.00000  Uiso   1.00
O22    O     0.25000   0.03462   0.66251   0.00000  Uiso   1.00
O23    O     0.03461   0.25000   0.33749   0.00000  Uiso   1.00
O24    O     0.46538   0.25000   0.66251   0.00000  Uiso   1.00
O25    O     0.25000   0.03462   0.33749   0.00000  Uiso   1.00
O26    O     0.25000   0.46538   0.66251   0.00000  Uiso   1.00
O27    O     0.46538   0.25000   0.33749   0.00000  Uiso   1.00
O28    O     0.03461   0.25000   0.66251   0.00000  Uiso   1.00
O29    O    -0.00000   0.21538   0.83749   0.00000  Uiso   1.00
O30    O     0.00000   0.28461   0.16251   0.00000  Uiso   1.00
O31    O     0.28461   0.00000   0.83749   0.00000  Uiso   1.00
O32    O     0.21538   0.00000   0.16251   0.00000  Uiso   1.00
O33    O     0.00000   0.28461   0.83749   0.00000  Uiso   1.00
O34    O     0.00000   0.21538   0.16251   0.00000  Uiso   1.00
O35    O     0.21538   0.00000   0.83749   0.00000  Uiso   1.00
O36    O     0.28461   0.00000   0.16251   0.00000  Uiso   1.00
O37    O     0.20126   0.08332   0.27298   0.00000  Uiso   1.00
O38    O     0.29873   0.41668   0.72702   0.00000  Uiso   1.00
O39    O     0.41668   0.20126   0.27298   0.00000  Uiso   1.00
O40    O     0.08332   0.29873   0.72702   0.00000  Uiso   1.00
O41    O     0.29873   0.41668   0.27298   0.00000  Uiso   1.00
O42    O     0.20126   0.08332   0.72702   0.00000  Uiso   1.00
O43    O     0.08332   0.29873   0.27298   0.00000  Uiso   1.00
O44    O     0.41668   0.20126   0.72702   0.00000  Uiso   1.00
O45    O     0.20126   0.41668   0.72702   0.00000  Uiso   1.00
O46    O     0.29873   0.08332   0.27298   0.00000  Uiso   1.00
O47    O     0.41668   0.29873   0.72702   0.00000  Uiso   1.00
O48    O     0.08332   0.20126   0.27298   0.00000  Uiso   1.00
O49    O     0.29873   0.08332   0.72702   0.00000  Uiso   1.00
O50    O     0.20126   0.41668   0.27298   0.00000  Uiso   1.00
O51    O     0.08332   0.20126   0.72702   0.00000  Uiso   1.00
O52    O     0.41668   0.29873   0.27298   0.00000  Uiso   1.00
O53    O     0.45126   0.33332   0.77298   0.00000  Uiso   1.00
O54    O     0.04873   0.16668   0.22702   0.00000  Uiso   1.00
O55    O     0.16668   0.45126   0.77298   0.00000  Uiso   1.00
O56    O     0.33332   0.04874   0.22702   0.00000  Uiso   1.00
O57    O     0.04873   0.16668   0.77298   0.00000  Uiso   1.00
O58    O     0.45126   0.33332   0.22702   0.00000  Uiso   1.00
O59    O     0.33332   0.04874   0.77298   0.00000  Uiso   1.00
O60    O     0.16668   0.45126   0.22702   0.00000  Uiso   1.00
O61    O     0.45126   0.16668   0.22702   0.00000  Uiso   1.00
O62    O     0.04873   0.33332   0.77298   0.00000  Uiso   1.00
O63    O     0.16668   0.04874   0.22702   0.00000  Uiso   1.00
O64    O     0.33332   0.45126   0.77298   0.00000  Uiso   1.00
O65    O     0.04873   0.33332   0.22702   0.00000  Uiso   1.00
O66    O     0.45126   0.16668   0.77298   0.00000  Uiso   1.00
O67    O     0.33332   0.45126   0.22702   0.00000  Uiso   1.00
O68    O     0.16668   0.04874   0.77298   0.00000  Uiso   1.00
C69    C     0.25001   0.49994   0.35595   0.00000  Uiso   1.00
C70    C     0.24999   0.00006   0.64405   0.00000  Uiso   1.00
C71    C     0.00001   0.25000   0.35598   0.00000  Uiso   1.00
C72    C     0.49999   0.25000   0.64402   0.00000  Uiso   1.00
C73    C     0.49977   0.24958   0.85623   0.00000  Uiso   1.00
C74    C     0.00011   0.25019   0.14411   0.00000  Uiso   1.00
C75    C     0.25003   0.00023   0.85605   0.00000  Uiso   1.00
C76    C     0.25000   0.00012   0.14398   0.00000  Uiso   1.00
C77    C     0.16998   0.08000   0.24997   0.00000  Uiso   1.00
C78    C     0.33002   0.42000   0.75003   0.00000  Uiso   1.00
C79    C     0.41997   0.16999   0.25002   0.00000  Uiso   1.00
C80    C     0.08001   0.33002   0.74996   0.00000  Uiso   1.00
C81    C     0.33000   0.41996   0.25000   0.00000  Uiso   1.00
C82    C     0.16999   0.08003   0.74999   0.00000  Uiso   1.00
C83    C     0.08004   0.33003   0.24998   0.00000  Uiso   1.00
C84    C     0.41998   0.16996   0.75000   0.00000  Uiso   1.00
C85    C     0.16995   0.42002   0.74998   0.00000  Uiso   1.00
C86    C     0.33005   0.07999   0.25001   0.00000  Uiso   1.00
C87    C     0.41997   0.32999   0.74999   0.00000  Uiso   1.00
C88    C     0.08003   0.17001   0.25002   0.00000  Uiso   1.00
C89    C     0.33004   0.08002   0.74997   0.00000  Uiso   1.00
C90    C     0.16996   0.41997   0.25002   0.00000  Uiso   1.00
C91    C     0.08000   0.16995   0.74999   0.00000  Uiso   1.00
C92    C     0.41999   0.33003   0.24999   0.00000  Uiso   1.00
C93    C     0.13833   0.38832   0.25002   0.00000  Uiso   1.00
C94    C     0.36168   0.11166   0.74996   0.00000  Uiso   1.00
C95    C     0.11169   0.13837   0.25001   0.00000  Uiso   1.00
C96    C     0.38831   0.36163   0.75000   0.00000  Uiso   1.00
C97    C     0.36170   0.11163   0.25001   0.00000  Uiso   1.00
C98    C     0.13828   0.38839   0.74997   0.00000  Uiso   1.00
C99    C     0.38834   0.36167   0.24997   0.00000  Uiso   1.00
C100   C     0.11163   0.13830   0.75000   0.00000  Uiso   1.00
C101   C     0.13834   0.11166   0.74998   0.00000  Uiso   1.00
C102   C     0.36164   0.38832   0.24999   0.00000  Uiso   1.00
C103   C     0.11165   0.36169   0.74993   0.00000  Uiso   1.00
C104   C     0.38833   0.13833   0.25004   0.00000  Uiso   1.00
C105   C     0.36167   0.38835   0.75005   0.00000  Uiso   1.00
C106   C     0.13833   0.11165   0.24995   0.00000  Uiso   1.00
C107   C     0.38835   0.13830   0.74999   0.00000  Uiso   1.00
C108   C     0.11167   0.36167   0.24998   0.00000  Uiso   1.00
C109   C     0.47273   0.27750   0.41886   0.00000  Uiso   1.00
C110   C     0.02727   0.22250   0.58114   0.00000  Uiso   1.00
C111   C     0.21854   0.47751   0.41890   0.00000  Uiso   1.00
C112   C     0.28146   0.02249   0.58110   0.00000  Uiso   1.00
C113   C     0.02731   0.22253   0.41904   0.00000  Uiso   1.00
C114   C     0.47269   0.27747   0.58096   0.00000  Uiso   1.00
C115   C     0.28161   0.02215   0.41877   0.00000  Uiso   1.00
C116   C     0.21839   0.47785   0.58123   0.00000  Uiso   1.00
C117   C     0.21765   0.02261   0.91894   0.00000  Uiso   1.00
C118   C     0.28271   0.48042   0.08064   0.00000  Uiso   1.00
C119   C     0.47209   0.27722   0.91925   0.00000  Uiso   1.00
C120   C     0.03757   0.23416   0.08249   0.00000  Uiso   1.00
C121   C     0.28343   0.48152   0.91961   0.00000  Uiso   1.00
C122   C     0.21797   0.02310   0.08103   0.00000  Uiso   1.00
C123   C     0.01902   0.21625   0.92034   0.00000  Uiso   1.00
C124   C     0.47063   0.27291   0.08070   0.00000  Uiso   1.00
C125   C     0.00002   0.25001   0.39849   0.00000  Uiso   1.00
C126   C     0.49998   0.24999   0.60151   0.00000  Uiso   1.00
C127   C     0.25007   0.49983   0.39845   0.00000  Uiso   1.00
C128   C     0.24993   0.00017   0.60155   0.00000  Uiso   1.00
C129   C     0.25024   0.00127   0.89864   0.00000  Uiso   1.00
C130   C     0.25010   0.00104   0.10145   0.00000  Uiso   1.00
C131   C     0.49772   0.24820   0.89914   0.00000  Uiso   1.00
C132   C     0.00213   0.25122   0.10174   0.00000  Uiso   1.00
C133   C     0.03251   0.22912   0.45932   0.00000  Uiso   1.00
C134   C     0.46749   0.27088   0.54067   0.00000  Uiso   1.00
C135   C     0.27612   0.02837   0.45910   0.00000  Uiso   1.00
C136   C     0.22388   0.47163   0.54090   0.00000  Uiso   1.00
C137   C     0.46751   0.27090   0.45917   0.00000  Uiso   1.00
C138   C     0.03249   0.22910   0.54082   0.00000  Uiso   1.00
C139   C     0.22398   0.47144   0.45931   0.00000  Uiso   1.00
C140   C     0.27602   0.02856   0.54069   0.00000  Uiso   1.00
C141   C     0.28697   0.49022   0.95959   0.00000  Uiso   1.00
C142   C     0.21420   0.01593   0.04075   0.00000  Uiso   1.00
C143   C     0.02859   0.22350   0.95982   0.00000  Uiso   1.00
C144   C     0.47811   0.28134   0.04102   0.00000  Uiso   1.00
C145   C     0.21411   0.01552   0.95929   0.00000  Uiso   1.00
C146   C     0.28666   0.48942   0.04071   0.00000  Uiso   1.00
C147   C     0.47858   0.28272   0.95968   0.00000  Uiso   1.00
C148   C     0.03496   0.22874   0.04162   0.00000  Uiso   1.00
C149   C     0.00000   0.25000   0.47964   0.00000  Uiso   1.00
C150   C     0.49999   0.25000   0.52036   0.00000  Uiso   1.00
C151   C     0.25002   0.49995   0.47962   0.00000  Uiso   1.00
C152   C     0.24998   0.00005   0.52038   0.00000  Uiso   1.00
C153   C     0.25048   0.00288   0.97977   0.00000  Uiso   1.00
C154   C     0.25043   0.00279   0.02039   0.00000  Uiso   1.00
C155   C     0.00507   0.25412   0.98001   0.00000  Uiso   1.00
C156   C     0.00648   0.25498   0.02084   0.00000  Uiso   1.00
C157   C     0.06933   0.21662   0.47967   0.00000  Uiso   1.00
C158   C     0.43067   0.28338   0.52033   0.00000  Uiso   1.00
C159   C     0.29465   0.06250   0.47928   0.00000  Uiso   1.00
C160   C     0.20535   0.43750   0.52071   0.00000  Uiso   1.00
C161   C     0.43068   0.28339   0.47941   0.00000  Uiso   1.00
C162   C     0.06932   0.21661   0.52059   0.00000  Uiso   1.00
C163   C     0.20541   0.43739   0.47977   0.00000  Uiso   1.00
C164   C     0.29459   0.06261   0.52023   0.00000  Uiso   1.00
C165   C     0.32573   0.48731   0.97984   0.00000  Uiso   1.00
C166   C     0.17557   0.02053   0.02045   0.00000  Uiso   1.00
C167   C     0.05956   0.19966   0.97995   0.00000  Uiso   1.00
C168   C     0.45939   0.31570   0.02112   0.00000  Uiso   1.00
C169   C     0.17548   0.01986   0.97955   0.00000  Uiso   1.00
C170   C     0.32554   0.48639   0.02070   0.00000  Uiso   1.00
C171   C     0.46125   0.31726   0.98029   0.00000  Uiso   1.00
C172   C     0.06047   0.19976   0.02078   0.00000  Uiso   1.00
C173   C     0.45299   0.31582   0.39876   0.00000  Uiso   1.00
C174   C     0.48649   0.34643   0.38305   0.00000  Uiso   1.00
C175   C     0.46603   0.38488   0.36406   0.00000  Uiso   1.00
H176   H     0.44596   0.37505   0.33929   0.00000  Uiso   1.00
H177   H     0.44644   0.40223   0.38542   0.00000  Uiso   1.00
H178   H     0.49089   0.40639   0.35305   0.00000  Uiso   1.00
H179   H     0.00688   0.35710   0.40733   0.00000  Uiso   1.00
H180   H     0.00687   0.33109   0.36116   0.00000  Uiso   1.00
H181   H     0.43135   0.30572   0.37530   0.00000  Uiso   1.00
H182   H     0.43407   0.33465   0.41930   0.00000  Uiso   1.00
C183   C     0.04700   0.18417   0.60124   0.00000  Uiso   1.00
C184   C     0.01351   0.15356   0.61694   0.00000  Uiso   1.00
C185   C     0.03396   0.11511   0.63593   0.00000  Uiso   1.00
H186   H     0.05354   0.09776   0.61457   0.00000  Uiso   1.00
H187   H     0.05403   0.12494   0.66070   0.00000  Uiso   1.00
H188   H     0.00909   0.09361   0.64693   0.00000  Uiso   1.00
H189   H     0.49312   0.16891   0.63883   0.00000  Uiso   1.00
H190   H     0.49311   0.14290   0.59266   0.00000  Uiso   1.00
H191   H     0.06592   0.16535   0.58070   0.00000  Uiso   1.00
H192   H     0.06864   0.19427   0.62470   0.00000  Uiso   1.00
C193   C     0.17770   0.46472   0.39852   0.00000  Uiso   1.00
C194   C     0.15247   0.00337   0.38468   0.00000  Uiso   1.00
C195   C     0.11162   0.49028   0.36469   0.00000  Uiso   1.00
H196   H     0.11865   0.47070   0.33884   0.00000  Uiso   1.00
H197   H     0.09137   0.47213   0.38500   0.00000  Uiso   1.00
H198   H     0.09411   0.01880   0.35514   0.00000  Uiso   1.00
H199   H     0.14465   0.02349   0.41002   0.00000  Uiso   1.00
H200   H     0.17093   0.02262   0.36393   0.00000  Uiso   1.00
H201   H     0.18465   0.44337   0.37390   0.00000  Uiso   1.00
H202   H     0.15631   0.44763   0.41829   0.00000  Uiso   1.00
C203   C     0.32230   0.03528   0.60148   0.00000  Uiso   1.00
C204   C     0.34753   0.49663   0.61532   0.00000  Uiso   1.00
C205   C     0.38838   0.00972   0.63531   0.00000  Uiso   1.00
H206   H     0.40863   0.02787   0.61501   0.00000  Uiso   1.00
H207   H     0.38135   0.02930   0.66116   0.00000  Uiso   1.00
H208   H     0.40589   0.48121   0.64487   0.00000  Uiso   1.00
H209   H     0.32907   0.47738   0.63607   0.00000  Uiso   1.00
H210   H     0.35535   0.47651   0.58998   0.00000  Uiso   1.00
H211   H     0.34369   0.05237   0.58171   0.00000  Uiso   1.00
H212   H     0.31535   0.05663   0.62610   0.00000  Uiso   1.00
C213   C     0.04705   0.18420   0.39918   0.00000  Uiso   1.00
C214   C     0.01356   0.15358   0.38365   0.00000  Uiso   1.00
C215   C     0.03402   0.11516   0.36487   0.00000  Uiso   1.00
H216   H     0.05405   0.12501   0.34004   0.00000  Uiso   1.00
H217   H     0.05364   0.09781   0.38632   0.00000  Uiso   1.00
H218   H     0.00916   0.09364   0.35399   0.00000  Uiso   1.00
H219   H     0.49319   0.14289   0.40800   0.00000  Uiso   1.00
H220   H     0.49314   0.16892   0.36168   0.00000  Uiso   1.00
H221   H     0.06868   0.19431   0.37567   0.00000  Uiso   1.00
H222   H     0.06598   0.16539   0.41984   0.00000  Uiso   1.00
C223   C     0.45295   0.31580   0.60082   0.00000  Uiso   1.00
C224   C     0.48644   0.34642   0.61635   0.00000  Uiso   1.00
C225   C     0.46598   0.38484   0.63513   0.00000  Uiso   1.00
H226   H     0.44636   0.40219   0.61368   0.00000  Uiso   1.00
H227   H     0.44595   0.37499   0.65997   0.00000  Uiso   1.00
H228   H     0.49084   0.40636   0.64601   0.00000  Uiso   1.00
H229   H     0.00686   0.33107   0.63831   0.00000  Uiso   1.00
H230   H     0.00680   0.35711   0.59200   0.00000  Uiso   1.00
H231   H     0.43402   0.33461   0.58016   0.00000  Uiso   1.00
H232   H     0.43132   0.30569   0.62433   0.00000  Uiso   1.00
C233   C     0.32248   0.03485   0.39834   0.00000  Uiso   1.00
C234   C     0.34759   0.49616   0.38468   0.00000  Uiso   1.00
C235   C     0.38848   0.00916   0.36466   0.00000  Uiso   1.00
H236   H     0.38151   0.02884   0.33873   0.00000  Uiso   1.00
H237   H     0.40879   0.02720   0.38491   0.00000  Uiso   1.00
H238   H     0.40590   0.48062   0.35522   0.00000  Uiso   1.00
H239   H     0.35535   0.47596   0.41011   0.00000  Uiso   1.00
H240   H     0.32907   0.47701   0.36399   0.00000  Uiso   1.00
H241   H     0.31559   0.05626   0.37363   0.00000  Uiso   1.00
H242   H     0.34392   0.05184   0.41805   0.00000  Uiso   1.00
C243   C     0.17752   0.46515   0.60166   0.00000  Uiso   1.00
C244   C     0.15241   0.00384   0.61532   0.00000  Uiso   1.00
C245   C     0.11152   0.49084   0.63534   0.00000  Uiso   1.00
H246   H     0.09121   0.47280   0.61510   0.00000  Uiso   1.00
H247   H     0.11849   0.47117   0.66127   0.00000  Uiso   1.00
H248   H     0.09410   0.01938   0.64478   0.00000  Uiso   1.00
H249   H     0.17093   0.02299   0.63601   0.00000  Uiso   1.00
H250   H     0.14465   0.02404   0.58989   0.00000  Uiso   1.00
H251   H     0.15608   0.44816   0.58195   0.00000  Uiso   1.00
H252   H     0.18441   0.44374   0.62637   0.00000  Uiso   1.00
C253   C     0.19006   0.05605   0.89920   0.00000  Uiso   1.00
C254   C     0.21620   0.09229   0.88190   0.00000  Uiso   1.00
C255   C     0.18776   0.12607   0.86416   0.00000  Uiso   1.00
H256   H     0.16825   0.11243   0.84059   0.00000  Uiso   1.00
H257   H     0.16676   0.13971   0.88663   0.00000  Uiso   1.00
H258   H     0.20740   0.15170   0.85176   0.00000  Uiso   1.00
H259   H     0.23565   0.10678   0.90511   0.00000  Uiso   1.00
H260   H     0.23774   0.08088   0.85892   0.00000  Uiso   1.00
H261   H     0.16945   0.04163   0.87694   0.00000  Uiso   1.00
H262   H     0.16883   0.07126   0.92044   0.00000  Uiso   1.00
C263   C     0.31022   0.44615   0.09925   0.00000  Uiso   1.00
C264   C     0.28408   0.40911   0.11505   0.00000  Uiso   1.00
C265   C     0.31252   0.37442   0.13130   0.00000  Uiso   1.00
H266   H     0.33359   0.36197   0.10828   0.00000  Uiso   1.00
H267   H     0.33197   0.38680   0.15550   0.00000  Uiso   1.00
H268   H     0.29288   0.34815   0.14249   0.00000  Uiso   1.00
H269   H     0.26262   0.41944   0.13852   0.00000  Uiso   1.00
H270   H     0.26457   0.39582   0.09127   0.00000  Uiso   1.00
H271   H     0.33158   0.43198   0.07751   0.00000  Uiso   1.00
H272   H     0.33070   0.45956   0.12213   0.00000  Uiso   1.00
C273   C     0.43226   0.29409   0.89924   0.00000  Uiso   1.00
C274   C     0.40370   0.25813   0.88486   0.00000  Uiso   1.00
C275   C     0.36164   0.27476   0.86978   0.00000  Uiso   1.00
H276   H     0.34365   0.28978   0.89365   0.00000  Uiso   1.00
H277   H     0.36688   0.29796   0.84609   0.00000  Uiso   1.00
H278   H     0.34269   0.24825   0.85821   0.00000  Uiso   1.00
H279   H     0.41890   0.24054   0.86095   0.00000  Uiso   1.00
H280   H     0.39758   0.23573   0.90906   0.00000  Uiso   1.00
H281   H     0.41240   0.31237   0.91935   0.00000  Uiso   1.00
H282   H     0.44070   0.31544   0.87493   0.00000  Uiso   1.00
C283   C     0.07865   0.22784   0.10520   0.00000  Uiso   1.00
C284   C     0.09717   0.26995   0.11905   0.00000  Uiso   1.00
C285   C     0.13671   0.26296   0.14352   0.00000  Uiso   1.00
H286   H     0.12901   0.24410   0.16977   0.00000  Uiso   1.00
H287   H     0.16121   0.24628   0.12641   0.00000  Uiso   1.00
H288   H     0.14953   0.29383   0.15286   0.00000  Uiso   1.00
H289   H     0.10543   0.28959   0.09340   0.00000  Uiso   1.00
H290   H     0.07430   0.28792   0.13669   0.00000  Uiso   1.00
H291   H     0.07327   0.20624   0.13009   0.00000  Uiso   1.00
H292   H     0.10392   0.21396   0.08761   0.00000  Uiso   1.00
C293   C     0.31225   0.44849   0.90104   0.00000  Uiso   1.00
C294   C     0.28758   0.41064   0.88514   0.00000  Uiso   1.00
C295   C     0.31727   0.37878   0.86644   0.00000  Uiso   1.00
H296   H     0.33374   0.39326   0.84131   0.00000  Uiso   1.00
H297   H     0.34104   0.36769   0.88782   0.00000  Uiso   1.00
H298   H     0.29892   0.35131   0.85602   0.00000  Uiso   1.00
H299   H     0.27039   0.39504   0.90931   0.00000  Uiso   1.00
H300   H     0.26411   0.42041   0.86308   0.00000  Uiso   1.00
H301   H     0.33234   0.46294   0.87833   0.00000  Uiso   1.00
H302   H     0.33414   0.43485   0.92271   0.00000  Uiso   1.00
C303   C     0.19122   0.05722   0.10055   0.00000  Uiso   1.00
C304   C     0.21819   0.09288   0.11761   0.00000  Uiso   1.00
C305   C     0.19053   0.12764   0.13464   0.00000  Uiso   1.00
H306   H     0.17014   0.14171   0.11181   0.00000  Uiso   1.00
H307   H     0.17041   0.11476   0.15821   0.00000  Uiso   1.00
H308   H     0.21076   0.15281   0.14688   0.00000  Uiso   1.00
H309   H     0.23915   0.08106   0.14094   0.00000  Uiso   1.00
H310   H     0.23826   0.10662   0.09438   0.00000  Uiso   1.00
H311   H     0.17041   0.07290   0.07917   0.00000  Uiso   1.00
H312   H     0.17032   0.04331   0.12294   0.00000  Uiso   1.00
C313   C     0.02056   0.17115   0.90453   0.00000  Uiso   1.00
C314   C     0.47615   0.15239   0.89879   0.00000  Uiso   1.00
C315   C     0.45306   0.14599   0.93728   0.00000  Uiso   1.00
H316   H     0.47191   0.12573   0.95709   0.00000  Uiso   1.00
H317   H     0.44698   0.17676   0.95146   0.00000  Uiso   1.00
H318   H     0.42231   0.13044   0.93186   0.00000  Uiso   1.00
H319   H     0.45630   0.17246   0.87982   0.00000  Uiso   1.00
H320   H     0.47939   0.12132   0.88434   0.00000  Uiso   1.00
H321   H     0.03930   0.16973   0.87744   0.00000  Uiso   1.00
H322   H     0.03630   0.14879   0.92426   0.00000  Uiso   1.00
C323   C     0.42853   0.28396   0.09978   0.00000  Uiso   1.00
C324   C     0.40401   0.24444   0.11225   0.00000  Uiso   1.00
C325   C     0.36178   0.25620   0.13050   0.00000  Uiso   1.00
H326   H     0.36681   0.27606   0.15656   0.00000  Uiso   1.00
H327   H     0.34188   0.27366   0.10934   0.00000  Uiso   1.00
H328   H     0.34486   0.22715   0.13940   0.00000  Uiso   1.00
H329   H     0.39817   0.22432   0.08647   0.00000  Uiso   1.00
H330   H     0.42205   0.22562   0.13369   0.00000  Uiso   1.00
H331   H     0.43373   0.30508   0.12493   0.00000  Uiso   1.00
H332   H     0.40740   0.30066   0.07945   0.00000  Uiso   1.00
N333   N     0.10859   0.21217   0.45920   0.00000  Uiso   1.00
O334   O     0.12022   0.24093   0.43448   0.00000  Uiso   1.00
O335   O     0.13070   0.17779   0.46224   0.00000  Uiso   1.00
N336   N     0.39141   0.28783   0.54080   0.00000  Uiso   1.00
O337   O     0.36930   0.32222   0.53776   0.00000  Uiso   1.00
O338   O     0.37978   0.25907   0.56552   0.00000  Uiso   1.00
N339   N     0.30553   0.10042   0.45866   0.00000  Uiso   1.00
O340   O     0.27908   0.11669   0.43393   0.00000  Uiso   1.00
O341   O     0.34311   0.11642   0.46153   0.00000  Uiso   1.00
N342   N     0.19447   0.39958   0.54134   0.00000  Uiso   1.00
O343   O     0.15689   0.38358   0.53847   0.00000  Uiso   1.00
O344   O     0.22092   0.38331   0.56607   0.00000  Uiso   1.00
N345   N     0.39143   0.28786   0.45888   0.00000  Uiso   1.00
O346   O     0.37980   0.25910   0.43431   0.00000  Uiso   1.00
O347   O     0.36933   0.32224   0.46168   0.00000  Uiso   1.00
N348   N     0.10857   0.21214   0.54112   0.00000  Uiso   1.00
O349   O     0.13067   0.17775   0.53831   0.00000  Uiso   1.00
O350   O     0.12020   0.24090   0.56569   0.00000  Uiso   1.00
N351   N     0.19463   0.39936   0.45950   0.00000  Uiso   1.00
O352   O     0.22113   0.38305   0.43495   0.00000  Uiso   1.00
O353   O     0.15709   0.38328   0.46249   0.00000  Uiso   1.00
N354   N     0.30537   0.10064   0.54050   0.00000  Uiso   1.00
O355   O     0.34291   0.11672   0.53751   0.00000  Uiso   1.00
O356   O     0.27887   0.11695   0.56505   0.00000  Uiso   1.00
N357   N     0.36474   0.49354   0.95932   0.00000  Uiso   1.00
O358   O     0.39564   0.46688   0.96291   0.00000  Uiso   1.00
O359   O     0.36798   0.02398   0.93414   0.00000  Uiso   1.00
N360   N     0.13625   0.01782   0.04106   0.00000  Uiso   1.00
O361   O     0.13010   0.48743   0.06581   0.00000  Uiso   1.00
O362   O     0.10841   0.04779   0.03824   0.00000  Uiso   1.00
N363   N     0.09277   0.17878   0.95895   0.00000  Uiso   1.00
O364   O     0.11222   0.19849   0.93109   0.00000  Uiso   1.00
O365   O     0.10110   0.13916   0.96503   0.00000  Uiso   1.00
N366   N     0.44634   0.35244   0.04228   0.00000  Uiso   1.00
O367   O     0.40798   0.36659   0.03915   0.00000  Uiso   1.00
O368   O     0.47121   0.36867   0.06824   0.00000  Uiso   1.00
N369   N     0.13621   0.01535   0.95909   0.00000  Uiso   1.00
O370   O     0.10674   0.04364   0.96217   0.00000  Uiso   1.00
O371   O     0.13132   0.48464   0.93460   0.00000  Uiso   1.00
N372   N     0.36453   0.49048   0.04166   0.00000  Uiso   1.00
O373   O     0.36892   0.02039   0.06704   0.00000  Uiso   1.00
O374   O     0.39380   0.46195   0.03869   0.00000  Uiso   1.00
N375   N     0.45335   0.35654   0.96057   0.00000  Uiso   1.00
O376   O     0.48084   0.37114   0.93600   0.00000  Uiso   1.00
O377   O     0.41734   0.37574   0.96418   0.00000  Uiso   1.00
N378   N     0.08278   0.16655   0.04043   0.00000  Uiso   1.00
O379   O     0.06285   0.14190   0.06439   0.00000  Uiso   1.00
O380   O     0.12336   0.16239   0.03633   0.00000  Uiso   1.00
Zn381  Zn    0.70052   0.00000   0.21730   0.00000  Uiso   1.00
Zn382  Zn    0.79947   0.00000   0.78270   0.00000  Uiso   1.00
Zn383  Zn    0.50000   0.20052   0.21730   0.00000  Uiso   1.00
Zn384  Zn    0.50000   0.29947   0.78270   0.00000  Uiso   1.00
Zn385  Zn    0.79947   0.00000   0.21730   0.00000  Uiso   1.00
Zn386  Zn    0.70052   0.00000   0.78270   0.00000  Uiso   1.00
Zn387  Zn    0.50000   0.29947   0.21730   0.00000  Uiso   1.00
Zn388  Zn    0.50000   0.20052   0.78270   0.00000  Uiso   1.00
Zn389  Zn    0.95052   0.25000   0.71730   0.00000  Uiso   1.00
Zn390  Zn    0.54947   0.25000   0.28270   0.00000  Uiso   1.00
Zn391  Zn    0.75000   0.45052   0.71730   0.00000  Uiso   1.00
Zn392  Zn    0.75000   0.04948   0.28270   0.00000  Uiso   1.00
Zn393  Zn    0.54947   0.25000   0.71730   0.00000  Uiso   1.00
Zn394  Zn    0.95052   0.25000   0.28270   0.00000  Uiso   1.00
Zn395  Zn    0.75000   0.04948   0.71730   0.00000  Uiso   1.00
Zn396  Zn    0.75000   0.45052   0.28270   0.00000  Uiso   1.00
O397   O     0.75000   0.00000   0.25000   0.00000  Uiso   1.00
O398   O     0.75000   0.00000   0.75000   0.00000  Uiso   1.00
O399   O     0.50000   0.25000   0.25000   0.00000  Uiso   1.00
O400   O     0.50000   0.25000   0.75000   0.00000  Uiso   1.00
O401   O     0.75000   0.46538   0.33749   0.00000  Uiso   1.00
O402   O     0.75000   0.03462   0.66251   0.00000  Uiso   1.00
O403   O     0.53461   0.25000   0.33749   0.00000  Uiso   1.00
O404   O     0.96538   0.25000   0.66251   0.00000  Uiso   1.00
O405   O     0.75000   0.03462   0.33749   0.00000  Uiso   1.00
O406   O     0.75000   0.46538   0.66251   0.00000  Uiso   1.00
O407   O     0.96538   0.25000   0.33749   0.00000  Uiso   1.00
O408   O     0.53461   0.25000   0.66251   0.00000  Uiso   1.00
O409   O     0.50000   0.21538   0.83749   0.00000  Uiso   1.00
O410   O     0.50000   0.28461   0.16251   0.00000  Uiso   1.00
O411   O     0.78461   0.00000   0.83749   0.00000  Uiso   1.00
O412   O     0.71538   0.00000   0.16251   0.00000  Uiso   1.00
O413   O     0.50000   0.28461   0.83749   0.00000  Uiso   1.00
O414   O     0.50000   0.21538   0.16251   0.00000  Uiso   1.00
O415   O     0.71538   0.00000   0.83749   0.00000  Uiso   1.00
O416   O     0.78461   0.00000   0.16251   0.00000  Uiso   1.00
O417   O     0.70126   0.08332   0.27298   0.00000  Uiso   1.00
O418   O     0.79873   0.41668   0.72702   0.00000  Uiso   1.00
O419   O     0.91668   0.20126   0.27298   0.00000  Uiso   1.00
O420   O     0.58332   0.29873   0.72702   0.00000  Uiso   1.00
O421   O     0.79873   0.41668   0.27298   0.00000  Uiso   1.00
O422   O     0.70126   0.08332   0.72702   0.00000  Uiso   1.00
O423   O     0.58332   0.29873   0.27298   0.00000  Uiso   1.00
O424   O     0.91668   0.20126   0.72702   0.00000  Uiso   1.00
O425   O     0.70126   0.41668   0.72702   0.00000  Uiso   1.00
O426   O     0.79873   0.08332   0.27298   0.00000  Uiso   1.00
O427   O     0.91668   0.29873   0.72702   0.00000  Uiso   1.00
O428   O     0.58332   0.20126   0.27298   0.00000  Uiso   1.00
O429   O     0.79873   0.08332   0.72702   0.00000  Uiso   1.00
O430   O     0.70126   0.41668   0.27298   0.00000  Uiso   1.00
O431   O     0.58332   0.20126   0.72702   0.00000  Uiso   1.00
O432   O     0.91668   0.29873   0.27298   0.00000  Uiso   1.00
O433   O     0.95126   0.33332   0.77298   0.00000  Uiso   1.00
O434   O     0.54873   0.16668   0.22702   0.00000  Uiso   1.00
O435   O     0.66668   0.45126   0.77298   0.00000  Uiso   1.00
O436   O     0.83332   0.04874   0.22702   0.00000  Uiso   1.00
O437   O     0.54873   0.16668   0.77298   0.00000  Uiso   1.00
O438   O     0.95126   0.33332   0.22702   0.00000  Uiso   1.00
O439   O     0.83332   0.04874   0.77298   0.00000  Uiso   1.00
O440   O     0.66668   0.45126   0.22702   0.00000  Uiso   1.00
O441   O     0.95126   0.16668   0.22702   0.00000  Uiso   1.00
O442   O     0.54873   0.33332   0.77298   0.00000  Uiso   1.00
O443   O     0.66668   0.04874   0.22702   0.00000  Uiso   1.00
O444   O     0.83332   0.45126   0.77298   0.00000  Uiso   1.00
O445   O     0.54873   0.33332   0.22702   0.00000  Uiso   1.00
O446   O     0.95126   0.16668   0.77298   0.00000  Uiso   1.00
O447   O     0.83332   0.45126   0.22702   0.00000  Uiso   1.00
O448   O     0.66668   0.04874   0.77298   0.00000  Uiso   1.00
C449   C     0.75001   0.49994   0.35595   0.00000  Uiso   1.00
C450   C     0.74999   0.00006   0.64405   0.00000  Uiso   1.00
C451   C     0.50001   0.25000   0.35598   0.00000  Uiso   1.00
C452   C     0.99999   0.25000   0.64402   0.00000  Uiso   1.00
C453   C     0.99977   0.24958   0.85623   0.00000  Uiso   1.00
C454   C     0.50011   0.25019   0.14411   0.00000  Uiso   1.00
C455   C     0.75003   0.00023   0.85605   0.00000  Uiso   1.00
C456   C     0.75000   0.00012   0.14398   0.00000  Uiso   1.00
C457   C     0.66998   0.08000   0.24997   0.00000  Uiso   1.00
C458   C     0.83002   0.42000   0.75003   0.00000  Uiso   1.00
C459   C     0.91997   0.16999   0.25002   0.00000  Uiso   1.00
C460   C     0.58001   0.33002   0.74996   0.00000  Uiso   1.00
C461   C     0.83000   0.41996   0.25000   0.00000  Uiso   1.00
C462   C     0.66999   0.08003   0.74999   0.00000  Uiso   1.00
C463   C     0.58004   0.33003   0.24998   0.00000  Uiso   1.00
C464   C     0.91998   0.16996   0.75000   0.00000  Uiso   1.00
C465   C     0.66995   0.42002   0.74998   0.00000  Uiso   1.00
C466   C     0.83005   0.07999   0.25001   0.00000  Uiso   1.00
C467   C     0.91997   0.32999   0.74999   0.00000  Uiso   1.00
C468   C     0.58003   0.17001   0.25002   0.00000  Uiso   1.00
C469   C     0.83004   0.08002   0.74997   0.00000  Uiso   1.00
C470   C     0.66996   0.41997   0.25002   0.00000  Uiso   1.00
C471   C     0.58000   0.16995   0.74999   0.00000  Uiso   1.00
C472   C     0.91999   0.33003   0.24999   0.00000  Uiso   1.00
C473   C     0.63833   0.38832   0.25002   0.00000  Uiso   1.00
C474   C     0.86168   0.11166   0.74996   0.00000  Uiso   1.00
C475   C     0.61169   0.13837   0.25001   0.00000  Uiso   1.00
C476   C     0.88831   0.36163   0.75000   0.00000  Uiso   1.00
C477   C     0.86170   0.11163   0.25001   0.00000  Uiso   1.00
C478   C     0.63828   0.38839   0.74997   0.00000  Uiso   1.00
C479   C     0.88834   0.36167   0.24997   0.00000  Uiso   1.00
C480   C     0.61163   0.13830   0.75000   0.00000  Uiso   1.00
C481   C     0.63834   0.11166   0.74998   0.00000  Uiso   1.00
C482   C     0.86164   0.38832   0.24999   0.00000  Uiso   1.00
C483   C     0.61165   0.36169   0.74993   0.00000  Uiso   1.00
C484   C     0.88833   0.13833   0.25004   0.00000  Uiso   1.00
C485   C     0.86167   0.38835   0.75005   0.00000  Uiso   1.00
C486   C     0.63833   0.11165   0.24995   0.00000  Uiso   1.00
C487   C     0.88835   0.13830   0.74999   0.00000  Uiso   1.00
C488   C     0.61167   0.36167   0.24998   0.00000  Uiso   1.00
C489   C     0.97273   0.27750   0.41886   0.00000  Uiso   1.00
C490   C     0.52727   0.22250   0.58114   0.00000  Uiso   1.00
C491   C     0.71854   0.47751   0.41890   0.00000  Uiso   1.00
C492   C     0.78146   0.02249   0.58110   0.00000  Uiso   1.00
C493   C     0.52731   0.22253   0.41904   0.00000  Uiso   1.00
C494   C     0.97269   0.27747   0.58096   0.00000  Uiso   1.00
C495   C     0.78161   0.02215   0.41877   0.00000  Uiso   1.00
C496   C     0.71839   0.47785   0.58123   0.00000  Uiso   1.00
C497   C     0.71765   0.02261   0.91894   0.00000  Uiso   1.00
C498   C     0.78271   0.48042   0.08064   0.00000  Uiso   1.00
C499   C     0.97209   0.27722   0.91925   0.00000  Uiso   1.00
C500   C     0.53757   0.23416   0.08249   0.00000  Uiso   1.00
C501   C     0.78343   0.48152   0.91961   0.00000  Uiso   1.00
C502   C     0.71797   0.02310   0.08103   0.00000  Uiso   1.00
C503   C     0.51902   0.21625   0.92034   0.00000  Uiso   1.00
C504   C     0.97063   0.27291   0.08070   0.00000  Uiso   1.00
C505   C     0.50002   0.25001   0.39849   0.00000  Uiso   1.00
C506   C     0.99998   0.24999   0.60151   0.00000  Uiso   1.00
C507   C     0.75007   0.49983   0.39845   0.00000  Uiso   1.00
C508   C     0.74993   0.00017   0.60155   0.00000  Uiso   1.00
C509   C     0.75024   0.00127   0.89864   0.00000  Uiso   1.00
C510   C     0.75010   0.00104   0.10145   0.00000  Uiso   1.00
C511   C     0.99772   0.24820   0.89914   0.00000  Uiso   1.00
C512   C     0.50213   0.25122   0.10174   0.00000  Uiso   1.00
C513   C     0.53251   0.22912   0.45932   0.00000  Uiso   1.00
C514   C     0.96749   0.27088   0.54067   0.00000  Uiso   1.00
C515   C     0.77612   0.02837   0.45910   0.00000  Uiso   1.00
C516   C     0.72388   0.47163   0.54090   0.00000  Uiso   1.00
C517   C     0.96751   0.27090   0.45917   0.00000  Uiso   1.00
C518   C     0.53249   0.22910   0.54082   0.00000  Uiso   1.00
C519   C     0.72398   0.47144   0.45931   0.00000  Uiso   1.00
C520   C     0.77602   0.02856   0.54069   0.00000  Uiso   1.00
C521   C     0.78697   0.49022   0.95959   0.00000  Uiso   1.00
C522   C     0.71420   0.01593   0.04075   0.00000  Uiso   1.00
C523   C     0.52859   0.22350   0.95982   0.00000  Uiso   1.00
C524   C     0.97811   0.28134   0.04102   0.00000  Uiso   1.00
C525   C     0.71411   0.01552   0.95929   0.00000  Uiso   1.00
C526   C     0.78666   0.48942   0.04071   0.00000  Uiso   1.00
C527   C     0.97858   0.28272   0.95968   0.00000  Uiso   1.00
C528   C     0.53496   0.22874   0.04162   0.00000  Uiso   1.00
C529   C     0.50000   0.25000   0.47964   0.00000  Uiso   1.00
C530   C     0.99999   0.25000   0.52036   0.00000  Uiso   1.00
C531   C     0.75002   0.49995   0.47962   0.00000  Uiso   1.00
C532   C     0.74998   0.00005   0.52038   0.00000  Uiso   1.00
C533   C     0.75048   0.00288   0.97977   0.00000  Uiso   1.00
C534   C     0.75043   0.00279   0.02039   0.00000  Uiso   1.00
C535   C     0.50507   0.25412   0.98001   0.00000  Uiso   1.00
C536   C     0.50648   0.25498   0.02084   0.00000  Uiso   1.00
C537   C     0.56933   0.21662   0.47967   0.00000  Uiso   1.00
C538   C     0.93067   0.28338   0.52033   0.00000  Uiso   1.00
C539   C     0.79465   0.06250   0.47928   0.00000  Uiso   1.00
C540   C     0.70535   0.43750   0.52071   0.00000  Uiso   1.00
C541   C     0.93068   0.28339   0.47941   0.00000  Uiso   1.00
C542   C     0.56932   0.21661   0.52059   0.00000  Uiso   1.00
C543   C     0.70541   0.43739   0.47977   0.00000  Uiso   1.00
C544   C     0.79459   0.06261   0.52023   0.00000  Uiso   1.00
C545   C     0.82573   0.48731   0.97984   0.00000  Uiso   1.00
C546   C     0.67557   0.02053   0.02045   0.00000  Uiso   1.00
C547   C     0.55956   0.19966   0.97995   0.00000  Uiso   1.00
C548   C     0.95939   0.31570   0.02112   0.00000  Uiso   1.00
C549   C     0.67548   0.01986   0.97955   0.00000  Uiso   1.00
C550   C     0.82554   0.48639   0.02070   0.00000  Uiso   1.00
C551   C     0.96125   0.31726   0.98029   0.00000  Uiso   1.00
C552   C     0.56047   0.19976   0.02078   0.00000  Uiso   1.00
C553   C     0.95299   0.31582   0.39876   0.00000  Uiso   1.00
C554   C     0.98649   0.34643   0.38305   0.00000  Uiso   1.00
C555   C     0.96603   0.38488   0.36406   0.00000  Uiso   1.00
H556   H     0.94596   0.37505   0.33929   0.00000  Uiso   1.00
H557   H     0.94644   0.40223   0.38542   0.00000  Uiso   1.00
H558   H     0.99089   0.40639   0.35305   0.00000  Uiso   1.00
H559   H     0.50688   0.35710   0.40733   0.00000  Uiso   1.00
H560   H     0.50687   0.33109   0.36116   0.00000  Uiso   1.00
H561   H     0.93135   0.30572   0.37530   0.00000  Uiso   1.00
H562   H     0.93407   0.33465   0.41930   0.00000  Uiso   1.00
C563   C     0.54700   0.18417   0.60124   0.00000  Uiso   1.00
C564   C     0.51351   0.15356   0.61694   0.00000  Uiso   1.00
C565   C     0.53396   0.11511   0.63593   0.00000  Uiso   1.00
H566   H     0.55354   0.09776   0.61457   0.00000  Uiso   1.00
H567   H     0.55403   0.12494   0.66070   0.00000  Uiso   1.00
H568   H     0.50909   0.09361   0.64693   0.00000  Uiso   1.00
H569   H     0.99312   0.16891   0.63883   0.00000  Uiso   1.00
H570   H     0.99311   0.14290   0.59266   0.00000  Uiso   1.00
H571   H     0.56592   0.16535   0.58070   0.00000  Uiso   1.00
H572   H     0.56864   0.19427   0.62470   0.00000  Uiso   1.00
C573   C     0.67770   0.46472   0.39852   0.00000  Uiso   1.00
C574   C     0.65247   0.00337   0.38468   0.00000  Uiso   1.00
C575   C     0.61162   0.49028   0.36469   0.00000  Uiso   1.00
H576   H     0.61865   0.47070   0.33884   0.00000  Uiso   1.00
H577   H     0.59137   0.47213   0.38500   0.00000  Uiso   1.00
H578   H     0.59411   0.01880   0.35514   0.00000  Uiso   1.00
H579   H     0.64465   0.02349   0.41002   0.00000  Uiso   1.00
H580   H     0.67093   0.02262   0.36393   0.00000  Uiso   1.00
H581   H     0.68465   0.44337   0.37390   0.00000  Uiso   1.00
H582   H     0.65631   0.44763   0.41829   0.00000  Uiso   1.00
C583   C     0.82230   0.03528   0.60148   0.00000  Uiso   1.00
C584   C     0.84753   0.49663   0.61532   0.00000  Uiso   1.00
C585   C     0.88838   0.00972   0.63531   0.00000  Uiso   1.00
H586   H     0.90863   0.02787   0.61501   0.00000  Uiso   1.00
H587   H     0.88135   0.02930   0.66116   0.00000  Uiso   1.00
H588   H     0.90589   0.48121   0.64487   0.00000  Uiso   1.00
H589   H     0.82907   0.47738   0.63607   0.00000  Uiso   1.00
H590   H     0.85535   0.47651   0.58998   0.00000  Uiso   1.00
H591   H     0.84369   0.05237   0.58171   0.00000  Uiso   1.00
H592   H     0.81535   0.05663   0.62610   0.00000  Uiso   1.00
C593   C     0.54705   0.18420   0.39918   0.00000  Uiso   1.00
C594   C     0.51356   0.15358   0.38365   0.00000  Uiso   1.00
C595   C     0.53402   0.11516   0.36487   0.00000  Uiso   1.00
H596   H     0.55405   0.12501   0.34004   0.00000  Uiso   1.00
H597   H     0.55364   0.09781   0.38632   0.00000  Uiso   1.00
H598   H     0.50916   0.09364   0.35399   0.00000  Uiso   1.00
H599   H     0.99319   0.14289   0.40800   0.00000  Uiso   1.00
H600   H     0.99314   0.16892   0.36168   0.00000  Uiso   1.00
H601   H     0.56868   0.19431   0.37567   0.00000  Uiso   1.00
H602   H     0.56598   0.16539   0.41984   0.00000  Uiso   1.00
C603   C     0.95295   0.31580   0.60082   0.00000  Uiso   1.00
C604   C     0.98644   0.34642   0.61635   0.00000  Uiso   1.00
C605   C     0.96598   0.38484   0.63513   0.00000  Uiso   1.00
H606   H     0.94636   0.40219   0.61368   0.00000  Uiso   1.00
H607   H     0.94595   0.37499   0.65997   0.00000  Uiso   1.00
H608   H     0.99084   0.40636   0.64601   0.00000  Uiso   1.00
H609   H     0.50686   0.33107   0.63831   0.00000  Uiso   1.00
H610   H     0.50680   0.35711   0.59200   0.00000  Uiso   1.00
H611   H     0.93402   0.33461   0.58016   0.00000  Uiso   1.00
H612   H     0.93132   0.30569   0.62433   0.00000  Uiso   1.00
C613   C     0.82248   0.03485   0.39834   0.00000  Uiso   1.00
C614   C     0.84759   0.49616   0.38468   0.00000  Uiso   1.00
C615   C     0.88848   0.00916   0.36466   0.00000  Uiso   1.00
H616   H     0.88151   0.02884   0.33873   0.00000  Uiso   1.00
H617   H     0.90879   0.02720   0.38491   0.00000  Uiso   1.00
H618   H     0.90590   0.48062   0.35522   0.00000  Uiso   1.00
H619   H     0.85535   0.47596   0.41011   0.00000  Uiso   1.00
H620   H     0.82907   0.47701   0.36399   0.00000  Uiso   1.00
H621   H     0.81559   0.05626   0.37363   0.00000  Uiso   1.00
H622   H     0.84392   0.05184   0.41805   0.00000  Uiso   1.00
C623   C     0.67752   0.46515   0.60166   0.00000  Uiso   1.00
C624   C     0.65241   0.00384   0.61532   0.00000  Uiso   1.00
C625   C     0.61152   0.49084   0.63534   0.00000  Uiso   1.00
H626   H     0.59121   0.47280   0.61510   0.00000  Uiso   1.00
H627   H     0.61849   0.47117   0.66127   0.00000  Uiso   1.00
H628   H     0.59410   0.01938   0.64478   0.00000  Uiso   1.00
H629   H     0.67093   0.02299   0.63601   0.00000  Uiso   1.00
H630   H     0.64465   0.02404   0.58989   0.00000  Uiso   1.00
H631   H     0.65608   0.44816   0.58195   0.00000  Uiso   1.00
H632   H     0.68441   0.44374   0.62637   0.00000  Uiso   1.00
C633   C     0.69006   0.05605   0.89920   0.00000  Uiso   1.00
C634   C     0.71620   0.09229   0.88190   0.00000  Uiso   1.00
C635   C     0.68776   0.12607   0.86416   0.00000  Uiso   1.00
H636   H     0.66825   0.11243   0.84059   0.00000  Uiso   1.00
H637   H     0.66676   0.13971   0.88663   0.00000  Uiso   1.00
H638   H     0.70740   0.15170   0.85176   0.00000  Uiso   1.00
H639   H     0.73565   0.10678   0.90511   0.00000  Uiso   1.00
H640   H     0.73774   0.08088   0.85892   0.00000  Uiso   1.00
H641   H     0.66945   0.04163   0.87694   0.00000  Uiso   1.00
H642   H     0.66883   0.07126   0.92044   0.00000  Uiso   1.00
C643   C     0.81022   0.44615   0.09925   0.00000  Uiso   1.00
C644   C     0.78408   0.40911   0.11505   0.00000  Uiso   1.00
C645   C     0.81252   0.37442   0.13130   0.00000  Uiso   1.00
H646   H     0.83359   0.36197   0.10828   0.00000  Uiso   1.00
H647   H     0.83197   0.38680   0.15550   0.00000  Uiso   1.00
H648   H     0.79288   0.34815   0.14249   0.00000  Uiso   1.00
H649   H     0.76262   0.41944   0.13852   0.00000  Uiso   1.00
H650   H     0.76457   0.39582   0.09127   0.00000  Uiso   1.00
H651   H     0.83158   0.43198   0.07751   0.00000  Uiso   1.00
H652   H     0.83070   0.45956   0.12213   0.00000  Uiso   1.00
C653   C     0.93226   0.29409   0.89924   0.00000  Uiso   1.00
C654   C     0.90370   0.25813   0.88486   0.00000  Uiso   1.00
C655   C     0.86164   0.27476   0.86978   0.00000  Uiso   1.00
H656   H     0.84365   0.28978   0.89365   0.00000  Uiso   1.00
H657   H     0.86688   0.29796   0.84609   0.00000  Uiso   1.00
H658   H     0.84269   0.24825   0.85821   0.00000  Uiso   1.00
H659   H     0.91890   0.24054   0.86095   0.00000  Uiso   1.00
H660   H     0.89758   0.23573   0.90906   0.00000  Uiso   1.00
H661   H     0.91240   0.31237   0.91935   0.00000  Uiso   1.00
H662   H     0.94070   0.31544   0.87493   0.00000  Uiso   1.00
C663   C     0.57865   0.22784   0.10520   0.00000  Uiso   1.00
C664   C     0.59717   0.26995   0.11905   0.00000  Uiso   1.00
C665   C     0.63671   0.26296   0.14352   0.00000  Uiso   1.00
H666   H     0.62901   0.24410   0.16977   0.00000  Uiso   1.00
H667   H     0.66121   0.24628   0.12641   0.00000  Uiso   1.00
H668   H     0.64953   0.29383   0.15286   0.00000  Uiso   1.00
H669   H     0.60543   0.28959   0.09340   0.00000  Uiso   1.00
H670   H     0.57430   0.28792   0.13669   0.00000  Uiso   1.00
H671   H     0.57327   0.20624   0.13009   0.00000  Uiso   1.00
H672   H     0.60392   0.21396   0.08761   0.00000  Uiso   1.00
C673   C     0.81225   0.44849   0.90104   0.00000  Uiso   1.00
C674   C     0.78758   0.41064   0.88514   0.00000  Uiso   1.00
C675   C     0.81727   0.37878   0.86644   0.00000  Uiso   1.00
H676   H     0.83374   0.39326   0.84131   0.00000  Uiso   1.00
H677   H     0.84104   0.36769   0.88782   0.00000  Uiso   1.00
H678   H     0.79892   0.35131   0.85602   0.00000  Uiso   1.00
H679   H     0.77039   0.39504   0.90931   0.00000  Uiso   1.00
H680   H     0.76411   0.42041   0.86308   0.00000  Uiso   1.00
H681   H     0.83234   0.46294   0.87833   0.00000  Uiso   1.00
H682   H     0.83414   0.43485   0.92271   0.00000  Uiso   1.00
C683   C     0.69122   0.05722   0.10055   0.00000  Uiso   1.00
C684   C     0.71819   0.09288   0.11761   0.00000  Uiso   1.00
C685   C     0.69053   0.12764   0.13464   0.00000  Uiso   1.00
H686   H     0.67014   0.14171   0.11181   0.00000  Uiso   1.00
H687   H     0.67041   0.11476   0.15821   0.00000  Uiso   1.00
H688   H     0.71076   0.15281   0.14688   0.00000  Uiso   1.00
H689   H     0.73915   0.08106   0.14094   0.00000  Uiso   1.00
H690   H     0.73826   0.10662   0.09438   0.00000  Uiso   1.00
H691   H     0.67041   0.07290   0.07917   0.00000  Uiso   1.00
H692   H     0.67032   0.04331   0.12294   0.00000  Uiso   1.00
C693   C     0.52056   0.17115   0.90453   0.00000  Uiso   1.00
C694   C     0.97615   0.15239   0.89879   0.00000  Uiso   1.00
C695   C     0.95306   0.14599   0.93728   0.00000  Uiso   1.00
H696   H     0.97191   0.12573   0.95709   0.00000  Uiso   1.00
H697   H     0.94698   0.17676   0.95146   0.00000  Uiso   1.00
H698   H     0.92231   0.13044   0.93186   0.00000  Uiso   1.00
H699   H     0.95630   0.17246   0.87982   0.00000  Uiso   1.00
H700   H     0.97939   0.12132   0.88434   0.00000  Uiso   1.00
H701   H     0.53930   0.16973   0.87744   0.00000  Uiso   1.00
H702   H     0.53630   0.14879   0.92426   0.00000  Uiso   1.00
C703   C     0.92853   0.28396   0.09978   0.00000  Uiso   1.00
C704   C     0.90401   0.24444   0.11225   0.00000  Uiso   1.00
C705   C     0.86178   0.25620   0.13050   0.00000  Uiso   1.00
H706   H     0.86681   0.27606   0.15656   0.00000  Uiso   1.00
H707   H     0.84188   0.27366   0.10934   0.00000  Uiso   1.00
H708   H     0.84486   0.22715   0.13940   0.00000  Uiso   1.00
H709   H     0.89817   0.22432   0.08647   0.00000  Uiso   1.00
H710   H     0.92205   0.22562   0.13369   0.00000  Uiso   1.00
H711   H     0.93373   0.30508   0.12493   0.00000  Uiso   1.00
H712   H     0.90740   0.30066   0.07945   0.00000  Uiso   1.00
N713   N     0.60859   0.21217   0.45920   0.00000  Uiso   1.00
O714   O     0.62022   0.24093   0.43448   0.00000  Uiso   1.00
O715   O     0.63070   0.17779   0.46224   0.00000  Uiso   1.00
N716   N     0.89141   0.28783   0.54080   0.00000  Uiso   1.00
O717   O     0.86930   0.32222   0.53776   0.00000  Uiso   1.00
O718   O     0.87978   0.25907   0.56552   0.00000  Uiso   1.00
N719   N     0.80553   0.10042   0.45866   0.00000  Uiso   1.00
O720   O     0.77908   0.11669   0.43393   0.00000  Uiso   1.00
O721   O     0.84311   0.11642   0.46153   0.00000  Uiso   1.00
N722   N     0.69447   0.39958   0.54134   0.00000  Uiso   1.00
O723   O     0.65689   0.38358   0.53847   0.00000  Uiso   1.00
O724   O     0.72092   0.38331   0.56607   0.00000  Uiso   1.00
N725   N     0.89143   0.28786   0.45888   0.00000  Uiso   1.00
O726   O     0.87980   0.25910   0.43431   0.00000  Uiso   1.00
O727   O     0.86933   0.32224   0.46168   0.00000  Uiso   1.00
N728   N     0.60857   0.21214   0.54112   0.00000  Uiso   1.00
O729   O     0.63067   0.17775   0.53831   0.00000  Uiso   1.00
O730   O     0.62020   0.24090   0.56569   0.00000  Uiso   1.00
N731   N     0.69463   0.39936   0.45950   0.00000  Uiso   1.00
O732   O     0.72113   0.38305   0.43495   0.00000  Uiso   1.00
O733   O     0.65709   0.38328   0.46249   0.00000  Uiso   1.00
N734   N     0.80537   0.10064   0.54050   0.00000  Uiso   1.00
O735   O     0.84291   0.11672   0.53751   0.00000  Uiso   1.00
O736   O     0.77887   0.11695   0.56505   0.00000  Uiso   1.00
N737   N     0.86474   0.49354   0.95932   0.00000  Uiso   1.00
O738   O     0.89564   0.46688   0.96291   0.00000  Uiso   1.00
O739   O     0.86798   0.02398   0.93414   0.00000  Uiso   1.00
N740   N     0.63625   0.01782   0.04106   0.00000  Uiso   1.00
O741   O     0.63010   0.48743   0.06581   0.00000  Uiso   1.00
O742   O     0.60841   0.04779   0.03824   0.00000  Uiso   1.00
N743   N     0.59277   0.17878   0.95895   0.00000  Uiso   1.00
O744   O     0.61222   0.19849   0.93109   0.00000  Uiso   1.00
O745   O     0.60110   0.13916   0.96503   0.00000  Uiso   1.00
N746   N     0.94634   0.35244   0.04228   0.00000  Uiso   1.00
O747   O     0.90798   0.36659   0.03915   0.00000  Uiso   1.00
O748   O     0.97121   0.36867   0.06824   0.00000  Uiso   1.00
N749   N     0.63621   0.01535   0.95909   0.00000  Uiso   1.00
O750   O     0.60674   0.04364   0.96217   0.00000  Uiso   1.00
O751   O     0.63132   0.48464   0.93460   0.00000  Uiso   1.00
N752   N     0.86453   0.49048   0.04166   0.00000  Uiso   1.00
O753   O     0.86892   0.02039   0.06704   0.00000  Uiso   1.00
O754   O     0.89380   0.46195   0.03869   0.00000  Uiso   1.00
N755   N     0.95335   0.35654   0.96057   0.00000  Uiso   1.00
O756   O     0.98084   0.37114   0.93600   0.00000  Uiso   1.00
O757   O     0.91734   0.37574   0.96418   0.00000  Uiso   1.00
N758   N     0.58278   0.16655   0.04043   0.00000  Uiso   1.00
O759   O     0.56285   0.14190   0.06439   0.00000  Uiso   1.00
O760   O     0.62336   0.16239   0.03633   0.00000  Uiso   1.00
Zn761  Zn    0.20052   0.50000   0.21730   0.00000  Uiso   1.00
Zn762  Zn    0.29947   0.50000   0.78270   0.00000  Uiso   1.00
Zn763  Zn   -0.00000   0.70052   0.21730   0.00000  Uiso   1.00
Zn764  Zn    0.00000   0.79947   0.78270   0.00000  Uiso   1.00
Zn765  Zn    0.29947   0.50000   0.21730   0.00000  Uiso   1.00
Zn766  Zn    0.20052   0.50000   0.78270   0.00000  Uiso   1.00
Zn767  Zn    0.00000   0.79947   0.21730   0.00000  Uiso   1.00
Zn768  Zn    0.00000   0.70052   0.78270   0.00000  Uiso   1.00
Zn769  Zn    0.45052   0.75000   0.71730   0.00000  Uiso   1.00
Zn770  Zn    0.04947   0.75000   0.28270   0.00000  Uiso   1.00
Zn771  Zn    0.25000   0.95052   0.71730   0.00000  Uiso   1.00
Zn772  Zn    0.25000   0.54948   0.28270   0.00000  Uiso   1.00
Zn773  Zn    0.04947   0.75000   0.71730   0.00000  Uiso   1.00
Zn774  Zn    0.45052   0.75000   0.28270   0.00000  Uiso   1.00
Zn775  Zn    0.25000   0.54948   0.71730   0.00000  Uiso   1.00
Zn776  Zn    0.25000   0.95052   0.28270   0.00000  Uiso   1.00
O777   O     0.25000   0.50000   0.25000   0.00000  Uiso   1.00
O778   O     0.25000   0.50000   0.75000   0.00000  Uiso   1.00
O779   O    -0.00000   0.75000   0.25000   0.00000  Uiso   1.00
O780   O    -0.00000   0.75000   0.75000   0.00000  Uiso   1.00
O781   O     0.25000   0.96538   0.33749   0.00000  Uiso   1.00
O782   O     0.25000   0.53462   0.66251   0.00000  Uiso   1.00
O783   O     0.03461   0.75000   0.33749   0.00000  Uiso   1.00
O784   O     0.46538   0.75000   0.66251   0.00000  Uiso   1.00
O785   O     0.25000   0.53462   0.33749   0.00000  Uiso   1.00
O786   O     0.25000   0.96538   0.66251   0.00000  Uiso   1.00
O787   O     0.46538   0.75000   0.33749   0.00000  Uiso   1.00
O788   O     0.03461   0.75000   0.66251   0.00000  Uiso   1.00
O789   O    -0.00000   0.71538   0.83749   0.00000  Uiso   1.00
O790   O     0.00000   0.78461   0.16251   0.00000  Uiso   1.00
O791   O     0.28461   0.50000   0.83749   0.00000  Uiso   1.00
O792   O     0.21538   0.50000   0.16251   0.00000  Uiso   1.00
O793   O     0.00000   0.78461   0.83749   0.00000  Uiso   1.00
O794   O     0.00000   0.71538   0.16251   0.00000  Uiso   1.00
O795   O     0.21538   0.50000   0.83749   0.00000  Uiso   1.00
O796   O     0.28461   0.50000   0.16251   0.00000  Uiso   1.00
O797   O     0.20126   0.58332   0.27298   0.00000  Uiso   1.00
O798   O     0.29873   0.91668   0.72702   0.00000  Uiso   1.00
O799   O     0.41668   0.70126   0.27298   0.00000  Uiso   1.00
O800   O     0.08332   0.79873   0.72702   0.00000  Uiso   1.00
O801   O     0.29873   0.91668   0.27298   0.00000  Uiso   1.00
O802   O     0.20126   0.58332   0.72702   0.00000  Uiso   1.00
O803   O     0.08332   0.79873   0.27298   0.00000  Uiso   1.00
O804   O     0.41668   0.70126   0.72702   0.00000  Uiso   1.00
O805   O     0.20126   0.91668   0.72702   0.00000  Uiso   1.00
O806   O     0.29873   0.58332   0.27298   0.00000  Uiso   1.00
O807   O     0.41668   0.79873   0.72702   0.00000  Uiso   1.00
O808   O     0.08332   0.70126   0.27298   0.00000  Uiso   1.00
O809   O     0.29873   0.58332   0.72702   0.00000  Uiso   1.00
O810   O     0.20126   0.91668   0.27298   0.00000  Uiso   1.00
O811   O     0.08332   0.70126   0.72702   0.00000  Uiso   1.00
O812   O     0.41668   0.79873   0.27298   0.00000  Uiso   1.00
O813   O     0.45126   0.83332   0.77298   0.00000  Uiso   1.00
O814   O     0.04873   0.66668   0.22702   0.00000  Uiso   1.00
O815   O     0.16668   0.95126   0.77298   0.00000  Uiso   1.00
O816   O     0.33332   0.54874   0.22702   0.00000  Uiso   1.00
O817   O     0.04873   0.66668   0.77298   0.00000  Uiso   1.00
O818   O     0.45126   0.83332   0.22702   0.00000  Uiso   1.00
O819   O     0.33332   0.54874   0.77298   0.00000  Uiso   1.00
O820   O     0.16668   0.95126   0.22702   0.00000  Uiso   1.00
O821   O     0.45126   0.66668   0.22702   0.00000  Uiso   1.00
O822   O     0.04873   0.83332   0.77298   0.00000  Uiso   1.00
O823   O     0.16668   0.54874   0.22702   0.00000  Uiso   1.00
O824   O     0.33332   0.95126   0.77298   0.00000  Uiso   1.00
O825   O     0.04873   0.83332   0.22702   0.00000  Uiso   1.00
O826   O     0.45126   0.66668   0.77298   0.00000  Uiso   1.00
O827   O     0.33332   0.95126   0.22702   0.00000  Uiso   1.00
O828   O     0.16668   0.54874   0.77298   0.00000  Uiso   1.00
C829   C     0.25001   0.99994   0.35595   0.00000  Uiso   1.00
C830   C     0.24999   0.50006   0.64405   0.00000  Uiso   1.00
C831   C     0.00001   0.75000   0.35598   0.00000  Uiso   1.00
C832   C     0.49999   0.75000   0.64402   0.00000  Uiso   1.00
C833   C     0.49977   0.74958   0.85623   0.00000  Uiso   1.00
C834   C     0.00011   0.75019   0.14411   0.00000  Uiso   1.00
C835   C     0.25003   0.50023   0.85605   0.00000  Uiso   1.00
C836   C     0.25000   0.50012   0.14398   0.00000  Uiso   1.00
C837   C     0.16998   0.58000   0.24997   0.00000  Uiso   1.00
C838   C     0.33002   0.92000   0.75003   0.00000  Uiso   1.00
C839   C     0.41997   0.66999   0.25002   0.00000  Uiso   1.00
C840   C     0.08001   0.83002   0.74996   0.00000  Uiso   1.00
C841   C     0.33000   0.91996   0.25000   0.00000  Uiso   1.00
C842   C     0.16999   0.58003   0.74999   0.00000  Uiso   1.00
C843   C     0.08004   0.83003   0.24998   0.00000  Uiso   1.00
C844   C     0.41998   0.66996   0.75000   0.00000  Uiso   1.00
C845   C     0.16995   0.92002   0.74998   0.00000  Uiso   1.00
C846   C     0.33005   0.57999   0.25001   0.00000  Uiso   1.00
C847   C     0.41997   0.82999   0.74999   0.00000  Uiso   1.00
C848   C     0.08003   0.67001   0.25002   0.00000  Uiso   1.00
C849   C     0.33004   0.58002   0.74997   0.00000  Uiso   1.00
C850   C     0.16996   0.91997   0.25002   0.00000  Uiso   1.00
C851   C     0.08000   0.66995   0.74999   0.00000  Uiso   1.00
C852   C     0.41999   0.83003   0.24999   0.00000  Uiso   1.00
C853   C     0.13833   0.88832   0.25002   0.00000  Uiso   1.00
C854   C     0.36168   0.61166   0.74996   0.00000  Uiso   1.00
C855   C     0.11169   0.63837   0.25001   0.00000  Uiso   1.00
C856   C     0.38831   0.86163   0.75000   0.00000  Uiso   1.00
C857   C     0.36170   0.61163   0.25001   0.00000  Uiso   1.00
C858   C     0.13828   0.88839   0.74997   0.00000  Uiso   1.00
C859   C     0.38834   0.86167   0.24997   0.00000  Uiso   1.00
C860   C     0.11163   0.63830   0.75000   0.00000  Uiso   1.00
C861   C     0.13834   0.61166   0.74998   0.00000  Uiso   1.00
C862   C     0.36164   0.88832   0.24999   0.00000  Uiso   1.00
C863   C     0.11165   0.86169   0.74993   0.00000  Uiso   1.00
C864   C     0.38833   0.63833   0.25004   0.00000  Uiso   1.00
C865   C     0.36167   0.88835   0.75005   0.00000  Uiso   1.00
C866   C     0.13833   0.61165   0.24995   0.00000  Uiso   1.00
C867   C     0.38835   0.63830   0.74999   0.00000  Uiso   1.00
C868   C     0.11167   0.86167   0.24998   0.00000  Uiso   1.00
C869   C     0.47273   0.77750   0.41886   0.00000  Uiso   1.00
C870   C     0.02727   0.72250   0.58114   0.00000  Uiso   1.00
C871   C     0.21854   0.97751   0.41890   0.00000  Uiso   1.00
C872   C     0.28146   0.52249   0.58110   0.00000  Uiso   1.00
C873   C     0.02731   0.72253   0.41904   0.00000  Uiso   1.00
C874   C     0.47269   0.77747   0.58096   0.00000  Uiso   1.00
C875   C     0.28161   0.52215   0.41877   0.00000  Uiso   1.00
C876   C     0.21839   0.97785   0.58123   0.00000  Uiso   1.00
C877   C     0.21765   0.52261   0.91894   0.00000  Uiso   1.00
C878   C     0.28271   0.98042   0.08064   0.00000  Uiso   1.00
C879   C     0.47209   0.77722   0.91925   0.00000  Uiso   1.00
C880   C     0.03757   0.73416   0.08249   0.00000  Uiso   1.00
C881   C     0.28343   0.98152   0.91961   0.00000  Uiso   1.00
C882   C     0.21797   0.52310   0.08103   0.00000  Uiso   1.00
C883   C     0.01902   0.71625   0.92034   0.00000  Uiso   1.00
C884   C     0.47063   0.77291   0.08070   0.00000  Uiso   1.00
C885   C     0.00002   0.75001   0.39849   0.00000  Uiso   1.00
C886   C     0.49998   0.74999   0.60151   0.00000  Uiso   1.00
C887   C     0.25007   0.99983   0.39845   0.00000  Uiso   1.00
C888   C     0.24993   0.50017   0.60155   0.00000  Uiso   1.00
C889   C     0.25024   0.50127   0.89864   0.00000  Uiso   1.00
C890   C     0.25010   0.50104   0.10145   0.00000  Uiso   1.00
C891   C     0.49772   0.74820   0.89914   0.00000  Uiso   1.00
C892   C     0.00213   0.75122   0.10174   0.00000  Uiso   1.00
C893   C     0.03251   0.72912   0.45932   0.00000  Uiso   1.00
C894   C     0.46749   0.77088   0.54067   0.00000  Uiso   1.00
C895   C     0.27612   0.52837   0.45910   0.00000  Uiso   1.00
C896   C     0.22388   0.97163   0.54090   0.00000  Uiso   1.00
C897   C     0.46751   0.77090   0.45917   0.00000  Uiso   1.00
C898   C     0.03249   0.72910   0.54082   0.00000  Uiso   1.00
C899   C     0.22398   0.97144   0.45931   0.00000  Uiso   1.00
C900   C     0.27602   0.52856   0.54069   0.00000  Uiso   1.00
C901   C     0.28697   0.99022   0.95959   0.00000  Uiso   1.00
C902   C     0.21420   0.51593   0.04075   0.00000  Uiso   1.00
C903   C     0.02859   0.72350   0.95982   0.00000  Uiso   1.00
C904   C     0.47811   0.78134   0.04102   0.00000  Uiso   1.00
C905   C     0.21411   0.51552   0.95929   0.00000  Uiso   1.00
C906   C     0.28666   0.98942   0.04071   0.00000  Uiso   1.00
C907   C     0.47858   0.78272   0.95968   0.00000  Uiso   1.00
C908   C     0.03496   0.72874   0.04162   0.00000  Uiso   1.00
C909   C     0.00000   0.75000   0.47964   0.00000  Uiso   1.00
C910   C     0.49999   0.75000   0.52036   0.00000  Uiso   1.00
C911   C     0.25002   0.99995   0.47962   0.00000  Uiso   1.00
C912   C     0.24998   0.50005   0.52038   0.00000  Uiso   1.00
C913   C     0.25048   0.50288   0.97977   0.00000  Uiso   1.00
C914   C     0.25043   0.50279   0.02039   0.00000  Uiso   1.00
C915   C     0.00507   0.75412   0.98001   0.00000  Uiso   1.00
C916   C     0.00648   0.75498   0.02084   0.00000  Uiso   1.00
C917   C     0.06933   0.71662   0.47967   0.00000  Uiso   1.00
C918   C     0.43067   0.78338   0.52033   0.00000  Uiso   1.00
C919   C     0.29465   0.56250   0.47928   0.00000  Uiso   1.00
C920   C     0.20535   0.93750   0.52071   0.00000  Uiso   1.00
C921   C     0.43068   0.78339   0.47941   0.00000  Uiso   1.00
C922   C     0.06932   0.71661   0.52059   0.00000  Uiso   1.00
C923   C     0.20541   0.93739   0.47977   0.00000  Uiso   1.00
C924   C     0.29459   0.56261   0.52023   0.00000  Uiso   1.00
C925   C     0.32573   0.98731   0.97984   0.00000  Uiso   1.00
C926   C     0.17557   0.52053   0.02045   0.00000  Uiso   1.00
C927   C     0.05956   0.69966   0.97995   0.00000  Uiso   1.00
C928   C     0.45939   0.81570   0.02112   0.00000  Uiso   1.00
C929   C     0.17548   0.51986   0.97955   0.00000  Uiso   1.00
C930   C     0.32554   0.98639   0.02070   0.00000  Uiso   1.00
C931   C     0.46125   0.81726   0.98029   0.00000  Uiso   1.00
C932   C     0.06047   0.69976   0.02078   0.00000  Uiso   1.00
C933   C     0.45299   0.81582   0.39876   0.00000  Uiso   1.00
C934   C     0.48649   0.84643   0.38305   0.00000  Uiso   1.00
C935   C     0.46603   0.88488   0.36406   0.00000  Uiso   1.00
H936   H     0.44596   0.87505   0.33929   0.00000  Uiso   1.00
H937   H     0.44644   0.90223   0.38542   0.00000  Uiso   1.00
H938   H     0.49089   0.90639   0.35305   0.00000  Uiso   1.00
H939   H     0.00688   0.85710   0.40733   0.00000  Uiso   1.00
H940   H     0.00687   0.83109   0.36116   0.00000  Uiso   1.00
H941   H     0.43135   0.80572   0.37530   0.00000  Uiso   1.00
H942   H     0.43407   0.83465   0.41930   0.00000  Uiso   1.00
C943   C     0.04700   0.68417   0.60124   0.00000  Uiso   1.00
C944   C     0.01351   0.65356   0.61694   0.00000  Uiso   1.00
C945   C     0.03396   0.61511   0.63593   0.00000  Uiso   1.00
H946   H     0.05354   0.59776   0.61457   0.00000  Uiso   1.00
H947   H     0.05403   0.62494   0.66070   0.00000  Uiso   1.00
H948   H     0.00909   0.59361   0.64693   0.00000  Uiso   1.00
H949   H     0.49312   0.66891   0.63883   0.00000  Uiso   1.00
H950   H     0.49311   0.64290   0.59266   0.00000  Uiso   1.00
H951   H     0.06592   0.66535   0.58070   0.00000  Uiso   1.00
H952   H     0.06864   0.69427   0.62470   0.00000  Uiso   1.00
C953   C     0.17770   0.96472   0.39852   0.00000  Uiso   1.00
C954   C     0.15247   0.50337   0.38468   0.00000  Uiso   1.00
C955   C     0.11162   0.99028   0.36469   0.00000  Uiso   1.00
H956   H     0.11865   0.97070   0.33884   0.00000  Uiso   1.00
H957   H     0.09137   0.97213   0.38500   0.00000  Uiso   1.00
H958   H     0.09411   0.51880   0.35514   0.00000  Uiso   1.00
H959   H     0.14465   0.52349   0.41002   0.00000  Uiso   1.00
H960   H     0.17093   0.52262   0.36393   0.00000  Uiso   1.00
H961   H     0.18465   0.94337   0.37390   0.00000  Uiso   1.00
H962   H     0.15631   0.94763   0.41829   0.00000  Uiso   1.00
C963   C     0.32230   0.53528   0.60148   0.00000  Uiso   1.00
C964   C     0.34753   0.99663   0.61532   0.00000  Uiso   1.00
C965   C     0.38838   0.50972   0.63531   0.00000  Uiso   1.00
H966   H     0.40863   0.52787   0.61501   0.00000  Uiso   1.00
H967   H     0.38135   0.52930   0.66116   0.00000  Uiso   1.00
H968   H     0.40589   0.98121   0.64487   0.00000  Uiso   1.00
H969   H     0.32907   0.97738   0.63607   0.00000  Uiso   1.00
H970   H     0.35535   0.97651   0.58998   0.00000  Uiso   1.00
H971   H     0.34369   0.55237   0.58171   0.00000  Uiso   1.00
H972   H     0.31535   0.55663   0.62610   0.00000  Uiso   1.00
C973   C     0.04705   0.68420   0.39918   0.00000  Uiso   1.00
C974   C     0.01356   0.65358   0.38365   0.00000  Uiso   1.00
C975   C     0.03402   0.61516   0.36487   0.00000  Uiso   1.00
H976   H     0.05405   0.62501   0.34004   0.00000  Uiso   1.00
H977   H     0.05364   0.59781   0.38632   0.00000  Uiso   1.00
H978   H     0.00916   0.59364   0.35399   0.00000  Uiso   1.00
H979   H     0.49319   0.64289   0.40800   0.00000  Uiso   1.00
H980   H     0.49314   0.66892   0.36168   0.00000  Uiso   1.00
H981   H     0.06868   0.69431   0.37567   0.00000  Uiso   1.00
H982   H     0.06598   0.66539   0.41984   0.00000  Uiso   1.00
C983   C     0.45295   0.81580   0.60082   0.00000  Uiso   1.00
C984   C     0.48644   0.84642   0.61635   0.00000  Uiso   1.00
C985   C     0.46598   0.88484   0.63513   0.00000  Uiso   1.00
H986   H     0.44636   0.90219   0.61368   0.00000  Uiso   1.00
H987   H     0.44595   0.87499   0.65997   0.00000  Uiso   1.00
H988   H     0.49084   0.90636   0.64601   0.00000  Uiso   1.00
H989   H     0.00686   0.83107   0.63831   0.00000  Uiso   1.00
H990   H     0.00680   0.85711   0.59200   0.00000  Uiso   1.00
H991   H     0.43402   0.83461   0.58016   0.00000  Uiso   1.00
H992   H     0.43132   0.80569   0.62433   0.00000  Uiso   1.00
C993   C     0.32248   0.53485   0.39834   0.00000  Uiso   1.00
C994   C     0.34759   0.99616   0.38468   0.00000  Uiso   1.00
C995   C     0.38848   0.50916   0.36466   0.00000  Uiso   1.00
H996   H     0.38151   0.52884   0.33873   0.00000  Uiso   1.00
H997   H     0.40879   0.52720   0.38491   0.00000  Uiso   1.00
H998   H     0.40590   0.98062   0.35522   0.00000  Uiso   1.00
H999   H     0.35535   0.97596   0.41011   0.00000  Uiso   1.00
H1000  H     0.32907   0.97701   0.36399   0.00000  Uiso   1.00
H1001  H     0.31559   0.55626   0.37363   0.00000  Uiso   1.00
H1002  H     0.34392   0.55184   0.41805   0.00000  Uiso   1.00
C1003  C     0.17752   0.96515   0.60166   0.00000  Uiso   1.00
C1004  C     0.15241   0.50384   0.61532   0.00000  Uiso   1.00
C1005  C     0.11152   0.99084   0.63534   0.00000  Uiso   1.00
H1006  H     0.09121   0.97280   0.61510   0.00000  Uiso   1.00
H1007  H     0.11849   0.97117   0.66127   0.00000  Uiso   1.00
H1008  H     0.09410   0.51938   0.64478   0.00000  Uiso   1.00
H1009  H     0.17093   0.52299   0.63601   0.00000  Uiso   1.00
H1010  H     0.14465   0.52404   0.58989   0.00000  Uiso   1.00
H1011  H     0.15608   0.94816   0.58195   0.00000  Uiso   1.00
H1012  H     0.18441   0.94374   0.62637   0.00000  Uiso   1.00
C1013  C     0.19006   0.55605   0.89920   0.00000  Uiso   1.00
C1014  C     0.21620   0.59229   0.88190   0.00000  Uiso   1.00
C1015  C     0.18776   0.62607   0.86416   0.00000  Uiso   1.00
H1016  H     0.16825   0.61243   0.84059   0.00000  Uiso   1.00
H1017  H     0.16676   0.63971   0.88663   0.00000  Uiso   1.00
H1018  H     0.20740   0.65170   0.85176   0.00000  Uiso   1.00
H1019  H     0.23565   0.60678   0.90511   0.00000  Uiso   1.00
H1020  H     0.23774   0.58088   0.85892   0.00000  Uiso   1.00
H1021  H     0.16945   0.54163   0.87694   0.00000  Uiso   1.00
H1022  H     0.16883   0.57126   0.92044   0.00000  Uiso   1.00
C1023  C     0.31022   0.94615   0.09925   0.00000  Uiso   1.00
C1024  C     0.28408   0.90911   0.11505   0.00000  Uiso   1.00
C1025  C     0.31252   0.87442   0.13130   0.00000  Uiso   1.00
H1026  H     0.33359   0.86197   0.10828   0.00000  Uiso   1.00
H1027  H     0.33197   0.88680   0.15550   0.00000  Uiso   1.00
H1028  H     0.29288   0.84815   0.14249   0.00000  Uiso   1.00
H1029  H     0.26262   0.91944   0.13852   0.00000  Uiso   1.00
H1030  H     0.26457   0.89582   0.09127   0.00000  Uiso   1.00
H1031  H     0.33158   0.93198   0.07751   0.00000  Uiso   1.00
H1032  H     0.33070   0.95956   0.12213   0.00000  Uiso   1.00
C1033  C     0.43226   0.79409   0.89924   0.00000  Uiso   1.00
C1034  C     0.40370   0.75813   0.88486   0.00000  Uiso   1.00
C1035  C     0.36164   0.77476   0.86978   0.00000  Uiso   1.00
H1036  H     0.34365   0.78978   0.89365   0.00000  Uiso   1.00
H1037  H     0.36688   0.79796   0.84609   0.00000  Uiso   1.00
H1038  H     0.34269   0.74825   0.85821   0.00000  Uiso   1.00
H1039  H     0.41890   0.74054   0.86095   0.00000  Uiso   1.00
H1040  H     0.39758   0.73573   0.90906   0.00000  Uiso   1.00
H1041  H     0.41240   0.81237   0.91935   0.00000  Uiso   1.00
H1042  H     0.44070   0.81544   0.87493   0.00000  Uiso   1.00
C1043  C     0.07865   0.72784   0.10520   0.00000  Uiso   1.00
C1044  C     0.09717   0.76995   0.11905   0.00000  Uiso   1.00
C1045  C     0.13671   0.76296   0.14352   0.00000  Uiso   1.00
H1046  H     0.12901   0.74410   0.16977   0.00000  Uiso   1.00
H1047  H     0.16121   0.74628   0.12641   0.00000  Uiso   1.00
H1048  H     0.14953   0.79383   0.15286   0.00000  Uiso   1.00
H1049  H     0.10543   0.78959   0.09340   0.00000  Uiso   1.00
H1050  H     0.07430   0.78792   0.13669   0.00000  Uiso   1.00
H1051  H     0.07327   0.70624   0.13009   0.00000  Uiso   1.00
H1052  H     0.10392   0.71396   0.08761   0.00000  Uiso   1.00
C1053  C     0.31225   0.94849   0.90104   0.00000  Uiso   1.00
C1054  C     0.28758   0.91064   0.88514   0.00000  Uiso   1.00
C1055  C     0.31727   0.87878   0.86644   0.00000  Uiso   1.00
H1056  H     0.33374   0.89326   0.84131   0.00000  Uiso   1.00
H1057  H     0.34104   0.86769   0.88782   0.00000  Uiso   1.00
H1058  H     0.29892   0.85131   0.85602   0.00000  Uiso   1.00
H1059  H     0.27039   0.89504   0.90931   0.00000  Uiso   1.00
H1060  H     0.26411   0.92041   0.86308   0.00000  Uiso   1.00
H1061  H     0.33234   0.96294   0.87833   0.00000  Uiso   1.00
H1062  H     0.33414   0.93485   0.92271   0.00000  Uiso   1.00
C1063  C     0.19122   0.55722   0.10055   0.00000  Uiso   1.00
C1064  C     0.21819   0.59288   0.11761   0.00000  Uiso   1.00
C1065  C     0.19053   0.62764   0.13464   0.00000  Uiso   1.00
H1066  H     0.17014   0.64171   0.11181   0.00000  Uiso   1.00
H1067  H     0.17041   0.61476   0.15821   0.00000  Uiso   1.00
H1068  H     0.21076   0.65281   0.14688   0.00000  Uiso   1.00
H1069  H     0.23915   0.58106   0.14094   0.00000  Uiso   1.00
H1070  H     0.23826   0.60662   0.09438   0.00000  Uiso   1.00
H1071  H     0.17041   0.57290   0.07917   0.00000  Uiso   1.00
H1072  H     0.17032   0.54331   0.12294   0.00000  Uiso   1.00
C1073  C     0.02056   0.67115   0.90453   0.00000  Uiso   1.00
C1074  C     0.47615   0.65239   0.89879   0.00000  Uiso   1.00
C1075  C     0.45306   0.64599   0.93728   0.00000  Uiso   1.00
H1076  H     0.47191   0.62573   0.95709   0.00000  Uiso   1.00
H1077  H     0.44698   0.67676   0.95146   0.00000  Uiso   1.00
H1078  H     0.42231   0.63044   0.93186   0.00000  Uiso   1.00
H1079  H     0.45630   0.67246   0.87982   0.00000  Uiso   1.00
H1080  H     0.47939   0.62132   0.88434   0.00000  Uiso   1.00
H1081  H     0.03930   0.66973   0.87744   0.00000  Uiso   1.00
H1082  H     0.03630   0.64879   0.92426   0.00000  Uiso   1.00
C1083  C     0.42853   0.78396   0.09978   0.00000  Uiso   1.00
C1084  C     0.40401   0.74444   0.11225   0.00000  Uiso   1.00
C1085  C     0.36178   0.75620   0.13050   0.00000  Uiso   1.00
H1086  H     0.36681   0.77606   0.15656   0.00000  Uiso   1.00
H1087  H     0.34188   0.77366   0.10934   0.00000  Uiso   1.00
H1088  H     0.34486   0.72715   0.13940   0.00000  Uiso   1.00
H1089  H     0.39817   0.72432   0.08647   0.00000  Uiso   1.00
H1090  H     0.42205   0.72562   0.13369   0.00000  Uiso   1.00
H1091  H     0.43373   0.80508   0.12493   0.00000  Uiso   1.00
H1092  H     0.40740   0.80066   0.07945   0.00000  Uiso   1.00
N1093  N     0.10859   0.71217   0.45920   0.00000  Uiso   1.00
O1094  O     0.12022   0.74093   0.43448   0.00000  Uiso   1.00
O1095  O     0.13070   0.67779   0.46224   0.00000  Uiso   1.00
N1096  N     0.39141   0.78783   0.54080   0.00000  Uiso   1.00
O1097  O     0.36930   0.82222   0.53776   0.00000  Uiso   1.00
O1098  O     0.37978   0.75907   0.56552   0.00000  Uiso   1.00
N1099  N     0.30553   0.60042   0.45866   0.00000  Uiso   1.00
O1100  O     0.27908   0.61669   0.43393   0.00000  Uiso   1.00
O1101  O     0.34311   0.61642   0.46153   0.00000  Uiso   1.00
N1102  N     0.19447   0.89958   0.54134   0.00000  Uiso   1.00
O1103  O     0.15689   0.88358   0.53847   0.00000  Uiso   1.00
O1104  O     0.22092   0.88331   0.56607   0.00000  Uiso   1.00
N1105  N     0.39143   0.78786   0.45888   0.00000  Uiso   1.00
O1106  O     0.37980   0.75910   0.43431   0.00000  Uiso   1.00
O1107  O     0.36933   0.82224   0.46168   0.00000  Uiso   1.00
N1108  N     0.10857   0.71214   0.54112   0.00000  Uiso   1.00
O1109  O     0.13067   0.67775   0.53831   0.00000  Uiso   1.00
O1110  O     0.12020   0.74090   0.56569   0.00000  Uiso   1.00
N1111  N     0.19463   0.89936   0.45950   0.00000  Uiso   1.00
O1112  O     0.22113   0.88305   0.43495   0.00000  Uiso   1.00
O1113  O     0.15709   0.88328   0.46249   0.00000  Uiso   1.00
N1114  N     0.30537   0.60064   0.54050   0.00000  Uiso   1.00
O1115  O     0.34291   0.61672   0.53751   0.00000  Uiso   1.00
O1116  O     0.27887   0.61695   0.56505   0.00000  Uiso   1.00
N1117  N     0.36474   0.99354   0.95932   0.00000  Uiso   1.00
O1118  O     0.39564   0.96688   0.96291   0.00000  Uiso   1.00
O1119  O     0.36798   0.52398   0.93414   0.00000  Uiso   1.00
N1120  N     0.13625   0.51782   0.04106   0.00000  Uiso   1.00
O1121  O     0.13010   0.98743   0.06581   0.00000  Uiso   1.00
O1122  O     0.10841   0.54779   0.03824   0.00000  Uiso   1.00
N1123  N     0.09277   0.67878   0.95895   0.00000  Uiso   1.00
O1124  O     0.11222   0.69849   0.93109   0.00000  Uiso   1.00
O1125  O     0.10110   0.63916   0.96503   0.00000  Uiso   1.00
N1126  N     0.44634   0.85244   0.04228   0.00000  Uiso   1.00
O1127  O     0.40798   0.86659   0.03915   0.00000  Uiso   1.00
O1128  O     0.47121   0.86867   0.06824   0.00000  Uiso   1.00
N1129  N     0.13621   0.51535   0.95909   0.00000  Uiso   1.00
O1130  O     0.10674   0.54364   0.96217   0.00000  Uiso   1.00
O1131  O     0.13132   0.98464   0.93460   0.00000  Uiso   1.00
N1132  N     0.36453   0.99048   0.04166   0.00000  Uiso   1.00
O1133  O     0.36892   0.52039   0.06704   0.00000  Uiso   1.00
O1134  O     0.39380   0.96195   0.03869   0.00000  Uiso   1.00
N1135  N     0.45335   0.85654   0.96057   0.00000  Uiso   1.00
O1136  O     0.48084   0.87114   0.93600   0.00000  Uiso   1.00
O1137  O     0.41734   0.87574   0.96418   0.00000  Uiso   1.00
N1138  N     0.08278   0.66655   0.04043   0.00000  Uiso   1.00
O1139  O     0.06285   0.64190   0.06439   0.00000  Uiso   1.00
O1140  O     0.12336   0.66239   0.03633   0.00000  Uiso   1.00
Zn1141 Zn    0.70052   0.50000   0.21730   0.00000  Uiso   1.00
Zn1142 Zn    0.79947   0.50000   0.78270   0.00000  Uiso   1.00
Zn1143 Zn    0.50000   0.70052   0.21730   0.00000  Uiso   1.00
Zn1144 Zn    0.50000   0.79947   0.78270   0.00000  Uiso   1.00
Zn1145 Zn    0.79947   0.50000   0.21730   0.00000  Uiso   1.00
Zn1146 Zn    0.70052   0.50000   0.78270   0.00000  Uiso   1.00
Zn1147 Zn    0.50000   0.79947   0.21730   0.00000  Uiso   1.00
Zn1148 Zn    0.50000   0.70052   0.78270   0.00000  Uiso   1.00
Zn1149 Zn    0.95052   0.75000   0.71730   0.00000  Uiso   1.00
Zn1150 Zn    0.54947   0.75000   0.28270   0.00000  Uiso   1.00
Zn1151 Zn    0.75000   0.95052   0.71730   0.00000  Uiso   1.00
Zn1152 Zn    0.75000   0.54948   0.28270   0.00000  Uiso   1.00
Zn1153 Zn    0.54947   0.75000   0.71730   0.00000  Uiso   1.00
Zn1154 Zn    0.95052   0.75000   0.28270   0.00000  Uiso   1.00
Zn1155 Zn    0.75000   0.54948   0.71730   0.00000  Uiso   1.00
Zn1156 Zn    0.75000   0.95052   0.28270   0.00000  Uiso   1.00
O1157  O     0.75000   0.50000   0.25000   0.00000  Uiso   1.00
O1158  O     0.75000   0.50000   0.75000   0.00000  Uiso   1.00
O1159  O     0.50000   0.75000   0.25000   0.00000  Uiso   1.00
O1160  O     0.50000   0.75000   0.75000   0.00000  Uiso   1.00
O1161  O     0.75000   0.96538   0.33749   0.00000  Uiso   1.00
O1162  O     0.75000   0.53462   0.66251   0.00000  Uiso   1.00
O1163  O     0.53461   0.75000   0.33749   0.00000  Uiso   1.00
O1164  O     0.96538   0.75000   0.66251   0.00000  Uiso   1.00
O1165  O     0.75000   0.53462   0.33749   0.00000  Uiso   1.00
O1166  O     0.75000   0.96538   0.66251   0.00000  Uiso   1.00
O1167  O     0.96538   0.75000   0.33749   0.00000  Uiso   1.00
O1168  O     0.53461   0.75000   0.66251   0.00000  Uiso   1.00
O1169  O     0.50000   0.71538   0.83749   0.00000  Uiso   1.00
O1170  O     0.50000   0.78461   0.16251   0.00000  Uiso   1.00
O1171  O     0.78461   0.50000   0.83749   0.00000  Uiso   1.00
O1172  O     0.71538   0.50000   0.16251   0.00000  Uiso   1.00
O1173  O     0.50000   0.78461   0.83749   0.00000  Uiso   1.00
O1174  O     0.50000   0.71538   0.16251   0.00000  Uiso   1.00
O1175  O     0.71538   0.50000   0.83749   0.00000  Uiso   1.00
O1176  O     0.78461   0.50000   0.16251   0.00000  Uiso   1.00
O1177  O     0.70126   0.58332   0.27298   0.00000  Uiso   1.00
O1178  O     0.79873   0.91668   0.72702   0.00000  Uiso   1.00
O1179  O     0.91668   0.70126   0.27298   0.00000  Uiso   1.00
O1180  O     0.58332   0.79873   0.72702   0.00000  Uiso   1.00
O1181  O     0.79873   0.91668   0.27298   0.00000  Uiso   1.00
O1182  O     0.70126   0.58332   0.72702   0.00000  Uiso   1.00
O1183  O     0.58332   0.79873   0.27298   0.00000  Uiso   1.00
O1184  O     0.91668   0.70126   0.72702   0.00000  Uiso   1.00
O1185  O     0.70126   0.91668   0.72702   0.00000  Uiso   1.00
O1186  O     0.79873   0.58332   0.27298   0.00000  Uiso   1.00
O1187  O     0.91668   0.79873   0.72702   0.00000  Uiso   1.00
O1188  O     0.58332   0.70126   0.27298   0.00000  Uiso   1.00
O1189  O     0.79873   0.58332   0.72702   0.00000  Uiso   1.00
O1190  O     0.70126   0.91668   0.27298   0.00000  Uiso   1.00
O1191  O     0.58332   0.70126   0.72702   0.00000  Uiso   1.00
O1192  O     0.91668   0.79873   0.27298   0.00000  Uiso   1.00
O1193  O     0.95126   0.83332   0.77298   0.00000  Uiso   1.00
O1194  O     0.54873   0.66668   0.22702   0.00000  Uiso   1.00
O1195  O     0.66668   0.95126   0.77298   0.00000  Uiso   1.00
O1196  O     0.83332   0.54874   0.22702   0.00000  Uiso   1.00
O1197  O     0.54873   0.66668   0.77298   0.00000  Uiso   1.00
O1198  O     0.95126   0.83332   0.22702   0.00000  Uiso   1.00
O1199  O     0.83332   0.54874   0.77298   0.00000  Uiso   1.00
O1200  O     0.66668   0.95126   0.22702   0.00000  Uiso   1.00
O1201  O     0.95126   0.66668   0.22702   0.00000  Uiso   1.00
O1202  O     0.54873   0.83332   0.77298   0.00000  Uiso   1.00
O1203  O     0.66668   0.54874   0.22702   0.00000  Uiso   1.00
O1204  O     0.83332   0.95126   0.77298   0.00000  Uiso   1.00
O1205  O     0.54873   0.83332   0.22702   0.00000  Uiso   1.00
O1206  O     0.95126   0.66668   0.77298   0.00000  Uiso   1.00
O1207  O     0.83332   0.95126   0.22702   0.00000  Uiso   1.00
O1208  O     0.66668   0.54874   0.77298   0.00000  Uiso   1.00
C1209  C     0.75001   0.99994   0.35595   0.00000  Uiso   1.00
C1210  C     0.74999   0.50006   0.64405   0.00000  Uiso   1.00
C1211  C     0.50001   0.75000   0.35598   0.00000  Uiso   1.00
C1212  C     0.99999   0.75000   0.64402   0.00000  Uiso   1.00
C1213  C     0.99977   0.74958   0.85623   0.00000  Uiso   1.00
C1214  C     0.50011   0.75019   0.14411   0.00000  Uiso   1.00
C1215  C     0.75003   0.50023   0.85605   0.00000  Uiso   1.00
C1216  C     0.75000   0.50012   0.14398   0.00000  Uiso   1.00
C1217  C     0.66998   0.58000   0.24997   0.00000  Uiso   1.00
C1218  C     0.83002   0.92000   0.75003   0.00000  Uiso   1.00
C1219  C     0.91997   0.66999   0.25002   0.00000  Uiso   1.00
C1220  C     0.58001   0.83002   0.74996   0.00000  Uiso   1.00
C1221  C     0.83000   0.91996   0.25000   0.00000  Uiso   1.00
C1222  C     0.66999   0.58003   0.74999   0.00000  Uiso   1.00
C1223  C     0.58004   0.83003   0.24998   0.00000  Uiso   1.00
C1224  C     0.91998   0.66996   0.75000   0.00000  Uiso   1.00
C1225  C     0.66995   0.92002   0.74998   0.00000  Uiso   1.00
C1226  C     0.83005   0.57999   0.25001   0.00000  Uiso   1.00
C1227  C     0.91997   0.82999   0.74999   0.00000  Uiso   1.00
C1228  C     0.58003   0.67001   0.25002   0.00000  Uiso   1.00
C1229  C     0.83004   0.58002   0.74997   0.00000  Uiso   1.00
C1230  C     0.66996   0.91997   0.25002   0.00000  Uiso   1.00
C1231  C     0.58000   0.66995   0.74999   0.00000  Uiso   1.00
C1232  C     0.91999   0.83003   0.24999   0.00000  Uiso   1.00
C1233  C     0.63833   0.88832   0.25002   0.00000  Uiso   1.00
C1234  C     0.86168   0.61166   0.74996   0.00000  Uiso   1.00
C1235  C     0.61169   0.63837   0.25001   0.00000  Uiso   1.00
C1236  C     0.88831   0.86163   0.75000   0.00000  Uiso   1.00
C1237  C     0.86170   0.61163   0.25001   0.00000  Uiso   1.00
C1238  C     0.63828   0.88839   0.74997   0.00000  Uiso   1.00
C1239  C     0.88834   0.86167   0.24997   0.00000  Uiso   1.00
C1240  C     0.61163   0.63830   0.75000   0.00000  Uiso   1.00
C1241  C     0.63834   0.61166   0.74998   0.00000  Uiso   1.00
C1242  C     0.86164   0.88832   0.24999   0.00000  Uiso   1.00
C1243  C     0.61165   0.86169   0.74993   0.00000  Uiso   1.00
C1244  C     0.88833   0.63833   0.25004   0.00000  Uiso   1.00
C1245  C     0.86167   0.88835   0.75005   0.00000  Uiso   1.00
C1246  C     0.63833   0.61165   0.24995   0.00000  Uiso   1.00
C1247  C     0.88835   0.63830   0.74999   0.00000  Uiso   1.00
C1248  C     0.61167   0.86167   0.24998   0.00000  Uiso   1.00
C1249  C     0.97273   0.77750   0.41886   0.00000  Uiso   1.00
C1250  C     0.52727   0.72250   0.58114   0.00000  Uiso   1.00
C1251  C     0.71854   0.97751   0.41890   0.00000  Uiso   1.00
C1252  C     0.78146   0.52249   0.58110   0.00000  Uiso   1.00
C1253  C     0.52731   0.72253   0.41904   0.00000  Uiso   1.00
C1254  C     0.97269   0.77747   0.58096   0.00000  Uiso   1.00
C1255  C     0.78161   0.52215   0.41877   0.00000  Uiso   1.00
C1256  C     0.71839   0.97785   0.58123   0.00000  Uiso   1.00
C1257  C     0.71765   0.52261   0.91894   0.00000  Uiso   1.00
C1258  C     0.78271   0.98042   0.08064   0.00000  Uiso   1.00
C1259  C     0.97209   0.77722   0.91925   0.00000  Uiso   1.00
C1260  C     0.53757   0.73416   0.08249   0.00000  Uiso   1.00
C1261  C     0.78343   0.98152   0.91961   0.00000  Uiso   1.00
C1262  C     0.71797   0.52310   0.08103   0.00000  Uiso   1.00
C1263  C     0.51902   0.71625   0.92034   0.00000  Uiso   1.00
C1264  C     0.97063   0.77291   0.08070   0.00000  Uiso   1.00
C1265  C     0.50002   0.75001   0.39849   0.00000  Uiso   1.00
C1266  C     0.99998   0.74999   0.60151   0.00000  Uiso   1.00
C1267  C     0.75007   0.99983   0.39845   0.00000  Uiso   1.00
C1268  C     0.74993   0.50017   0.60155   0.00000  Uiso   1.00
C1269  C     0.75024   0.50127   0.89864   0.00000  Uiso   1.00
C1270  C     0.75010   0.50104   0.10145   0.00000  Uiso   1.00
C1271  C     0.99772   0.74820   0.89914   0.00000  Uiso   1.00
C1272  C     0.50213   0.75122   0.10174   0.00000  Uiso   1.00
C1273  C     0.53251   0.72912   0.45932   0.00000  Uiso   1.00
C1274  C     0.96749   0.77088   0.54067   0.00000  Uiso   1.00
C1275  C     0.77612   0.52837   0.45910   0.00000  Uiso   1.00
C1276  C     0.72388   0.97163   0.54090   0.00000  Uiso   1.00
C1277  C     0.96751   0.77090   0.45917   0.00000  Uiso   1.00
C1278  C     0.53249   0.72910   0.54082   0.00000  Uiso   1.00
C1279  C     0.72398   0.97144   0.45931   0.00000  Uiso   1.00
C1280  C     0.77602   0.52856   0.54069   0.00000  Uiso   1.00
C1281  C     0.78697   0.99022   0.95959   0.00000  Uiso   1.00
C1282  C     0.71420   0.51593   0.04075   0.00000  Uiso   1.00
C1283  C     0.52859   0.72350   0.95982   0.00000  Uiso   1.00
C1284  C     0.97811   0.78134   0.04102   0.00000  Uiso   1.00
C1285  C     0.71411   0.51552   0.95929   0.00000  Uiso   1.00
C1286  C     0.78666   0.98942   0.04071   0.00000  Uiso   1.00
C1287  C     0.97858   0.78272   0.95968   0.00000  Uiso   1.00
C1288  C     0.53496   0.72874   0.04162   0.00000  Uiso   1.00
C1289  C     0.50000   0.75000   0.47964   0.00000  Uiso   1.00
C1290  C     0.99999   0.75000   0.52036   0.00000  Uiso   1.00
C1291  C     0.75002   0.99995   0.47962   0.00000  Uiso   1.00
C1292  C     0.74998   0.50005   0.52038   0.00000  Uiso   1.00
C1293  C     0.75048   0.50288   0.97977   0.00000  Uiso   1.00
C1294  C     0.75043   0.50279   0.02039   0.00000  Uiso   1.00
C1295  C     0.50507   0.75412   0.98001   0.00000  Uiso   1.00
C1296  C     0.50648   0.75498   0.02084   0.00000  Uiso   1.00
C1297  C     0.56933   0.71662   0.47967   0.00000  Uiso   1.00
C1298  C     0.93067   0.78338   0.52033   0.00000  Uiso   1.00
C1299  C     0.79465   0.56250   0.47928   0.00000  Uiso   1.00
C1300  C     0.70535   0.93750   0.52071   0.00000  Uiso   1.00
C1301  C     0.93068   0.78339   0.47941   0.00000  Uiso   1.00
C1302  C     0.56932   0.71661   0.52059   0.00000  Uiso   1.00
C1303  C     0.70541   0.93739   0.47977   0.00000  Uiso   1.00
C1304  C     0.79459   0.56261   0.52023   0.00000  Uiso   1.00
C1305  C     0.82573   0.98731   0.97984   0.00000  Uiso   1.00
C1306  C     0.67557   0.52053   0.02045   0.00000  Uiso   1.00
C1307  C     0.55956   0.69966   0.97995   0.00000  Uiso   1.00
C1308  C     0.95939   0.81570   0.02112   0.00000  Uiso   1.00
C1309  C     0.67548   0.51986   0.97955   0.00000  Uiso   1.00
C1310  C     0.82554   0.98639   0.02070   0.00000  Uiso   1.00
C1311  C     0.96125   0.81726   0.98029   0.00000  Uiso   1.00
C1312  C     0.56047   0.69976   0.02078   0.00000  Uiso   1.00
C1313  C     0.95299   0.81582   0.39876   0.00000  Uiso   1.00
C1314  C     0.98649   0.84643   0.38305   0.00000  Uiso   1.00
C1315  C     0.96603   0.88488   0.36406   0.00000  Uiso   1.00
H1316  H     0.94596   0.87505   0.33929   0.00000  Uiso   1.00
H1317  H     0.94644   0.90223   0.38542   0.00000  Uiso   1.00
H1318  H     0.99089   0.90639   0.35305   0.00000  Uiso   1.00
H1319  H     0.50688   0.85710   0.40733   0.00000  Uiso   1.00
H1320  H     0.50687   0.83109   0.36116   0.00000  Uiso   1.00
H1321  H     0.93135   0.80572   0.37530   0.00000  Uiso   1.00
H1322  H     0.93407   0.83465   0.41930   0.00000  Uiso   1.00
C1323  C     0.54700   0.68417   0.60124   0.00000  Uiso   1.00
C1324  C     0.51351   0.65356   0.61694   0.00000  Uiso   1.00
C1325  C     0.53396   0.61511   0.63593   0.00000  Uiso   1.00
H1326  H     0.55354   0.59776   0.61457   0.00000  Uiso   1.00
H1327  H     0.55403   0.62494   0.66070   0.00000  Uiso   1.00
H1328  H     0.50909   0.59361   0.64693   0.00000  Uiso   1.00
H1329  H     0.99312   0.66891   0.63883   0.00000  Uiso   1.00
H1330  H     0.99311   0.64290   0.59266   0.00000  Uiso   1.00
H1331  H     0.56592   0.66535   0.58070   0.00000  Uiso   1.00
H1332  H     0.56864   0.69427   0.62470   0.00000  Uiso   1.00
C1333  C     0.67770   0.96472   0.39852   0.00000  Uiso   1.00
C1334  C     0.65247   0.50337   0.38468   0.00000  Uiso   1.00
C1335  C     0.61162   0.99028   0.36469   0.00000  Uiso   1.00
H1336  H     0.61865   0.97070   0.33884   0.00000  Uiso   1.00
H1337  H     0.59137   0.97213   0.38500   0.00000  Uiso   1.00
H1338  H     0.59411   0.51880   0.35514   0.00000  Uiso   1.00
H1339  H     0.64465   0.52349   0.41002   0.00000  Uiso   1.00
H1340  H     0.67093   0.52262   0.36393   0.00000  Uiso   1.00
H1341  H     0.68465   0.94337   0.37390   0.00000  Uiso   1.00
H1342  H     0.65631   0.94763   0.41829   0.00000  Uiso   1.00
C1343  C     0.82230   0.53528   0.60148   0.00000  Uiso   1.00
C1344  C     0.84753   0.99663   0.61532   0.00000  Uiso   1.00
C1345  C     0.88838   0.50972   0.63531   0.00000  Uiso   1.00
H1346  H     0.90863   0.52787   0.61501   0.00000  Uiso   1.00
H1347  H     0.88135   0.52930   0.66116   0.00000  Uiso   1.00
H1348  H     0.90589   0.98121   0.64487   0.00000  Uiso   1.00
H1349  H     0.82907   0.97738   0.63607   0.00000  Uiso   1.00
H1350  H     0.85535   0.97651   0.58998   0.00000  Uiso   1.00
H1351  H     0.84369   0.55237   0.58171   0.00000  Uiso   1.00
H1352  H     0.81535   0.55663   0.62610   0.00000  Uiso   1.00
C1353  C     0.54705   0.68420   0.39918   0.00000  Uiso   1.00
C1354  C     0.51356   0.65358   0.38365   0.00000  Uiso   1.00
C1355  C     0.53402   0.61516   0.36487   0.00000  Uiso   1.00
H1356  H     0.55405   0.62501   0.34004   0.00000  Uiso   1.00
H1357  H     0.55364   0.59781   0.38632   0.00000  Uiso   1.00
H1358  H     0.50916   0.59364   0.35399   0.00000  Uiso   1.00
H1359  H     0.99319   0.64289   0.40800   0.00000  Uiso   1.00
H1360  H     0.99314   0.66892   0.36168   0.00000  Uiso   1.00
H1361  H     0.56868   0.69431   0.37567   0.00000  Uiso   1.00
H1362  H     0.56598   0.66539   0.41984   0.00000  Uiso   1.00
C1363  C     0.95295   0.81580   0.60082   0.00000  Uiso   1.00
C1364  C     0.98644   0.84642   0.61635   0.00000  Uiso   1.00
C1365  C     0.96598   0.88484   0.63513   0.00000  Uiso   1.00
H1366  H     0.94636   0.90219   0.61368   0.00000  Uiso   1.00
H1367  H     0.94595   0.87499   0.65997   0.00000  Uiso   1.00
H1368  H     0.99084   0.90636   0.64601   0.00000  Uiso   1.00
H1369  H     0.50686   0.83107   0.63831   0.00000  Uiso   1.00
H1370  H     0.50680   0.85711   0.59200   0.00000  Uiso   1.00
H1371  H     0.93402   0.83461   0.58016   0.00000  Uiso   1.00
H1372  H     0.93132   0.80569   0.62433   0.00000  Uiso   1.00
C1373  C     0.82248   0.53485   0.39834   0.00000  Uiso   1.00
C1374  C     0.84759   0.99616   0.38468   0.00000  Uiso   1.00
C1375  C     0.88848   0.50916   0.36466   0.00000  Uiso   1.00
H1376  H     0.88151   0.52884   0.33873   0.00000  Uiso   1.00
H1377  H     0.90879   0.52720   0.38491   0.00000  Uiso   1.00
H1378  H     0.90590   0.98062   0.35522   0.00000  Uiso   1.00
H1379  H     0.85535   0.97596   0.41011   0.00000  Uiso   1.00
H1380  H     0.82907   0.97701   0.36399   0.00000  Uiso   1.00
H1381  H     0.81559   0.55626   0.37363   0.00000  Uiso   1.00
H1382  H     0.84392   0.55184   0.41805   0.00000  Uiso   1.00
C1383  C     0.67752   0.96515   0.60166   0.00000  Uiso   1.00
C1384  C     0.65241   0.50384   0.61532   0.00000  Uiso   1.00
C1385  C     0.61152   0.99084   0.63534   0.00000  Uiso   1.00
H1386  H     0.59121   0.97280   0.61510   0.00000  Uiso   1.00
H1387  H     0.61849   0.97117   0.66127   0.00000  Uiso   1.00
H1388  H     0.59410   0.51938   0.64478   0.00000  Uiso   1.00
H1389  H     0.67093   0.52299   0.63601   0.00000  Uiso   1.00
H1390  H     0.64465   0.52404   0.58989   0.00000  Uiso   1.00
H1391  H     0.65608   0.94816   0.58195   0.00000  Uiso   1.00
H1392  H     0.68441   0.94374   0.62637   0.00000  Uiso   1.00
C1393  C     0.69006   0.55605   0.89920   0.00000  Uiso   1.00
C1394  C     0.71620   0.59229   0.88190   0.00000  Uiso   1.00
C1395  C     0.68776   0.62607   0.86416   0.00000  Uiso   1.00
H1396  H     0.66825   0.61243   0.84059   0.00000  Uiso   1.00
H1397  H     0.66676   0.63971   0.88663   0.00000  Uiso   1.00
H1398  H     0.70740   0.65170   0.85176   0.00000  Uiso   1.00
H1399  H     0.73565   0.60678   0.90511   0.00000  Uiso   1.00
H1400  H     0.73774   0.58088   0.85892   0.00000  Uiso   1.00
H1401  H     0.66945   0.54163   0.87694   0.00000  Uiso   1.00
H1402  H     0.66883   0.57126   0.92044   0.00000  Uiso   1.00
C1403  C     0.81022   0.94615   0.09925   0.00000  Uiso   1.00
C1404  C     0.78408   0.90911   0.11505   0.00000  Uiso   1.00
C1405  C     0.81252   0.87442   0.13130   0.00000  Uiso   1.00
H1406  H     0.83359   0.86197   0.10828   0.00000  Uiso   1.00
H1407  H     0.83197   0.88680   0.15550   0.00000  Uiso   1.00
H1408  H     0.79288   0.84815   0.14249   0.00000  Uiso   1.00
H1409  H     0.76262   0.91944   0.13852   0.00000  Uiso   1.00
H1410  H     0.76457   0.89582   0.09127   0.00000  Uiso   1.00
H1411  H     0.83158   0.93198   0.07751   0.00000  Uiso   1.00
H1412  H     0.83070   0.95956   0.12213   0.00000  Uiso   1.00
C1413  C     0.93226   0.79409   0.89924   0.00000  Uiso   1.00
C1414  C     0.90370   0.75813   0.88486   0.00000  Uiso   1.00
C1415  C     0.86164   0.77476   0.86978   0.00000  Uiso   1.00
H1416  H     0.84365   0.78978   0.89365   0.00000  Uiso   1.00
H1417  H     0.86688   0.79796   0.84609   0.00000  Uiso   1.00
H1418  H     0.84269   0.74825   0.85821   0.00000  Uiso   1.00
H1419  H     0.91890   0.74054   0.86095   0.00000  Uiso   1.00
H1420  H     0.89758   0.73573   0.90906   0.00000  Uiso   1.00
H1421  H     0.91240   0.81237   0.91935   0.00000  Uiso   1.00
H1422  H     0.94070   0.81544   0.87493   0.00000  Uiso   1.00
C1423  C     0.57865   0.72784   0.10520   0.00000  Uiso   1.00
C1424  C     0.59717   0.76995   0.11905   0.00000  Uiso   1.00
C1425  C     0.63671   0.76296   0.14352   0.00000  Uiso   1.00
H1426  H     0.62901   0.74410   0.16977   0.00000  Uiso   1.00
H1427  H     0.66121   0.74628   0.12641   0.00000  Uiso   1.00
H1428  H     0.64953   0.79383   0.15286   0.00000  Uiso   1.00
H1429  H     0.60543   0.78959   0.09340   0.00000  Uiso   1.00
H1430  H     0.57430   0.78792   0.13669   0.00000  Uiso   1.00
H1431  H     0.57327   0.70624   0.13009   0.00000  Uiso   1.00
H1432  H     0.60392   0.71396   0.08761   0.00000  Uiso   1.00
C1433  C     0.81225   0.94849   0.90104   0.00000  Uiso   1.00
C1434  C     0.78758   0.91064   0.88514   0.00000  Uiso   1.00
C1435  C     0.81727   0.87878   0.86644   0.00000  Uiso   1.00
H1436  H     0.83374   0.89326   0.84131   0.00000  Uiso   1.00
H1437  H     0.84104   0.86769   0.88782   0.00000  Uiso   1.00
H1438  H     0.79892   0.85131   0.85602   0.00000  Uiso   1.00
H1439  H     0.77039   0.89504   0.90931   0.00000  Uiso   1.00
H1440  H     0.76411   0.92041   0.86308   0.00000  Uiso   1.00
H1441  H     0.83234   0.96294   0.87833   0.00000  Uiso   1.00
H1442  H     0.83414   0.93485   0.92271   0.00000  Uiso   1.00
C1443  C     0.69122   0.55722   0.10055   0.00000  Uiso   1.00
C1444  C     0.71819   0.59288   0.11761   0.00000  Uiso   1.00
C1445  C     0.69053   0.62764   0.13464   0.00000  Uiso   1.00
H1446  H     0.67014   0.64171   0.11181   0.00000  Uiso   1.00
H1447  H     0.67041   0.61476   0.15821   0.00000  Uiso   1.00
H1448  H     0.71076   0.65281   0.14688   0.00000  Uiso   1.00
H1449  H     0.73915   0.58106   0.14094   0.00000  Uiso   1.00
H1450  H     0.73826   0.60662   0.09438   0.00000  Uiso   1.00
H1451  H     0.67041   0.57290   0.07917   0.00000  Uiso   1.00
H1452  H     0.67032   0.54331   0.12294   0.00000  Uiso   1.00
C1453  C     0.52056   0.67115   0.90453   0.00000  Uiso   1.00
C1454  C     0.97615   0.65239   0.89879   0.00000  Uiso   1.00
C1455  C     0.95306   0.64599   0.93728   0.00000  Uiso   1.00
H1456  H     0.97191   0.62573   0.95709   0.00000  Uiso   1.00
H1457  H     0.94698   0.67676   0.95146   0.00000  Uiso   1.00
H1458  H     0.92231   0.63044   0.93186   0.00000  Uiso   1.00
H1459  H     0.95630   0.67246   0.87982   0.00000  Uiso   1.00
H1460  H     0.97939   0.62132   0.88434   0.00000  Uiso   1.00
H1461  H     0.53930   0.66973   0.87744   0.00000  Uiso   1.00
H1462  H     0.53630   0.64879   0.92426   0.00000  Uiso   1.00
C1463  C     0.92853   0.78396   0.09978   0.00000  Uiso   1.00
C1464  C     0.90401   0.74444   0.11225   0.00000  Uiso   1.00
C1465  C     0.86178   0.75620   0.13050   0.00000  Uiso   1.00
H1466  H     0.86681   0.77606   0.15656   0.00000  Uiso   1.00
H1467  H     0.84188   0.77366   0.10934   0.00000  Uiso   1.00
H1468  H     0.84486   0.72715   0.13940   0.00000  Uiso   1.00
H1469  H     0.89817   0.72432   0.08647   0.00000  Uiso   1.00
H1470  H     0.92205   0.72562   0.13369   0.00000  Uiso   1.00
H1471  H     0.93373   0.80508   0.12493   0.00000  Uiso   1.00
H1472  H     0.90740   0.80066   0.07945   0.00000  Uiso   1.00
N1473  N     0.60859   0.71217   0.45920   0.00000  Uiso   1.00
O1474  O     0.62022   0.74093   0.43448   0.00000  Uiso   1.00
O1475  O     0.63070   0.67779   0.46224   0.00000  Uiso   1.00
N1476  N     0.89141   0.78783   0.54080   0.00000  Uiso   1.00
O1477  O     0.86930   0.82222   0.53776   0.00000  Uiso   1.00
O1478  O     0.87978   0.75907   0.56552   0.00000  Uiso   1.00
N1479  N     0.80553   0.60042   0.45866   0.00000  Uiso   1.00
O1480  O     0.77908   0.61669   0.43393   0.00000  Uiso   1.00
O1481  O     0.84311   0.61642   0.46153   0.00000  Uiso   1.00
N1482  N     0.69447   0.89958   0.54134   0.00000  Uiso   1.00
O1483  O     0.65689   0.88358   0.53847   0.00000  Uiso   1.00
O1484  O     0.72092   0.88331   0.56607   0.00000  Uiso   1.00
N1485  N     0.89143   0.78786   0.45888   0.00000  Uiso   1.00
O1486  O     0.87980   0.75910   0.43431   0.00000  Uiso   1.00
O1487  O     0.86933   0.82224   0.46168   0.00000  Uiso   1.00
N1488  N     0.60857   0.71214   0.54112   0.00000  Uiso   1.00
O1489  O     0.63067   0.67775   0.53831   0.00000  Uiso   1.00
O1490  O     0.62020   0.74090   0.56569   0.00000  Uiso   1.00
N1491  N     0.69463   0.89936   0.45950   0.00000  Uiso   1.00
O1492  O     0.72113   0.88305   0.43495   0.00000  Uiso   1.00
O1493  O     0.65709   0.88328   0.46249   0.00000  Uiso   1.00
N1494  N     0.80537   0.60064   0.54050   0.00000  Uiso   1.00
O1495  O     0.84291   0.61672   0.53751   0.00000  Uiso   1.00
O1496  O     0.77887   0.61695   0.56505   0.00000  Uiso   1.00
N1497  N     0.86474   0.99354   0.95932   0.00000  Uiso   1.00
O1498  O     0.89564   0.96688   0.96291   0.00000  Uiso   1.00
O1499  O     0.86798   0.52398   0.93414   0.00000  Uiso   1.00
N1500  N     0.63625   0.51782   0.04106   0.00000  Uiso   1.00
O1501  O     0.63010   0.98743   0.06581   0.00000  Uiso   1.00
O1502  O     0.60841   0.54779   0.03824   0.00000  Uiso   1.00
N1503  N     0.59277   0.67878   0.95895   0.00000  Uiso   1.00
O1504  O     0.61222   0.69849   0.93109   0.00000  Uiso   1.00
O1505  O     0.60110   0.63916   0.96503   0.00000  Uiso   1.00
N1506  N     0.94634   0.85244   0.04228   0.00000  Uiso   1.00
O1507  O     0.90798   0.86659   0.03915   0.00000  Uiso   1.00
O1508  O     0.97121   0.86867   0.06824   0.00000  Uiso   1.00
N1509  N     0.63621   0.51535   0.95909   0.00000  Uiso   1.00
O1510  O     0.60674   0.54364   0.96217   0.00000  Uiso   1.00
O1511  O     0.63132   0.98464   0.93460   0.00000  Uiso   1.00
N1512  N     0.86453   0.99048   0.04166   0.00000  Uiso   1.00
O1513  O     0.86892   0.52039   0.06704   0.00000  Uiso   1.00
O1514  O     0.89380   0.96195   0.03869   0.00000  Uiso   1.00
N1515  N     0.95335   0.85654   0.96057   0.00000  Uiso   1.00
O1516  O     0.98084   0.87114   0.93600   0.00000  Uiso   1.00
O1517  O     0.91734   0.87574   0.96418   0.00000  Uiso   1.00
N1518  N     0.58278   0.66655   0.04043   0.00000  Uiso   1.00
O1519  O     0.56285   0.64190   0.06439   0.00000  Uiso   1.00
O1520  O     0.62336   0.66239   0.03633   0.00000  Uiso   1.00
loop_
_geom_bond_atom_site_label_1
_geom_bond_atom_site_label_2
_geom_bond_distance
_geom_bond_site_symmetry_2
_ccdc_geom_bond_type
Zn1    O17     1.933   .     S
Zn1    O63     1.913   .     S
Zn1    O32     1.947   .     S
Zn1    O820    1.914   1_545 S
Zn2    O59     1.914   .     S
Zn2    O18     1.933   .     S
Zn2    O31     1.947   .     S
Zn2    O824    1.913   1_545 S
Zn3    O19     1.937   .     S
Zn3    O441    1.914   1_455 S
Zn3    O34     1.946   .     S
Zn3    O54     1.911   .     S
Zn4    O33     1.946   .     S
Zn4    O62     1.914   .     S
Zn4    O20     1.937   .     S
Zn4    O433    1.911   1_455 S
Zn5    O36     1.947   .     S
Zn5    O56     1.916   .     S
Zn5    O17     1.933   .     S
Zn5    O827    1.911   1_545 S
Zn6    O68     1.911   .     S
Zn6    O18     1.933   .     S
Zn6    O35     1.947   .     S
Zn6    O815    1.916   1_545 S
Zn7    O30     1.949   .     S
Zn7    O65     1.915   .     S
Zn7    O19     1.931   .     S
Zn7    O438    1.912   1_455 S
Zn8    O57     1.912   .     S
Zn8    O20     1.931   .     S
Zn8    O29     1.949   .     S
Zn8    O446    1.915   1_455 S
Zn9    O400    1.933   .     S
Zn9    O47     1.913   .     S
Zn9    O44     1.914   .     S
Zn9    O24     1.947   .     S
Zn10   O48     1.913   .     S
Zn10   O43     1.914   .     S
Zn10   O23     1.947   .     S
Zn10   O19     1.933   .     S
Zn11   O38     1.911   .     S
Zn11   O45     1.914   .     S
Zn11   O26     1.946   .     S
Zn11   O778    1.937   .     S
Zn12   O46     1.914   .     S
Zn12   O37     1.911   .     S
Zn12   O25     1.946   .     S
Zn12   O17     1.937   .     S
Zn13   O51     1.911   .     S
Zn13   O40     1.916   .     S
Zn13   O28     1.947   .     S
Zn13   O20     1.933   .     S
Zn14   O52     1.911   .     S
Zn14   O399    1.933   .     S
Zn14   O39     1.916   .     S
Zn14   O27     1.947   .     S
Zn15   O42     1.912   .     S
Zn15   O49     1.915   .     S
Zn15   O18     1.931   .     S
Zn15   O22     1.949   .     S
Zn16   O21     1.949   .     S
Zn16   O41     1.912   .     S
Zn16   O50     1.915   .     S
Zn16   O777    1.931   .     S
O17    Zn776   1.931   1_545 S
O18    Zn771   1.937   1_545 S
O19    Zn394   1.933   1_455 S
O20    Zn389   1.933   1_455 S
O21    C69     1.270   .     A
O22    C70     1.270   .     A
O23    C71     1.270   .     A
O24    C72     1.270   .     A
O25    C829    1.270   1_545 S
O26    C830    1.270   .     S
O27    C451    1.270   .     S
O28    C452    1.270   1_455 S
O29    C453    1.265   1_455 A
O30    C74     1.266   .     A
O31    C75     1.271   .     A
O32    C76     1.271   .     A
O33    C453    1.285   1_455 S
O34    C74     1.273   .     A
O35    C75     1.272   .     A
O36    C76     1.270   .     A
O37    C77     1.275   .     A
O38    C78     1.275   .     A
O39    C79     1.276   .     A
O40    C80     1.276   .     A
O41    C81     1.274   .     A
O42    C82     1.274   .     A
O43    C83     1.274   .     A
O44    C84     1.274   .     A
O45    C85     1.275   .     A
O46    C86     1.275   .     A
O47    C87     1.276   .     A
O48    C88     1.276   .     A
O49    C89     1.274   .     A
O50    C90     1.274   .     A
O51    C91     1.274   .     A
O52    C92     1.274   .     A
O53    C87     1.275   .     A
O53    Zn384   1.911   .     S
O54    C88     1.275   .     A
O55    C85     1.276   .     A
O55    Zn766   1.916   .     S
O56    C86     1.276   .     A
O57    C91     1.274   .     A
O58    C92     1.274   .     A
O58    Zn387   1.912   .     S
O59    C89     1.274   .     A
O60    C90     1.274   .     A
O60    Zn761   1.914   .     S
O61    Zn383   1.914   .     S
O61    C79     1.276   .     A
O62    C80     1.276   .     A
O63    C77     1.276   .     A
O64    C78     1.276   .     A
O64    Zn762   1.913   .     S
O65    C83     1.274   .     A
O66    C84     1.274   .     A
O66    Zn388   1.915   .     S
O67    C81     1.274   .     A
O67    Zn765   1.911   .     S
O68    C82     1.274   .     A
C69    C127    1.465   .     S
C69    O785    1.270   .     S
C70    C128    1.465   .     S
C70    O786    1.270   1_545 S
C71    C125    1.466   .     S
C71    O407    1.270   1_455 S
C72    C126    1.466   .     S
C72    O408    1.270   .     S
C73    C131    1.482   .     S
C73    O409    1.265   .     A
C73    O413    1.285   .     S
C74    C132    1.463   .     S
C75    C129    1.469   .     S
C76    C130    1.467   .     S
C77    C106    1.420   .     S
C78    C105    1.420   .     S
C79    C104    1.422   .     S
C80    C103    1.422   .     S
C81    C102    1.419   .     S
C82    C101    1.419   .     S
C83    C108    1.421   .     S
C84    C107    1.421   .     S
C85    C98     1.422   .     S
C86    C97     1.422   .     S
C87    C96     1.420   .     S
C88    C95     1.420   .     S
C89    C94     1.421   .     S
C90    C93     1.421   .     S
C91    C100    1.419   .     S
C92    C99     1.419   .     S
C93    C108    1.198   .     T
C94    C107    1.198   .     T
C95    C106    1.197   .     T
C96    C105    1.197   .     T
C97    C104    1.198   .     T
C98    C103    1.198   .     T
C99    C102    1.197   .     T
C100   C101    1.197   .     T
C109   C173    1.532   .     S
C109   C137    1.415   .     A
C109   C505    1.417   .     S
C110   C138    1.415   .     A
C110   C183    1.532   .     S
C110   C506    1.417   1_455 S
C111   C139    1.416   .     A
C111   C193    1.530   .     S
C111   C127    1.414   .     A
C112   C140    1.416   .     A
C112   C128    1.414   .     A
C112   C203    1.530   .     S
C113   C133    1.415   .     A
C113   C125    1.417   .     A
C113   C213    1.532   .     S
C114   C223    1.532   .     S
C114   C134    1.415   .     A
C114   C126    1.417   .     A
C115   C135    1.416   .     A
C115   C233    1.530   .     S
C115   C887    1.414   1_545 S
C116   C136    1.416   .     A
C116   C243    1.530   .     S
C116   C888    1.414   .     S
C117   C253    1.533   .     S
C117   C129    1.421   .     A
C117   C145    1.413   .     A
C118   C263    1.533   .     S
C118   C146    1.411   .     A
C118   C890    1.420   .     S
C119   C131    1.412   .     A
C119   C147    1.420   .     A
C119   C273    1.535   .     S
C120   C148    1.423   .     A
C120   C283    1.533   .     S
C120   C132    1.414   .     A
C121   C293    1.532   .     S
C121   C141    1.411   .     A
C121   C889    1.421   .     S
C122   C303    1.533   .     S
C122   C142    1.413   .     A
C122   C130    1.421   .     A
C123   C313    1.535   .     S
C123   C143    1.414   .     A
C123   C511    1.419   1_455 S
C124   C323    1.530   .     S
C124   C144    1.414   .     A
C124   C512    1.412   .     S
C125   C489    1.417   1_455 S
C126   C490    1.417   .     S
C127   C875    1.414   .     S
C128   C876    1.414   1_545 S
C129   C881    1.421   1_545 S
C130   C878    1.420   1_545 S
C131   C503    1.419   .     S
C132   C504    1.412   1_455 S
C133   C149    1.413   .     A
C133   C157    1.418   .     A
C134   C158    1.418   .     A
C134   C150    1.413   .     A
C135   C159    1.418   .     A
C135   C911    1.414   1_545 S
C136   C160    1.418   .     A
C136   C912    1.414   .     S
C137   C161    1.418   .     A
C137   C529    1.413   .     S
C138   C162    1.418   .     A
C138   C530    1.413   1_455 S
C139   C163    1.418   .     A
C139   C151    1.414   .     A
C140   C152    1.414   .     A
C140   C164    1.418   .     A
C141   C165    1.417   .     A
C141   C913    1.410   .     S
C142   C166    1.419   .     A
C142   C154    1.410   .     A
C143   C155    1.411   .     A
C143   C167    1.419   .     A
C144   C168    1.417   .     A
C144   C536    1.413   .     S
C145   C169    1.418   .     A
C145   C153    1.410   .     A
C146   C170    1.417   .     A
C146   C914    1.410   .     S
C147   C171    1.419   .     A
C147   C535    1.420   .     S
C148   C156    1.421   .     A
C148   C172    1.422   .     A
C149   C517    1.413   1_455 S
C149   C530    1.404   1_455 S
C150   C518    1.413   .     S
C150   C529    1.404   .     S
C151   C895    1.414   .     S
C151   C912    1.406   .     S
C152   C896    1.414   1_545 S
C152   C911    1.406   1_545 S
C153   C901    1.410   1_545 S
C153   C154    1.401   1_556 S
C154   C906    1.410   1_545 S
C154   C153    1.401   1_554 S
C155   C527    1.420   1_455 S
C155   C156    1.409   1_556 S
C156   C524    1.413   1_455 S
C156   C155    1.409   1_554 S
C157   N333    1.439   .     S
C157   C162    1.411   .     A
C158   C161    1.411   .     A
C158   N336    1.439   .     S
C159   C164    1.412   .     A
C159   N339    1.439   .     S
C160   C163    1.412   .     A
C160   N342    1.439   .     S
C161   N345    1.439   .     S
C162   N348    1.439   .     S
C163   N351    1.439   .     S
C164   N354    1.439   .     S
C165   N357    1.440   .     S
C165   C170    1.409   1_556 S
C166   N360    1.439   .     S
C166   C169    1.411   1_554 S
C167   N363    1.441   .     S
C167   C172    1.408   1_556 S
C168   N366    1.438   .     S
C168   C171    1.410   1_554 S
C169   N369    1.439   .     S
C169   C166    1.411   1_556 S
C170   N372    1.439   .     S
C170   C165    1.409   1_554 S
C171   N375    1.440   .     S
C171   C168    1.410   1_556 S
C172   N378    1.437   .     S
C172   C167    1.408   1_554 S
C173   H181    1.109   .     S
C173   C174    1.539   .     S
C173   H182    1.105   .     S
C174   C175    1.527   .     S
C174   H559    1.112   .     S
C174   H560    1.108   .     S
C175   H177    1.111   .     S
C175   H178    1.110   .     S
C175   H176    1.111   .     S
H179   C554    1.112   1_455 S
H180   C554    1.108   1_455 S
C183   H192    1.109   .     S
C183   C184    1.539   .     S
C183   H191    1.105   .     S
C184   C185    1.527   .     S
C184   H569    1.108   1_455 S
C184   H570    1.112   1_455 S
C185   H187    1.111   .     S
C185   H186    1.111   .     S
C185   H188    1.110   .     S
H189   C564    1.108   .     S
H190   C564    1.112   .     S
C193   H201    1.110   .     S
C193   H202    1.104   .     S
C193   C954    1.539   .     S
C194   H200    1.108   .     S
C194   H199    1.112   .     S
C194   C953    1.539   1_545 S
C194   C955    1.527   1_545 S
C195   H196    1.111   .     S
C195   H197    1.111   .     S
C195   C954    1.527   .     S
C195   H958    1.111   .     S
H198   C955    1.111   1_545 S
C203   H211    1.104   .     S
C203   H212    1.110   .     S
C203   C964    1.539   1_545 S
C204   H209    1.108   .     S
C204   H210    1.112   .     S
C204   C963    1.539   .     S
C204   C965    1.527   .     S
C205   H207    1.111   .     S
C205   H206    1.111   .     S
C205   C964    1.527   1_545 S
C205   H968    1.111   1_545 S
H208   C965    1.111   .     S
C213   H222    1.105   .     S
C213   C214    1.539   .     S
C213   H221    1.109   .     S
C214   C215    1.527   .     S
C214   H599    1.112   1_455 S
C214   H600    1.108   1_455 S
C215   H218    1.110   .     S
C215   H216    1.111   .     S
C215   H217    1.111   .     S
H219   C594    1.112   .     S
H220   C594    1.108   .     S
C223   C224    1.539   .     S
C223   H232    1.109   .     S
C223   H231    1.105   .     S
C224   C225    1.527   .     S
C224   H609    1.108   .     S
C224   H610    1.112   .     S
C225   H228    1.110   .     S
C225   H226    1.111   .     S
C225   H227    1.111   .     S
H229   C604    1.108   1_455 S
H230   C604    1.112   1_455 S
C233   H241    1.110   .     S
C233   H242    1.104   .     S
C233   C994    1.539   1_545 S
C234   H240    1.108   .     S
C234   H239    1.112   .     S
C234   C993    1.539   .     S
C234   C995    1.527   .     S
C235   H236    1.111   .     S
C235   H237    1.111   .     S
C235   C994    1.527   1_545 S
C235   H998    1.111   1_545 S
H238   C995    1.111   .     S
C243   H251    1.104   .     S
C243   H252    1.110   .     S
C243   C1004   1.539   .     S
C244   H249    1.108   .     S
C244   H250    1.112   .     S
C244   C1003   1.539   1_545 S
C244   C1005   1.527   1_545 S
C245   H246    1.111   .     S
C245   H247    1.111   .     S
C245   C1004   1.527   .     S
C245   H1008   1.111   .     S
H248   C1005   1.111   1_545 S
C253   H261    1.109   .     S
C253   C254    1.539   .     S
C253   H262    1.107   .     S
C254   H259    1.112   .     S
C254   H260    1.108   .     S
C254   C255    1.527   .     S
C255   H257    1.111   .     S
C255   H258    1.110   .     S
C255   H256    1.111   .     S
C263   H271    1.107   .     S
C263   C264    1.539   .     S
C263   H272    1.109   .     S
C264   H269    1.108   .     S
C264   C265    1.528   .     S
C264   H270    1.112   .     S
C265   H267    1.111   .     S
C265   H266    1.111   .     S
C265   H268    1.110   .     S
C273   H282    1.109   .     S
C273   H281    1.103   .     S
C273   C274    1.542   .     S
C274   C275    1.525   .     S
C274   H279    1.108   .     S
C274   H280    1.112   .     S
C275   H278    1.110   .     S
C275   H276    1.110   .     S
C275   H277    1.111   .     S
C283   H292    1.098   .     S
C283   C284    1.539   .     S
C283   H291    1.111   .     S
C284   C285    1.527   .     S
C284   H290    1.106   .     S
C284   H289    1.112   .     S
C285   H287    1.111   .     S
C285   H286    1.111   .     S
C285   H288    1.111   .     S
C293   C294    1.538   .     S
C293   H301    1.109   .     S
C293   H302    1.107   .     S
C294   H299    1.112   .     S
C294   C295    1.526   .     S
C294   H300    1.108   .     S
C295   H297    1.111   .     S
C295   H296    1.111   .     S
C295   H298    1.110   .     S
C303   C304    1.539   .     S
C303   H311    1.106   .     S
C303   H312    1.109   .     S
C304   H310    1.112   .     S
C304   C305    1.528   .     S
C304   H309    1.108   .     S
C305   H307    1.111   .     S
C305   H306    1.111   .     S
C305   H308    1.110   .     S
C313   H322    1.101   .     S
C313   H321    1.109   .     S
C313   C694    1.544   1_455 S
C314   C315    1.529   .     S
C314   H319    1.108   .     S
C314   H320    1.112   .     S
C314   C693    1.544   .     S
C315   H318    1.110   .     S
C315   H316    1.111   .     S
C315   H317    1.111   .     S
C323   C324    1.538   .     S
C323   H332    1.104   .     S
C323   H331    1.110   .     S
C324   C325    1.527   .     S
C324   H329    1.112   .     S
C324   H330    1.108   .     S
C325   H327    1.111   .     S
C325   H326    1.111   .     S
C325   H328    1.110   .     S
N333   O334    1.301   .     A
N333   O335    1.301   .     A
N336   O337    1.301   .     A
N336   O338    1.301   .     A
N339   O340    1.301   .     A
N339   O341    1.301   .     A
N342   O343    1.301   .     A
N342   O344    1.301   .     A
N345   O347    1.301   .     A
N345   O346    1.301   .     A
N348   O349    1.301   .     A
N348   O350    1.301   .     A
N351   O352    1.301   .     A
N351   O353    1.301   .     A
N354   O355    1.301   .     A
N354   O356    1.301   .     A
N357   O358    1.300   .     A
N357   O1119   1.301   .     S
O359   N1117   1.301   1_545 S
N360   O362    1.301   .     A
N360   O1121   1.301   1_545 S
O361   N1120   1.301   .     S
N363   O365    1.302   .     A
N363   O364    1.301   .     A
N366   O367    1.301   .     A
N366   O368    1.301   .     A
N369   O370    1.300   .     A
N369   O1131   1.301   1_545 S
O371   N1129   1.301   .     S
N372   O374    1.301   .     A
N372   O1133   1.301   .     S
O373   N1132   1.301   1_545 S
N375   O376    1.301   .     A
N375   O377    1.301   .     A
N378   O379    1.301   .     A
N378   O380    1.302   .     A
Zn381  O397    1.933   .     S
Zn381  O443    1.913   .     S
Zn381  O412    1.947   .     S
Zn381  O1200   1.914   1_545 S
Zn382  O439    1.914   .     S
Zn382  O398    1.933   .     S
Zn382  O411    1.947   .     S
Zn382  O1204   1.913   1_545 S
Zn383  O399    1.937   .     S
Zn383  O414    1.946   .     S
Zn383  O434    1.911   .     S
Zn384  O413    1.946   .     S
Zn384  O442    1.914   .     S
Zn384  O400    1.937   .     S
Zn385  O416    1.947   .     S
Zn385  O436    1.916   .     S
Zn385  O397    1.933   .     S
Zn385  O1207   1.911   1_545 S
Zn386  O448    1.911   .     S
Zn386  O398    1.933   .     S
Zn386  O415    1.947   .     S
Zn386  O1195   1.916   1_545 S
Zn387  O410    1.949   .     S
Zn387  O445    1.915   .     S
Zn387  O399    1.931   .     S
Zn388  O437    1.912   .     S
Zn388  O400    1.931   .     S
Zn388  O409    1.949   .     S
Zn389  O20     1.933   1_655 S
Zn389  O427    1.913   .     S
Zn389  O424    1.914   .     S
Zn389  O404    1.947   .     S
Zn390  O428    1.913   .     S
Zn390  O423    1.914   .     S
Zn390  O403    1.947   .     S
Zn390  O399    1.933   .     S
Zn391  O418    1.911   .     S
Zn391  O425    1.914   .     S
Zn391  O406    1.946   .     S
Zn391  O1158   1.937   .     S
Zn392  O426    1.914   .     S
Zn392  O417    1.911   .     S
Zn392  O405    1.946   .     S
Zn392  O397    1.937   .     S
Zn393  O431    1.911   .     S
Zn393  O420    1.916   .     S
Zn393  O408    1.947   .     S
Zn393  O400    1.933   .     S
Zn394  O432    1.911   .     S
Zn394  O19     1.933   1_655 S
Zn394  O419    1.916   .     S
Zn394  O407    1.947   .     S
Zn395  O422    1.912   .     S
Zn395  O429    1.915   .     S
Zn395  O398    1.931   .     S
Zn395  O402    1.949   .     S
Zn396  O401    1.949   .     S
Zn396  O421    1.912   .     S
Zn396  O430    1.915   .     S
Zn396  O1157   1.931   .     S
O397   Zn1156  1.931   1_545 S
O398   Zn1151  1.937   1_545 S
O401   C449    1.270   .     A
O402   C450    1.270   .     A
O403   C451    1.270   .     A
O404   C452    1.270   .     A
O405   C1209   1.270   1_545 S
O406   C1210   1.270   .     S
O407   C71     1.270   1_655 S
O410   C454    1.266   .     A
O411   C455    1.271   .     A
O412   C456    1.271   .     A
O414   C454    1.273   .     A
O415   C455    1.272   .     A
O416   C456    1.270   .     A
O417   C457    1.275   .     A
O418   C458    1.275   .     A
O419   C459    1.276   .     A
O420   C460    1.276   .     A
O421   C461    1.274   .     A
O422   C462    1.274   .     A
O423   C463    1.274   .     A
O424   C464    1.274   .     A
O425   C465    1.275   .     A
O426   C466    1.275   .     A
O427   C467    1.276   .     A
O428   C468    1.276   .     A
O429   C469    1.274   .     A
O430   C470    1.274   .     A
O431   C471    1.274   .     A
O432   C472    1.274   .     A
O433   C467    1.275   .     A
O433   Zn4     1.911   1_655 S
O434   C468    1.275   .     A
O435   C465    1.276   .     A
O435   Zn1146  1.916   .     S
O436   C466    1.276   .     A
O437   C471    1.274   .     A
O438   C472    1.274   .     A
O438   Zn7     1.912   1_655 S
O439   C469    1.274   .     A
O440   C470    1.274   .     A
O440   Zn1141  1.914   .     S
O441   Zn3     1.914   1_655 S
O441   C459    1.276   .     A
O442   C460    1.276   .     A
O443   C457    1.276   .     A
O444   C458    1.276   .     A
O444   Zn1142  1.913   .     S
O445   C463    1.274   .     A
O446   C464    1.274   .     A
O446   Zn8     1.915   1_655 S
O447   C461    1.274   .     A
O447   Zn1145  1.911   .     S
O448   C462    1.274   .     A
C449   C507    1.465   .     S
C449   O1165   1.270   .     S
C450   C508    1.465   .     S
C450   O1166   1.270   1_545 S
C451   C505    1.466   .     S
C452   C506    1.466   .     S
C452   O28     1.270   1_655 S
C453   C511    1.482   .     S
C453   O29     1.265   1_655 A
C453   O33     1.285   1_655 S
C454   C512    1.463   .     S
C455   C509    1.469   .     S
C456   C510    1.467   .     S
C457   C486    1.420   .     S
C458   C485    1.420   .     S
C459   C484    1.422   .     S
C460   C483    1.422   .     S
C461   C482    1.419   .     S
C462   C481    1.419   .     S
C463   C488    1.421   .     S
C464   C487    1.421   .     S
C465   C478    1.422   .     S
C466   C477    1.422   .     S
C467   C476    1.420   .     S
C468   C475    1.420   .     S
C469   C474    1.421   .     S
C470   C473    1.421   .     S
C471   C480    1.419   .     S
C472   C479    1.419   .     S
C473   C488    1.198   .     T
C474   C487    1.198   .     T
C475   C486    1.197   .     T
C476   C485    1.197   .     T
C477   C484    1.198   .     T
C478   C483    1.198   .     T
C479   C482    1.197   .     T
C480   C481    1.197   .     T
C489   C553    1.532   .     S
C489   C517    1.415   .     A
C489   C125    1.417   1_655 S
C490   C518    1.415   .     A
C490   C563    1.532   .     S
C491   C519    1.416   .     A
C491   C573    1.530   .     S
C491   C507    1.414   .     A
C492   C520    1.416   .     A
C492   C508    1.414   .     A
C492   C583    1.530   .     S
C493   C513    1.415   .     A
C493   C505    1.417   .     A
C493   C593    1.532   .     S
C494   C603    1.532   .     S
C494   C514    1.415   .     A
C494   C506    1.417   .     A
C495   C515    1.416   .     A
C495   C613    1.530   .     S
C495   C1267   1.414   1_545 S
C496   C516    1.416   .     A
C496   C623    1.530   .     S
C496   C1268   1.414   .     S
C497   C633    1.533   .     S
C497   C509    1.421   .     A
C497   C525    1.413   .     A
C498   C643    1.533   .     S
C498   C526    1.411   .     A
C498   C1270   1.420   .     S
C499   C511    1.412   .     A
C499   C527    1.420   .     A
C499   C653    1.535   .     S
C500   C528    1.423   .     A
C500   C663    1.533   .     S
C500   C512    1.414   .     A
C501   C673    1.532   .     S
C501   C521    1.411   .     A
C501   C1269   1.421   .     S
C502   C683    1.533   .     S
C502   C522    1.413   .     A
C502   C510    1.421   .     A
C503   C693    1.535   .     S
C503   C523    1.414   .     A
C504   C703    1.530   .     S
C504   C524    1.414   .     A
C504   C132    1.412   1_655 S
C506   C110    1.417   1_655 S
C507   C1255   1.414   .     S
C508   C1256   1.414   1_545 S
C509   C1261   1.421   1_545 S
C510   C1258   1.420   1_545 S
C511   C123    1.419   1_655 S
C513   C529    1.413   .     A
C513   C537    1.418   .     A
C514   C538    1.418   .     A
C514   C530    1.413   .     A
C515   C539    1.418   .     A
C515   C1291   1.414   1_545 S
C516   C540    1.418   .     A
C516   C1292   1.414   .     S
C517   C541    1.418   .     A
C517   C149    1.413   1_655 S
C518   C542    1.418   .     A
C519   C543    1.418   .     A
C519   C531    1.414   .     A
C520   C532    1.414   .     A
C520   C544    1.418   .     A
C521   C545    1.417   .     A
C521   C1293   1.410   .     S
C522   C546    1.419   .     A
C522   C534    1.410   .     A
C523   C535    1.411   .     A
C523   C547    1.419   .     A
C524   C548    1.417   .     A
C524   C156    1.413   1_655 S
C525   C549    1.418   .     A
C525   C533    1.410   .     A
C526   C550    1.417   .     A
C526   C1294   1.410   .     S
C527   C551    1.419   .     A
C527   C155    1.420   1_655 S
C528   C536    1.421   .     A
C528   C552    1.422   .     A
C530   C138    1.413   1_655 S
C530   C149    1.404   1_655 S
C531   C1275   1.414   .     S
C531   C1292   1.406   .     S
C532   C1276   1.414   1_545 S
C532   C1291   1.406   1_545 S
C533   C1281   1.410   1_545 S
C533   C534    1.401   1_556 S
C534   C1286   1.410   1_545 S
C534   C533    1.401   1_554 S
C535   C536    1.409   1_556 S
C536   C535    1.409   1_554 S
C537   N713    1.439   .     S
C537   C542    1.411   .     A
C538   C541    1.411   .     A
C538   N716    1.439   .     S
C539   C544    1.412   .     A
C539   N719    1.439   .     S
C540   C543    1.412   .     A
C540   N722    1.439   .     S
C541   N725    1.439   .     S
C542   N728    1.439   .     S
C543   N731    1.439   .     S
C544   N734    1.439   .     S
C545   N737    1.440   .     S
C545   C550    1.409   1_556 S
C546   N740    1.439   .     S
C546   C549    1.411   1_554 S
C547   N743    1.441   .     S
C547   C552    1.408   1_556 S
C548   N746    1.438   .     S
C548   C551    1.410   1_554 S
C549   N749    1.439   .     S
C549   C546    1.411   1_556 S
C550   N752    1.439   .     S
C550   C545    1.409   1_554 S
C551   N755    1.440   .     S
C551   C548    1.410   1_556 S
C552   N758    1.437   .     S
C552   C547    1.408   1_554 S
C553   H561    1.109   .     S
C553   C554    1.539   .     S
C553   H562    1.105   .     S
C554   C555    1.527   .     S
C554   H179    1.112   1_655 S
C554   H180    1.108   1_655 S
C555   H557    1.111   .     S
C555   H558    1.110   .     S
C555   H556    1.111   .     S
C563   H572    1.109   .     S
C563   C564    1.539   .     S
C563   H571    1.105   .     S
C564   C565    1.527   .     S
C565   H567    1.111   .     S
C565   H566    1.111   .     S
C565   H568    1.110   .     S
H569   C184    1.108   1_655 S
H570   C184    1.112   1_655 S
C573   H581    1.110   .     S
C573   H582    1.104   .     S
C573   C1334   1.539   .     S
C574   H580    1.108   .     S
C574   H579    1.112   .     S
C574   C1333   1.539   1_545 S
C574   C1335   1.527   1_545 S
C575   H576    1.111   .     S
C575   H577    1.111   .     S
C575   C1334   1.527   .     S
C575   H1338   1.111   .     S
H578   C1335   1.111   1_545 S
C583   H591    1.104   .     S
C583   H592    1.110   .     S
C583   C1344   1.539   1_545 S
C584   H589    1.108   .     S
C584   H590    1.112   .     S
C584   C1343   1.539   .     S
C584   C1345   1.527   .     S
C585   H587    1.111   .     S
C585   H586    1.111   .     S
C585   C1344   1.527   1_545 S
C585   H1348   1.111   1_545 S
H588   C1345   1.111   .     S
C593   H602    1.105   .     S
C593   C594    1.539   .     S
C593   H601    1.109   .     S
C594   C595    1.527   .     S
C595   H598    1.110   .     S
C595   H596    1.111   .     S
C595   H597    1.111   .     S
H599   C214    1.112   1_655 S
H600   C214    1.108   1_655 S
C603   C604    1.539   .     S
C603   H612    1.109   .     S
C603   H611    1.105   .     S
C604   C605    1.527   .     S
C604   H229    1.108   1_655 S
C604   H230    1.112   1_655 S
C605   H608    1.110   .     S
C605   H606    1.111   .     S
C605   H607    1.111   .     S
C613   H621    1.110   .     S
C613   H622    1.104   .     S
C613   C1374   1.539   1_545 S
C614   H620    1.108   .     S
C614   H619    1.112   .     S
C614   C1373   1.539   .     S
C614   C1375   1.527   .     S
C615   H616    1.111   .     S
C615   H617    1.111   .     S
C615   C1374   1.527   1_545 S
C615   H1378   1.111   1_545 S
H618   C1375   1.111   .     S
C623   H631    1.104   .     S
C623   H632    1.110   .     S
C623   C1384   1.539   .     S
C624   H629    1.108   .     S
C624   H630    1.112   .     S
C624   C1383   1.539   1_545 S
C624   C1385   1.527   1_545 S
C625   H626    1.111   .     S
C625   H627    1.111   .     S
C625   C1384   1.527   .     S
C625   H1388   1.111   .     S
H628   C1385   1.111   1_545 S
C633   H641    1.109   .     S
C633   C634    1.539   .     S
C633   H642    1.107   .     S
C634   H639    1.112   .     S
C634   H640    1.108   .     S
C634   C635    1.527   .     S
C635   H637    1.111   .     S
C635   H638    1.110   .     S
C635   H636    1.111   .     S
C643   H651    1.107   .     S
C643   C644    1.539   .     S
C643   H652    1.109   .     S
C644   H649    1.108   .     S
C644   C645    1.528   .     S
C644   H650    1.112   .     S
C645   H647    1.111   .     S
C645   H646    1.111   .     S
C645   H648    1.110   .     S
C653   H662    1.109   .     S
C653   H661    1.103   .     S
C653   C654    1.542   .     S
C654   C655    1.525   .     S
C654   H659    1.108   .     S
C654   H660    1.112   .     S
C655   H658    1.110   .     S
C655   H656    1.110   .     S
C655   H657    1.111   .     S
C663   H672    1.098   .     S
C663   C664    1.539   .     S
C663   H671    1.111   .     S
C664   C665    1.527   .     S
C664   H670    1.106   .     S
C664   H669    1.112   .     S
C665   H667    1.111   .     S
C665   H666    1.111   .     S
C665   H668    1.111   .     S
C673   C674    1.538   .     S
C673   H681    1.109   .     S
C673   H682    1.107   .     S
C674   H679    1.112   .     S
C674   C675    1.526   .     S
C674   H680    1.108   .     S
C675   H677    1.111   .     S
C675   H676    1.111   .     S
C675   H678    1.110   .     S
C683   C684    1.539   .     S
C683   H691    1.106   .     S
C683   H692    1.109   .     S
C684   H690    1.112   .     S
C684   C685    1.528   .     S
C684   H689    1.108   .     S
C685   H687    1.111   .     S
C685   H686    1.111   .     S
C685   H688    1.110   .     S
C693   H702    1.101   .     S
C693   H701    1.109   .     S
C694   C695    1.529   .     S
C694   H699    1.108   .     S
C694   H700    1.112   .     S
C694   C313    1.544   1_655 S
C695   H698    1.110   .     S
C695   H696    1.111   .     S
C695   H697    1.111   .     S
C703   C704    1.538   .     S
C703   H712    1.104   .     S
C703   H711    1.110   .     S
C704   C705    1.527   .     S
C704   H709    1.112   .     S
C704   H710    1.108   .     S
C705   H707    1.111   .     S
C705   H706    1.111   .     S
C705   H708    1.110   .     S
N713   O714    1.301   .     A
N713   O715    1.301   .     A
N716   O717    1.301   .     A
N716   O718    1.301   .     A
N719   O720    1.301   .     A
N719   O721    1.301   .     A
N722   O723    1.301   .     A
N722   O724    1.301   .     A
N725   O727    1.301   .     A
N725   O726    1.301   .     A
N728   O729    1.301   .     A
N728   O730    1.301   .     A
N731   O732    1.301   .     A
N731   O733    1.301   .     A
N734   O735    1.301   .     A
N734   O736    1.301   .     A
N737   O738    1.300   .     A
N737   O1499   1.301   .     S
O739   N1497   1.301   1_545 S
N740   O742    1.301   .     A
N740   O1501   1.301   1_545 S
O741   N1500   1.301   .     S
N743   O745    1.302   .     A
N743   O744    1.301   .     A
N746   O747    1.301   .     A
N746   O748    1.301   .     A
N749   O750    1.300   .     A
N749   O1511   1.301   1_545 S
O751   N1509   1.301   .     S
N752   O754    1.301   .     A
N752   O1513   1.301   .     S
O753   N1512   1.301   1_545 S
N755   O756    1.301   .     A
N755   O757    1.301   .     A
N758   O759    1.301   .     A
N758   O760    1.302   .     A
Zn761  O777    1.933   .     S
Zn761  O823    1.913   .     S
Zn761  O792    1.947   .     S
Zn762  O819    1.914   .     S
Zn762  O778    1.933   .     S
Zn762  O791    1.947   .     S
Zn763  O779    1.937   .     S
Zn763  O1201   1.914   1_455 S
Zn763  O794    1.946   .     S
Zn763  O814    1.911   .     S
Zn764  O793    1.946   .     S
Zn764  O822    1.914   .     S
Zn764  O780    1.937   .     S
Zn764  O1193   1.911   1_455 S
Zn765  O796    1.947   .     S
Zn765  O816    1.916   .     S
Zn765  O777    1.933   .     S
Zn766  O828    1.911   .     S
Zn766  O778    1.933   .     S
Zn766  O795    1.947   .     S
Zn767  O790    1.949   .     S
Zn767  O825    1.915   .     S
Zn767  O779    1.931   .     S
Zn767  O1198   1.912   1_455 S
Zn768  O817    1.912   .     S
Zn768  O780    1.931   .     S
Zn768  O789    1.949   .     S
Zn768  O1206   1.915   1_455 S
Zn769  O1160   1.933   .     S
Zn769  O807    1.913   .     S
Zn769  O804    1.914   .     S
Zn769  O784    1.947   .     S
Zn770  O808    1.913   .     S
Zn770  O803    1.914   .     S
Zn770  O783    1.947   .     S
Zn770  O779    1.933   .     S
Zn771  O798    1.911   .     S
Zn771  O805    1.914   .     S
Zn771  O786    1.946   .     S
Zn771  O18     1.937   1_565 S
Zn772  O806    1.914   .     S
Zn772  O797    1.911   .     S
Zn772  O785    1.946   .     S
Zn772  O777    1.937   .     S
Zn773  O811    1.911   .     S
Zn773  O800    1.916   .     S
Zn773  O788    1.947   .     S
Zn773  O780    1.933   .     S
Zn774  O812    1.911   .     S
Zn774  O1159   1.933   .     S
Zn774  O799    1.916   .     S
Zn774  O787    1.947   .     S
Zn775  O802    1.912   .     S
Zn775  O809    1.915   .     S
Zn775  O778    1.931   .     S
Zn775  O782    1.949   .     S
Zn776  O781    1.949   .     S
Zn776  O801    1.912   .     S
Zn776  O810    1.915   .     S
Zn776  O17     1.931   1_565 S
O779   Zn1154  1.933   1_455 S
O780   Zn1149  1.933   1_455 S
O781   C829    1.270   .     A
O782   C830    1.270   .     A
O783   C831    1.270   .     A
O784   C832    1.270   .     A
O786   C70     1.270   1_565 S
O787   C1211   1.270   .     S
O788   C1212   1.270   1_455 S
O789   C1213   1.265   1_455 A
O790   C834    1.266   .     A
O791   C835    1.271   .     A
O792   C836    1.271   .     A
O793   C1213   1.285   1_455 S
O794   C834    1.273   .     A
O795   C835    1.272   .     A
O796   C836    1.270   .     A
O797   C837    1.275   .     A
O798   C838    1.275   .     A
O799   C839    1.276   .     A
O800   C840    1.276   .     A
O801   C841    1.274   .     A
O802   C842    1.274   .     A
O803   C843    1.274   .     A
O804   C844    1.274   .     A
O805   C845    1.275   .     A
O806   C846    1.275   .     A
O807   C847    1.276   .     A
O808   C848    1.276   .     A
O809   C849    1.274   .     A
O810   C850    1.274   .     A
O811   C851    1.274   .     A
O812   C852    1.274   .     A
O813   C847    1.275   .     A
O813   Zn1144  1.911   .     S
O814   C848    1.275   .     A
O815   C845    1.276   .     A
O815   Zn6     1.916   1_565 S
O816   C846    1.276   .     A
O817   C851    1.274   .     A
O818   C852    1.274   .     A
O818   Zn1147  1.912   .     S
O819   C849    1.274   .     A
O820   C850    1.274   .     A
O820   Zn1     1.914   1_565 S
O821   Zn1143  1.914   .     S
O821   C839    1.276   .     A
O822   C840    1.276   .     A
O823   C837    1.276   .     A
O824   C838    1.276   .     A
O824   Zn2     1.913   1_565 S
O825   C843    1.274   .     A
O826   C844    1.274   .     A
O826   Zn1148  1.915   .     S
O827   C841    1.274   .     A
O827   Zn5     1.911   1_565 S
O828   C842    1.274   .     A
C829   C887    1.465   .     S
C829   O25     1.270   1_565 S
C830   C888    1.465   .     S
C831   C885    1.466   .     S
C831   O1167   1.270   1_455 S
C832   C886    1.466   .     S
C832   O1168   1.270   .     S
C833   C891    1.482   .     S
C833   O1169   1.265   .     A
C833   O1173   1.285   .     S
C834   C892    1.463   .     S
C835   C889    1.469   .     S
C836   C890    1.467   .     S
C837   C866    1.420   .     S
C838   C865    1.420   .     S
C839   C864    1.422   .     S
C840   C863    1.422   .     S
C841   C862    1.419   .     S
C842   C861    1.419   .     S
C843   C868    1.421   .     S
C844   C867    1.421   .     S
C845   C858    1.422   .     S
C846   C857    1.422   .     S
C847   C856    1.420   .     S
C848   C855    1.420   .     S
C849   C854    1.421   .     S
C850   C853    1.421   .     S
C851   C860    1.419   .     S
C852   C859    1.419   .     S
C853   C868    1.198   .     T
C854   C867    1.198   .     T
C855   C866    1.197   .     T
C856   C865    1.197   .     T
C857   C864    1.198   .     T
C858   C863    1.198   .     T
C859   C862    1.197   .     T
C860   C861    1.197   .     T
C869   C933    1.532   .     S
C869   C897    1.415   .     A
C869   C1265   1.417   .     S
C870   C898    1.415   .     A
C870   C943    1.532   .     S
C870   C1266   1.417   1_455 S
C871   C899    1.416   .     A
C871   C953    1.530   .     S
C871   C887    1.414   .     A
C872   C900    1.416   .     A
C872   C888    1.414   .     A
C872   C963    1.530   .     S
C873   C893    1.415   .     A
C873   C885    1.417   .     A
C873   C973    1.532   .     S
C874   C983    1.532   .     S
C874   C894    1.415   .     A
C874   C886    1.417   .     A
C875   C895    1.416   .     A
C875   C993    1.530   .     S
C876   C896    1.416   .     A
C876   C1003   1.530   .     S
C876   C128    1.414   1_565 S
C877   C1013   1.533   .     S
C877   C889    1.421   .     A
C877   C905    1.413   .     A
C878   C1023   1.533   .     S
C878   C906    1.411   .     A
C878   C130    1.420   1_565 S
C879   C891    1.412   .     A
C879   C907    1.420   .     A
C879   C1033   1.535   .     S
C880   C908    1.423   .     A
C880   C1043   1.533   .     S
C880   C892    1.414   .     A
C881   C1053   1.532   .     S
C881   C901    1.411   .     A
C881   C129    1.421   1_565 S
C882   C1063   1.533   .     S
C882   C902    1.413   .     A
C882   C890    1.421   .     A
C883   C1073   1.535   .     S
C883   C903    1.414   .     A
C883   C1271   1.419   1_455 S
C884   C1083   1.530   .     S
C884   C904    1.414   .     A
C884   C1272   1.412   .     S
C885   C1249   1.417   1_455 S
C886   C1250   1.417   .     S
C887   C115    1.414   1_565 S
C891   C1263   1.419   .     S
C892   C1264   1.412   1_455 S
C893   C909    1.413   .     A
C893   C917    1.418   .     A
C894   C918    1.418   .     A
C894   C910    1.413   .     A
C895   C919    1.418   .     A
C896   C920    1.418   .     A
C896   C152    1.414   1_565 S
C897   C921    1.418   .     A
C897   C1289   1.413   .     S
C898   C922    1.418   .     A
C898   C1290   1.413   1_455 S
C899   C923    1.418   .     A
C899   C911    1.414   .     A
C900   C912    1.414   .     A
C900   C924    1.418   .     A
C901   C925    1.417   .     A
C901   C153    1.410   1_565 S
C902   C926    1.419   .     A
C902   C914    1.410   .     A
C903   C915    1.411   .     A
C903   C927    1.419   .     A
C904   C928    1.417   .     A
C904   C1296   1.413   .     S
C905   C929    1.418   .     A
C905   C913    1.410   .     A
C906   C930    1.417   .     A
C906   C154    1.410   1_565 S
C907   C931    1.419   .     A
C907   C1295   1.420   .     S
C908   C916    1.421   .     A
C908   C932    1.422   .     A
C909   C1277   1.413   1_455 S
C909   C1290   1.404   1_455 S
C910   C1278   1.413   .     S
C910   C1289   1.404   .     S
C911   C135    1.414   1_565 S
C911   C152    1.406   1_565 S
C913   C914    1.401   1_556 S
C914   C913    1.401   1_554 S
C915   C1287   1.420   1_455 S
C915   C916    1.409   1_556 S
C916   C1284   1.413   1_455 S
C916   C915    1.409   1_554 S
C917   N1093   1.439   .     S
C917   C922    1.411   .     A
C918   C921    1.411   .     A
C918   N1096   1.439   .     S
C919   C924    1.412   .     A
C919   N1099   1.439   .     S
C920   C923    1.412   .     A
C920   N1102   1.439   .     S
C921   N1105   1.439   .     S
C922   N1108   1.439   .     S
C923   N1111   1.439   .     S
C924   N1114   1.439   .     S
C925   N1117   1.440   .     S
C925   C930    1.409   1_556 S
C926   N1120   1.439   .     S
C926   C929    1.411   1_554 S
C927   N1123   1.441   .     S
C927   C932    1.408   1_556 S
C928   N1126   1.438   .     S
C928   C931    1.410   1_554 S
C929   N1129   1.439   .     S
C929   C926    1.411   1_556 S
C930   N1132   1.439   .     S
C930   C925    1.409   1_554 S
C931   N1135   1.440   .     S
C931   C928    1.410   1_556 S
C932   N1138   1.437   .     S
C932   C927    1.408   1_554 S
C933   H941    1.109   .     S
C933   C934    1.539   .     S
C933   H942    1.105   .     S
C934   C935    1.527   .     S
C934   H1319   1.112   .     S
C934   H1320   1.108   .     S
C935   H937    1.111   .     S
C935   H938    1.110   .     S
C935   H936    1.111   .     S
H939   C1314   1.112   1_455 S
H940   C1314   1.108   1_455 S
C943   H952    1.109   .     S
C943   C944    1.539   .     S
C943   H951    1.105   .     S
C944   C945    1.527   .     S
C944   H1329   1.108   1_455 S
C944   H1330   1.112   1_455 S
C945   H947    1.111   .     S
C945   H946    1.111   .     S
C945   H948    1.110   .     S
H949   C1324   1.108   .     S
H950   C1324   1.112   .     S
C953   H961    1.110   .     S
C953   H962    1.104   .     S
C953   C194    1.539   1_565 S
C954   H960    1.108   .     S
C954   H959    1.112   .     S
C955   H956    1.111   .     S
C955   H957    1.111   .     S
C955   C194    1.527   1_565 S
C955   H198    1.111   1_565 S
C963   H971    1.104   .     S
C963   H972    1.110   .     S
C964   H969    1.108   .     S
C964   H970    1.112   .     S
C964   C203    1.539   1_565 S
C964   C205    1.527   1_565 S
C965   H967    1.111   .     S
C965   H966    1.111   .     S
H968   C205    1.111   1_565 S
C973   H982    1.105   .     S
C973   C974    1.539   .     S
C973   H981    1.109   .     S
C974   C975    1.527   .     S
C974   H1359   1.112   1_455 S
C974   H1360   1.108   1_455 S
C975   H978    1.110   .     S
C975   H976    1.111   .     S
C975   H977    1.111   .     S
H979   C1354   1.112   .     S
H980   C1354   1.108   .     S
C983   C984    1.539   .     S
C983   H992    1.109   .     S
C983   H991    1.105   .     S
C984   C985    1.527   .     S
C984   H1369   1.108   .     S
C984   H1370   1.112   .     S
C985   H988    1.110   .     S
C985   H986    1.111   .     S
C985   H987    1.111   .     S
H989   C1364   1.108   1_455 S
H990   C1364   1.112   1_455 S
C993   H1001   1.110   .     S
C993   H1002   1.104   .     S
C994   H1000   1.108   .     S
C994   H999    1.112   .     S
C994   C233    1.539   1_565 S
C994   C235    1.527   1_565 S
C995   H996    1.111   .     S
C995   H997    1.111   .     S
H998   C235    1.111   1_565 S
C1003  H1011   1.104   .     S
C1003  H1012   1.110   .     S
C1003  C244    1.539   1_565 S
C1004  H1009   1.108   .     S
C1004  H1010   1.112   .     S
C1005  H1006   1.111   .     S
C1005  H1007   1.111   .     S
C1005  C244    1.527   1_565 S
C1005  H248    1.111   1_565 S
C1013  H1021   1.109   .     S
C1013  C1014   1.539   .     S
C1013  H1022   1.107   .     S
C1014  H1019   1.112   .     S
C1014  H1020   1.108   .     S
C1014  C1015   1.527   .     S
C1015  H1017   1.111   .     S
C1015  H1018   1.110   .     S
C1015  H1016   1.111   .     S
C1023  H1031   1.107   .     S
C1023  C1024   1.539   .     S
C1023  H1032   1.109   .     S
C1024  H1029   1.108   .     S
C1024  C1025   1.528   .     S
C1024  H1030   1.112   .     S
C1025  H1027   1.111   .     S
C1025  H1026   1.111   .     S
C1025  H1028   1.110   .     S
C1033  H1042   1.109   .     S
C1033  H1041   1.103   .     S
C1033  C1034   1.542   .     S
C1034  C1035   1.525   .     S
C1034  H1039   1.108   .     S
C1034  H1040   1.112   .     S
C1035  H1038   1.110   .     S
C1035  H1036   1.110   .     S
C1035  H1037   1.111   .     S
C1043  H1052   1.098   .     S
C1043  C1044   1.539   .     S
C1043  H1051   1.111   .     S
C1044  C1045   1.527   .     S
C1044  H1050   1.106   .     S
C1044  H1049   1.112   .     S
C1045  H1047   1.111   .     S
C1045  H1046   1.111   .     S
C1045  H1048   1.111   .     S
C1053  C1054   1.538   .     S
C1053  H1061   1.109   .     S
C1053  H1062   1.107   .     S
C1054  H1059   1.112   .     S
C1054  C1055   1.526   .     S
C1054  H1060   1.108   .     S
C1055  H1057   1.111   .     S
C1055  H1056   1.111   .     S
C1055  H1058   1.110   .     S
C1063  C1064   1.539   .     S
C1063  H1071   1.106   .     S
C1063  H1072   1.109   .     S
C1064  H1070   1.112   .     S
C1064  C1065   1.528   .     S
C1064  H1069   1.108   .     S
C1065  H1067   1.111   .     S
C1065  H1066   1.111   .     S
C1065  H1068   1.110   .     S
C1073  H1082   1.101   .     S
C1073  H1081   1.109   .     S
C1073  C1454   1.544   1_455 S
C1074  C1075   1.529   .     S
C1074  H1079   1.108   .     S
C1074  H1080   1.112   .     S
C1074  C1453   1.544   .     S
C1075  H1078   1.110   .     S
C1075  H1076   1.111   .     S
C1075  H1077   1.111   .     S
C1083  C1084   1.538   .     S
C1083  H1092   1.104   .     S
C1083  H1091   1.110   .     S
C1084  C1085   1.527   .     S
C1084  H1089   1.112   .     S
C1084  H1090   1.108   .     S
C1085  H1087   1.111   .     S
C1085  H1086   1.111   .     S
C1085  H1088   1.110   .     S
N1093  O1094   1.301   .     A
N1093  O1095   1.301   .     A
N1096  O1097   1.301   .     A
N1096  O1098   1.301   .     A
N1099  O1100   1.301   .     A
N1099  O1101   1.301   .     A
N1102  O1103   1.301   .     A
N1102  O1104   1.301   .     A
N1105  O1107   1.301   .     A
N1105  O1106   1.301   .     A
N1108  O1109   1.301   .     A
N1108  O1110   1.301   .     A
N1111  O1112   1.301   .     A
N1111  O1113   1.301   .     A
N1114  O1115   1.301   .     A
N1114  O1116   1.301   .     A
N1117  O1118   1.300   .     A
N1117  O359    1.301   1_565 S
N1120  O1122   1.301   .     A
O1121  N360    1.301   1_565 S
N1123  O1125   1.302   .     A
N1123  O1124   1.301   .     A
N1126  O1127   1.301   .     A
N1126  O1128   1.301   .     A
N1129  O1130   1.300   .     A
O1131  N369    1.301   1_565 S
N1132  O1134   1.301   .     A
N1132  O373    1.301   1_565 S
N1135  O1136   1.301   .     A
N1135  O1137   1.301   .     A
N1138  O1139   1.301   .     A
N1138  O1140   1.302   .     A
Zn1141 O1157   1.933   .     S
Zn1141 O1203   1.913   .     S
Zn1141 O1172   1.947   .     S
Zn1142 O1199   1.914   .     S
Zn1142 O1158   1.933   .     S
Zn1142 O1171   1.947   .     S
Zn1143 O1159   1.937   .     S
Zn1143 O1174   1.946   .     S
Zn1143 O1194   1.911   .     S
Zn1144 O1173   1.946   .     S
Zn1144 O1202   1.914   .     S
Zn1144 O1160   1.937   .     S
Zn1145 O1176   1.947   .     S
Zn1145 O1196   1.916   .     S
Zn1145 O1157   1.933   .     S
Zn1146 O1208   1.911   .     S
Zn1146 O1158   1.933   .     S
Zn1146 O1175   1.947   .     S
Zn1147 O1170   1.949   .     S
Zn1147 O1205   1.915   .     S
Zn1147 O1159   1.931   .     S
Zn1148 O1197   1.912   .     S
Zn1148 O1160   1.931   .     S
Zn1148 O1169   1.949   .     S
Zn1149 O780    1.933   1_655 S
Zn1149 O1187   1.913   .     S
Zn1149 O1184   1.914   .     S
Zn1149 O1164   1.947   .     S
Zn1150 O1188   1.913   .     S
Zn1150 O1183   1.914   .     S
Zn1150 O1163   1.947   .     S
Zn1150 O1159   1.933   .     S
Zn1151 O1178   1.911   .     S
Zn1151 O1185   1.914   .     S
Zn1151 O1166   1.946   .     S
Zn1151 O398    1.937   1_565 S
Zn1152 O1186   1.914   .     S
Zn1152 O1177   1.911   .     S
Zn1152 O1165   1.946   .     S
Zn1152 O1157   1.937   .     S
Zn1153 O1191   1.911   .     S
Zn1153 O1180   1.916   .     S
Zn1153 O1168   1.947   .     S
Zn1153 O1160   1.933   .     S
Zn1154 O1192   1.911   .     S
Zn1154 O779    1.933   1_655 S
Zn1154 O1179   1.916   .     S
Zn1154 O1167   1.947   .     S
Zn1155 O1182   1.912   .     S
Zn1155 O1189   1.915   .     S
Zn1155 O1158   1.931   .     S
Zn1155 O1162   1.949   .     S
Zn1156 O1161   1.949   .     S
Zn1156 O1181   1.912   .     S
Zn1156 O1190   1.915   .     S
Zn1156 O397    1.931   1_565 S
O1161  C1209   1.270   .     A
O1162  C1210   1.270   .     A
O1163  C1211   1.270   .     A
O1164  C1212   1.270   .     A
O1166  C450    1.270   1_565 S
O1167  C831    1.270   1_655 S
O1170  C1214   1.266   .     A
O1171  C1215   1.271   .     A
O1172  C1216   1.271   .     A
O1174  C1214   1.273   .     A
O1175  C1215   1.272   .     A
O1176  C1216   1.270   .     A
O1177  C1217   1.275   .     A
O1178  C1218   1.275   .     A
O1179  C1219   1.276   .     A
O1180  C1220   1.276   .     A
O1181  C1221   1.274   .     A
O1182  C1222   1.274   .     A
O1183  C1223   1.274   .     A
O1184  C1224   1.274   .     A
O1185  C1225   1.275   .     A
O1186  C1226   1.275   .     A
O1187  C1227   1.276   .     A
O1188  C1228   1.276   .     A
O1189  C1229   1.274   .     A
O1190  C1230   1.274   .     A
O1191  C1231   1.274   .     A
O1192  C1232   1.274   .     A
O1193  C1227   1.275   .     A
O1193  Zn764   1.911   1_655 S
O1194  C1228   1.275   .     A
O1195  C1225   1.276   .     A
O1195  Zn386   1.916   1_565 S
O1196  C1226   1.276   .     A
O1197  C1231   1.274   .     A
O1198  C1232   1.274   .     A
O1198  Zn767   1.912   1_655 S
O1199  C1229   1.274   .     A
O1200  C1230   1.274   .     A
O1200  Zn381   1.914   1_565 S
O1201  Zn763   1.914   1_655 S
O1201  C1219   1.276   .     A
O1202  C1220   1.276   .     A
O1203  C1217   1.276   .     A
O1204  C1218   1.276   .     A
O1204  Zn382   1.913   1_565 S
O1205  C1223   1.274   .     A
O1206  C1224   1.274   .     A
O1206  Zn768   1.915   1_655 S
O1207  C1221   1.274   .     A
O1207  Zn385   1.911   1_565 S
O1208  C1222   1.274   .     A
C1209  C1267   1.465   .     S
C1209  O405    1.270   1_565 S
C1210  C1268   1.465   .     S
C1211  C1265   1.466   .     S
C1212  C1266   1.466   .     S
C1212  O788    1.270   1_655 S
C1213  C1271   1.482   .     S
C1213  O789    1.265   1_655 A
C1213  O793    1.285   1_655 S
C1214  C1272   1.463   .     S
C1215  C1269   1.469   .     S
C1216  C1270   1.467   .     S
C1217  C1246   1.420   .     S
C1218  C1245   1.420   .     S
C1219  C1244   1.422   .     S
C1220  C1243   1.422   .     S
C1221  C1242   1.419   .     S
C1222  C1241   1.419   .     S
C1223  C1248   1.421   .     S
C1224  C1247   1.421   .     S
C1225  C1238   1.422   .     S
C1226  C1237   1.422   .     S
C1227  C1236   1.420   .     S
C1228  C1235   1.420   .     S
C1229  C1234   1.421   .     S
C1230  C1233   1.421   .     S
C1231  C1240   1.419   .     S
C1232  C1239   1.419   .     S
C1233  C1248   1.198   .     T
C1234  C1247   1.198   .     T
C1235  C1246   1.197   .     T
C1236  C1245   1.197   .     T
C1237  C1244   1.198   .     T
C1238  C1243   1.198   .     T
C1239  C1242   1.197   .     T
C1240  C1241   1.197   .     T
C1249  C1313   1.532   .     S
C1249  C1277   1.415   .     A
C1249  C885    1.417   1_655 S
C1250  C1278   1.415   .     A
C1250  C1323   1.532   .     S
C1251  C1279   1.416   .     A
C1251  C1333   1.530   .     S
C1251  C1267   1.414   .     A
C1252  C1280   1.416   .     A
C1252  C1268   1.414   .     A
C1252  C1343   1.530   .     S
C1253  C1273   1.415   .     A
C1253  C1265   1.417   .     A
C1253  C1353   1.532   .     S
C1254  C1363   1.532   .     S
C1254  C1274   1.415   .     A
C1254  C1266   1.417   .     A
C1255  C1275   1.416   .     A
C1255  C1373   1.530   .     S
C1256  C1276   1.416   .     A
C1256  C1383   1.530   .     S
C1256  C508    1.414   1_565 S
C1257  C1393   1.533   .     S
C1257  C1269   1.421   .     A
C1257  C1285   1.413   .     A
C1258  C1403   1.533   .     S
C1258  C1286   1.411   .     A
C1258  C510    1.420   1_565 S
C1259  C1271   1.412   .     A
C1259  C1287   1.420   .     A
C1259  C1413   1.535   .     S
C1260  C1288   1.423   .     A
C1260  C1423   1.533   .     S
C1260  C1272   1.414   .     A
C1261  C1433   1.532   .     S
C1261  C1281   1.411   .     A
C1261  C509    1.421   1_565 S
C1262  C1443   1.533   .     S
C1262  C1282   1.413   .     A
C1262  C1270   1.421   .     A
C1263  C1453   1.535   .     S
C1263  C1283   1.414   .     A
C1264  C1463   1.530   .     S
C1264  C1284   1.414   .     A
C1264  C892    1.412   1_655 S
C1266  C870    1.417   1_655 S
C1267  C495    1.414   1_565 S
C1271  C883    1.419   1_655 S
C1273  C1289   1.413   .     A
C1273  C1297   1.418   .     A
C1274  C1298   1.418   .     A
C1274  C1290   1.413   .     A
C1275  C1299   1.418   .     A
C1276  C1300   1.418   .     A
C1276  C532    1.414   1_565 S
C1277  C1301   1.418   .     A
C1277  C909    1.413   1_655 S
C1278  C1302   1.418   .     A
C1279  C1303   1.418   .     A
C1279  C1291   1.414   .     A
C1280  C1292   1.414   .     A
C1280  C1304   1.418   .     A
C1281  C1305   1.417   .     A
C1281  C533    1.410   1_565 S
C1282  C1306   1.419   .     A
C1282  C1294   1.410   .     A
C1283  C1295   1.411   .     A
C1283  C1307   1.419   .     A
C1284  C1308   1.417   .     A
C1284  C916    1.413   1_655 S
C1285  C1309   1.418   .     A
C1285  C1293   1.410   .     A
C1286  C1310   1.417   .     A
C1286  C534    1.410   1_565 S
C1287  C1311   1.419   .     A
C1287  C915    1.420   1_655 S
C1288  C1296   1.421   .     A
C1288  C1312   1.422   .     A
C1290  C898    1.413   1_655 S
C1290  C909    1.404   1_655 S
C1291  C515    1.414   1_565 S
C1291  C532    1.406   1_565 S
C1293  C1294   1.401   1_556 S
C1294  C1293   1.401   1_554 S
C1295  C1296   1.409   1_556 S
C1296  C1295   1.409   1_554 S
C1297  N1473   1.439   .     S
C1297  C1302   1.411   .     A
C1298  C1301   1.411   .     A
C1298  N1476   1.439   .     S
C1299  C1304   1.412   .     A
C1299  N1479   1.439   .     S
C1300  C1303   1.412   .     A
C1300  N1482   1.439   .     S
C1301  N1485   1.439   .     S
C1302  N1488   1.439   .     S
C1303  N1491   1.439   .     S
C1304  N1494   1.439   .     S
C1305  N1497   1.440   .     S
C1305  C1310   1.409   1_556 S
C1306  N1500   1.439   .     S
C1306  C1309   1.411   1_554 S
C1307  N1503   1.441   .     S
C1307  C1312   1.408   1_556 S
C1308  N1506   1.438   .     S
C1308  C1311   1.410   1_554 S
C1309  N1509   1.439   .     S
C1309  C1306   1.411   1_556 S
C1310  N1512   1.439   .     S
C1310  C1305   1.409   1_554 S
C1311  N1515   1.440   .     S
C1311  C1308   1.410   1_556 S
C1312  N1518   1.437   .     S
C1312  C1307   1.408   1_554 S
C1313  H1321   1.109   .     S
C1313  C1314   1.539   .     S
C1313  H1322   1.105   .     S
C1314  C1315   1.527   .     S
C1314  H939    1.112   1_655 S
C1314  H940    1.108   1_655 S
C1315  H1317   1.111   .     S
C1315  H1318   1.110   .     S
C1315  H1316   1.111   .     S
C1323  H1332   1.109   .     S
C1323  C1324   1.539   .     S
C1323  H1331   1.105   .     S
C1324  C1325   1.527   .     S
C1325  H1327   1.111   .     S
C1325  H1326   1.111   .     S
C1325  H1328   1.110   .     S
H1329  C944    1.108   1_655 S
H1330  C944    1.112   1_655 S
C1333  H1341   1.110   .     S
C1333  H1342   1.104   .     S
C1333  C574    1.539   1_565 S
C1334  H1340   1.108   .     S
C1334  H1339   1.112   .     S
C1335  H1336   1.111   .     S
C1335  H1337   1.111   .     S
C1335  C574    1.527   1_565 S
C1335  H578    1.111   1_565 S
C1343  H1351   1.104   .     S
C1343  H1352   1.110   .     S
C1344  H1349   1.108   .     S
C1344  H1350   1.112   .     S
C1344  C583    1.539   1_565 S
C1344  C585    1.527   1_565 S
C1345  H1347   1.111   .     S
C1345  H1346   1.111   .     S
H1348  C585    1.111   1_565 S
C1353  H1362   1.105   .     S
C1353  C1354   1.539   .     S
C1353  H1361   1.109   .     S
C1354  C1355   1.527   .     S
C1355  H1358   1.110   .     S
C1355  H1356   1.111   .     S
C1355  H1357   1.111   .     S
H1359  C974    1.112   1_655 S
H1360  C974    1.108   1_655 S
C1363  C1364   1.539   .     S
C1363  H1372   1.109   .     S
C1363  H1371   1.105   .     S
C1364  C1365   1.527   .     S
C1364  H989    1.108   1_655 S
C1364  H990    1.112   1_655 S
C1365  H1368   1.110   .     S
C1365  H1366   1.111   .     S
C1365  H1367   1.111   .     S
C1373  H1381   1.110   .     S
C1373  H1382   1.104   .     S
C1374  H1380   1.108   .     S
C1374  H1379   1.112   .     S
C1374  C613    1.539   1_565 S
C1374  C615    1.527   1_565 S
C1375  H1376   1.111   .     S
C1375  H1377   1.111   .     S
H1378  C615    1.111   1_565 S
C1383  H1391   1.104   .     S
C1383  H1392   1.110   .     S
C1383  C624    1.539   1_565 S
C1384  H1389   1.108   .     S
C1384  H1390   1.112   .     S
C1385  H1386   1.111   .     S
C1385  H1387   1.111   .     S
C1385  C624    1.527   1_565 S
C1385  H628    1.111   1_565 S
C1393  H1401   1.109   .     S
C1393  C1394   1.539   .     S
C1393  H1402   1.107   .     S
C1394  H1399   1.112   .     S
C1394  H1400   1.108   .     S
C1394  C1395   1.527   .     S
C1395  H1397   1.111   .     S
C1395  H1398   1.110   .     S
C1395  H1396   1.111   .     S
C1403  H1411   1.107   .     S
C1403  C1404   1.539   .     S
C1403  H1412   1.109   .     S
C1404  H1409   1.108   .     S
C1404  C1405   1.528   .     S
C1404  H1410   1.112   .     S
C1405  H1407   1.111   .     S
C1405  H1406   1.111   .     S
C1405  H1408   1.110   .     S
C1413  H1422   1.109   .     S
C1413  H1421   1.103   .     S
C1413  C1414   1.542   .     S
C1414  C1415   1.525   .     S
C1414  H1419   1.108   .     S
C1414  H1420   1.112   .     S
C1415  H1418   1.110   .     S
C1415  H1416   1.110   .     S
C1415  H1417   1.111   .     S
C1423  H1432   1.098   .     S
C1423  C1424   1.539   .     S
C1423  H1431   1.111   .     S
C1424  C1425   1.527   .     S
C1424  H1430   1.106   .     S
C1424  H1429   1.112   .     S
C1425  H1427   1.111   .     S
C1425  H1426   1.111   .     S
C1425  H1428   1.111   .     S
C1433  C1434   1.538   .     S
C1433  H1441   1.109   .     S
C1433  H1442   1.107   .     S
C1434  H1439   1.112   .     S
C1434  C1435   1.526   .     S
C1434  H1440   1.108   .     S
C1435  H1437   1.111   .     S
C1435  H1436   1.111   .     S
C1435  H1438   1.110   .     S
C1443  C1444   1.539   .     S
C1443  H1451   1.106   .     S
C1443  H1452   1.109   .     S
C1444  H1450   1.112   .     S
C1444  C1445   1.528   .     S
C1444  H1449   1.108   .     S
C1445  H1447   1.111   .     S
C1445  H1446   1.111   .     S
C1445  H1448   1.110   .     S
C1453  H1462   1.101   .     S
C1453  H1461   1.109   .     S
C1454  C1455   1.529   .     S
C1454  H1459   1.108   .     S
C1454  H1460   1.112   .     S
C1454  C1073   1.544   1_655 S
C1455  H1458   1.110   .     S
C1455  H1456   1.111   .     S
C1455  H1457   1.111   .     S
C1463  C1464   1.538   .     S
C1463  H1472   1.104   .     S
C1463  H1471   1.110   .     S
C1464  C1465   1.527   .     S
C1464  H1469   1.112   .     S
C1464  H1470   1.108   .     S
C1465  H1467   1.111   .     S
C1465  H1466   1.111   .     S
C1465  H1468   1.110   .     S
N1473  O1474   1.301   .     A
N1473  O1475   1.301   .     A
N1476  O1477   1.301   .     A
N1476  O1478   1.301   .     A
N1479  O1480   1.301   .     A
N1479  O1481   1.301   .     A
N1482  O1483   1.301   .     A
N1482  O1484   1.301   .     A
N1485  O1487   1.301   .     A
N1485  O1486   1.301   .     A
N1488  O1489   1.301   .     A
N1488  O1490   1.301   .     A
N1491  O1492   1.301   .     A
N1491  O1493   1.301   .     A
N1494  O1495   1.301   .     A
N1494  O1496   1.301   .     A
N1497  O1498   1.300   .     A
N1497  O739    1.301   1_565 S
N1500  O1502   1.301   .     A
O1501  N740    1.301   1_565 S
N1503  O1505   1.302   .     A
N1503  O1504   1.301   .     A
N1506  O1507   1.301   .     A
N1506  O1508   1.301   .     A
N1509  O1510   1.300   .     A
O1511  N749    1.301   1_565 S
N1512  O1514   1.301   .     A
N1512  O753    1.301   1_565 S
N1515  O1516   1.301   .     A
N1515  O1517   1.301   .     A
N1518  O1519   1.301   .     A
N1518  O1520   1.302   .     A
