data_str_m1_o5_o17_pcu_sym.84
_audit_creation_date              2020-01-03
_audit_creation_method            'Materials Studio'
_symmetry_space_group_name_H-M    'P1'
_symmetry_Int_Tables_number       1
_symmetry_cell_setting            triclinic
loop_
_symmetry_equiv_pos_as_xyz
  x,y,z
_cell_length_a                    31.8196
_cell_length_b                    31.8858
_cell_length_c                    34.4324
_cell_angle_alpha                 89.9460
_cell_angle_beta                  89.7739
_cell_angle_gamma                 90.1274
loop_
_atom_site_label
_atom_site_type_symbol
_atom_site_fract_x
_atom_site_fract_y
_atom_site_fract_z
_atom_site_U_iso_or_equiv
_atom_site_adp_type
_atom_site_occupancy
C1     C     0.25165   0.49970   0.35591   0.00000  Uiso   1.00
C2     C     0.33002   0.41997   0.75001   0.00000  Uiso   1.00
C3     C     0.42526   0.27078   0.02069   0.00000  Uiso   1.00
C4     C     0.26096   0.07557   0.97954   0.00000  Uiso   1.00
C5     C     0.24569   0.42379   0.02177   0.00000  Uiso   1.00
C6     C     0.42847   0.28087   0.98078   0.00000  Uiso   1.00
C7     C     0.07514   0.23686   0.01896   0.00000  Uiso   1.00
C8     C     0.02571   0.33961   0.37484   0.00000  Uiso   1.00
C9     C     0.06971   0.32723   0.39061   0.00000  Uiso   1.00
C10    C     0.10459   0.35215   0.37054   0.00000  Uiso   1.00
C11    C     0.44961   0.16532   0.60938   0.00000  Uiso   1.00
C12    C     0.44465   0.14164   0.64781   0.00000  Uiso   1.00
C13    C     0.41992   0.17003   0.24999   0.00000  Uiso   1.00
C14    C     0.46176   0.09707   0.64550   0.00000  Uiso   1.00
C15    C     0.20301   0.07919   0.39559   0.00000  Uiso   1.00
C16    C     0.18665   0.10906   0.42699   0.00000  Uiso   1.00
C17    C     0.20811   0.15182   0.42447   0.00000  Uiso   1.00
C18    C     0.33317   0.04654   0.61366   0.00000  Uiso   1.00
C19    C     0.31486   0.08208   0.58812   0.00000  Uiso   1.00
C20    C     0.33177   0.12479   0.60041   0.00000  Uiso   1.00
C21    C     0.06258   0.17752   0.39829   0.00000  Uiso   1.00
C22    C     0.07775   0.15536   0.36146   0.00000  Uiso   1.00
C23    C     0.06926   0.10836   0.36246   0.00000  Uiso   1.00
C24    C     0.08013   0.32992   0.75007   0.00000  Uiso   1.00
C25    C     0.05160   0.33060   0.60974   0.00000  Uiso   1.00
C26    C     0.05791   0.34499   0.65180   0.00000  Uiso   1.00
C27    C     0.05071   0.39174   0.65729   0.00000  Uiso   1.00
C28    C     0.31882   0.43023   0.37365   0.00000  Uiso   1.00
C29    C     0.28476   0.39632   0.38300   0.00000  Uiso   1.00
C30    C     0.27546   0.36839   0.34809   0.00000  Uiso   1.00
C31    C     0.16723   0.45576   0.62118   0.00000  Uiso   1.00
C32    C     0.18672   0.41687   0.60096   0.00000  Uiso   1.00
C33    C     0.17038   0.37619   0.61877   0.00000  Uiso   1.00
C34    C     0.32100   0.06718   0.88612   0.00000  Uiso   1.00
C35    C     0.33006   0.41997   0.24998   0.00000  Uiso   1.00
C36    C     0.34925   0.03489   0.90736   0.00000  Uiso   1.00
C37    C     0.39516   0.03976   0.89517   0.00000  Uiso   1.00
C38    C     0.18263   0.42529   0.09775   0.00000  Uiso   1.00
C39    C     0.16119   0.41157   0.13554   0.00000  Uiso   1.00
C40    C     0.17965   0.37148   0.15256   0.00000  Uiso   1.00
C41    C     0.45869   0.34124   0.89240   0.00000  Uiso   1.00
C42    C     0.49928   0.35388   0.91444   0.00000  Uiso   1.00
C43    C     0.01105   0.39947   0.90632   0.00000  Uiso   1.00
C44    C     0.07530   0.30935   0.10496   0.00000  Uiso   1.00
C45    C     0.05149   0.33695   0.07494   0.00000  Uiso   1.00
C46    C     0.16994   0.08003   0.75003   0.00000  Uiso   1.00
C47    C     0.06209   0.38328   0.07923   0.00000  Uiso   1.00
C48    C     0.26961   0.40720   0.88068   0.00000  Uiso   1.00
C49    C     0.26081   0.39357   0.83877   0.00000  Uiso   1.00
C50    C     0.22629   0.36042   0.83625   0.00000  Uiso   1.00
C51    C     0.30549   0.08394   0.10531   0.00000  Uiso   1.00
C52    C     0.31155   0.12271   0.13088   0.00000  Uiso   1.00
C53    C     0.29589   0.16248   0.11089   0.00000  Uiso   1.00
C54    C     0.03228   0.16086   0.89613   0.00000  Uiso   1.00
C55    C     0.04259   0.12900   0.92799   0.00000  Uiso   1.00
C56    C     0.01321   0.09114   0.92634   0.00000  Uiso   1.00
C57    C     0.07996   0.33007   0.25006   0.00000  Uiso   1.00
C58    C     0.41826   0.19917   0.10935   0.00000  Uiso   1.00
C59    C     0.43685   0.16747   0.07969   0.00000  Uiso   1.00
C60    C     0.42172   0.12290   0.08752   0.00000  Uiso   1.00
C61    C     0.45569   0.13217   0.44225   0.00000  Uiso   1.00
C62    C     0.42883   0.10177   0.46611   0.00000  Uiso   1.00
C63    C     0.38545   0.09570   0.44816   0.00000  Uiso   1.00
C64    C     0.42831   0.34879   0.56537   0.00000  Uiso   1.00
C65    C     0.40866   0.38861   0.58210   0.00000  Uiso   1.00
C66    C     0.43531   0.40737   0.61443   0.00000  Uiso   1.00
C67    C     0.34223   0.40586   0.46305   0.00000  Uiso   1.00
C68    C     0.42000   0.16998   0.75001   0.00000  Uiso   1.00
C69    C     0.35499   0.37941   0.49763   0.00000  Uiso   1.00
C70    C     0.33904   0.33435   0.49284   0.00000  Uiso   1.00
C71    C     0.10726   0.48041   0.54000   0.00000  Uiso   1.00
C72    C     0.06464   0.49727   0.55452   0.00000  Uiso   1.00
C73    C     0.04608   0.47110   0.58748   0.00000  Uiso   1.00
C74    C     0.00353   0.39342   0.45886   0.00000  Uiso   1.00
C75    C     0.02637   0.41086   0.49463   0.00000  Uiso   1.00
C76    C     0.06531   0.38493   0.50508   0.00000  Uiso   1.00
C77    C     0.04935   0.13218   0.55024   0.00000  Uiso   1.00
C78    C     0.07850   0.11871   0.51723   0.00000  Uiso   1.00
C79    C     0.16995   0.42000   0.75002   0.00000  Uiso   1.00
C80    C     0.12336   0.11279   0.53168   0.00000  Uiso   1.00
C81    C     0.10881   0.02665   0.45461   0.00000  Uiso   1.00
C82    C     0.07342   0.01267   0.42752   0.00000  Uiso   1.00
C83    C     0.03283   0.03674   0.43530   0.00000  Uiso   1.00
C84    C     0.39222   0.00778   0.52940   0.00000  Uiso   1.00
C85    C     0.43034   0.00582   0.55629   0.00000  Uiso   1.00
C86    C     0.45961   0.04324   0.55009   0.00000  Uiso   1.00
C87    C     0.19138   0.37562   0.96443   0.00000  Uiso   1.00
C88    C     0.18311   0.33509   0.94211   0.00000  Uiso   1.00
C89    C     0.13612   0.32763   0.93639   0.00000  Uiso   1.00
C90    C     0.33002   0.08003   0.24991   0.00000  Uiso   1.00
C91    C     0.19939   0.11465   0.04857   0.00000  Uiso   1.00
C92    C     0.16785   0.10238   0.01661   0.00000  Uiso   1.00
C93    C     0.12258   0.10948   0.02992   0.00000  Uiso   1.00
C94    C     0.13315   0.19257   0.96111   0.00000  Uiso   1.00
C95    C     0.16973   0.19219   0.93205   0.00000  Uiso   1.00
C96    C     0.15470   0.18970   0.89008   0.00000  Uiso   1.00
C97    C     0.35880   0.24892   0.03866   0.00000  Uiso   1.00
C98    C     0.32359   0.26037   0.01029   0.00000  Uiso   1.00
C99    C     0.28276   0.23762   0.02051   0.00000  Uiso   1.00
C100   C     0.30524   0.12984   0.96611   0.00000  Uiso   1.00
C101   C     0.41999   0.33003   0.74999   0.00000  Uiso   1.00
C102   C     0.31227   0.16739   0.93912   0.00000  Uiso   1.00
C103   C     0.35857   0.18019   0.93767   0.00000  Uiso   1.00
C104   C     0.29749   0.38247   0.04538   0.00000  Uiso   1.00
C105   C     0.30914   0.34946   0.07577   0.00000  Uiso   1.00
C106   C     0.29721   0.36247   0.11689   0.00000  Uiso   1.00
C107   C     0.39295   0.34245   0.97250   0.00000  Uiso   1.00
C108   C     0.35976   0.36458   0.94783   0.00000  Uiso   1.00
C109   C     0.36099   0.41201   0.95425   0.00000  Uiso   1.00
C110   C     0.13941   0.26587   0.03249   0.00000  Uiso   1.00
C111   C     0.17444   0.26444   0.06249   0.00000  Uiso   1.00
C112   C     0.24996   0.00006   0.64413   0.00000  Uiso   1.00
C113   C     0.08001   0.16997   0.25002   0.00000  Uiso   1.00
C114   C     0.20221   0.30318   0.05954   0.00000  Uiso   1.00
C115   C     0.33003   0.07999   0.74996   0.00000  Uiso   1.00
C116   C     0.16991   0.42006   0.25013   0.00000  Uiso   1.00
C117   C     0.08007   0.16998   0.74998   0.00000  Uiso   1.00
C118   C     0.41993   0.33003   0.25003   0.00000  Uiso   1.00
C119   C     0.13815   0.38851   0.25033   0.00000  Uiso   1.00
C120   C     0.36172   0.11163   0.74991   0.00000  Uiso   1.00
C121   C     0.11163   0.13828   0.25009   0.00000  Uiso   1.00
C122   C     0.38832   0.36168   0.75001   0.00000  Uiso   1.00
C123   C     0.36165   0.11170   0.24985   0.00000  Uiso   1.00
C124   C     0.49992   0.25116   0.35599   0.00000  Uiso   1.00
C125   C     0.13833   0.38833   0.75006   0.00000  Uiso   1.00
C126   C     0.38828   0.36166   0.25006   0.00000  Uiso   1.00
C127   C     0.11171   0.13835   0.74998   0.00000  Uiso   1.00
C128   C     0.13829   0.11167   0.75005   0.00000  Uiso   1.00
C129   C     0.36169   0.38834   0.24999   0.00000  Uiso   1.00
C130   C     0.11178   0.36158   0.75002   0.00000  Uiso   1.00
C131   C     0.38824   0.13841   0.24995   0.00000  Uiso   1.00
C132   C     0.36167   0.38832   0.75001   0.00000  Uiso   1.00
C133   C     0.13827   0.11164   0.25010   0.00000  Uiso   1.00
C134   C     0.38838   0.13827   0.74995   0.00000  Uiso   1.00
C135   C     0.00012   0.24941   0.64424   0.00000  Uiso   1.00
C136   C     0.11149   0.36185   0.25024   0.00000  Uiso   1.00
C137   C     0.49448   0.29144   0.41888   0.00000  Uiso   1.00
C138   C     0.49617   0.21144   0.58205   0.00000  Uiso   1.00
C139   C     0.21746   0.01319   0.41909   0.00000  Uiso   1.00
C140   C     0.28784   0.00000   0.58150   0.00000  Uiso   1.00
C141   C     0.00586   0.21546   0.41860   0.00000  Uiso   1.00
C142   C     0.00196   0.28743   0.58232   0.00000  Uiso   1.00
C143   C     0.28632   0.47844   0.41841   0.00000  Uiso   1.00
C144   C     0.21092   0.49796   0.58180   0.00000  Uiso   1.00
C145   C     0.26353   0.03559   0.91838   0.00000  Uiso   1.00
C146   C     0.49948   0.25005   0.85601   0.00000  Uiso   1.00
C147   C     0.24126   0.46361   0.08233   0.00000  Uiso   1.00
C148   C     0.46834   0.27382   0.91897   0.00000  Uiso   1.00
C149   C     0.03787   0.25201   0.08075   0.00000  Uiso   1.00
C150   C     0.24376   0.46139   0.91830   0.00000  Uiso   1.00
C151   C     0.25669   0.03826   0.08182   0.00000  Uiso   1.00
C152   C     0.02983   0.22824   0.91929   0.00000  Uiso   1.00
C153   C     0.46138   0.25024   0.08137   0.00000  Uiso   1.00
C154   C     0.49997   0.25307   0.39856   0.00000  Uiso   1.00
C155   C     0.00032   0.24931   0.60214   0.00000  Uiso   1.00
C156   C     0.25250   0.49787   0.39834   0.00000  Uiso   1.00
C157   C     0.00002   0.25004   0.14403   0.00000  Uiso   1.00
C158   C     0.24948   0.00002   0.60181   0.00000  Uiso   1.00
C159   C     0.25133   0.49926   0.89831   0.00000  Uiso   1.00
C160   C     0.24998   0.00076   0.10203   0.00000  Uiso   1.00
C161   C     0.49889   0.25038   0.89857   0.00000  Uiso   1.00
C162   C     0.49975   0.25018   0.10155   0.00000  Uiso   1.00
C163   C     0.49988   0.21390   0.45903   0.00000  Uiso   1.00
C164   C     0.49292   0.28794   0.54242   0.00000  Uiso   1.00
C165   C     0.28701   0.48184   0.45957   0.00000  Uiso   1.00
C166   C     0.21073   0.49981   0.54062   0.00000  Uiso   1.00
C167   C     0.49140   0.29105   0.46028   0.00000  Uiso   1.00
C168   C     0.25013   0.00019   0.85593   0.00000  Uiso   1.00
C169   C     0.49809   0.21154   0.54099   0.00000  Uiso   1.00
C170   C     0.21368   0.00446   0.45892   0.00000  Uiso   1.00
C171   C     0.28792   0.49291   0.54114   0.00000  Uiso   1.00
C172   C     0.24513   0.46083   0.95949   0.00000  Uiso   1.00
C173   C     0.25334   0.03856   0.04092   0.00000  Uiso   1.00
C174   C     0.03440   0.23607   0.95914   0.00000  Uiso   1.00
C175   C     0.46158   0.25751   0.04096   0.00000  Uiso   1.00
C176   C     0.25903   0.03708   0.95906   0.00000  Uiso   1.00
C177   C     0.24556   0.46223   0.04165   0.00000  Uiso   1.00
C178   C     0.46452   0.26820   0.95958   0.00000  Uiso   1.00
C179   C     0.25002   0.00059   0.14420   0.00000  Uiso   1.00
C180   C     0.03771   0.24501   0.04025   0.00000  Uiso   1.00
C181   C     0.49545   0.25184   0.48003   0.00000  Uiso   1.00
C182   C     0.49541   0.25040   0.52105   0.00000  Uiso   1.00
C183   C     0.25016   0.49425   0.47969   0.00000  Uiso   1.00
C184   C     0.24950   0.49538   0.52056   0.00000  Uiso   1.00
C185   C     0.25142   0.49928   0.97968   0.00000  Uiso   1.00
C186   C     0.25032  -0.00000   0.02071   0.00000  Uiso   1.00
C187   C     0.49921   0.25120   0.97971   0.00000  Uiso   1.00
C188   C     0.49944   0.25083   0.02032   0.00000  Uiso   1.00
C189   C     0.49839   0.17501   0.47898   0.00000  Uiso   1.00
C190   C     0.16995   0.08000   0.25004   0.00000  Uiso   1.00
C191   C     0.48019   0.32488   0.52376   0.00000  Uiso   1.00
C192   C     0.32319   0.47174   0.48163   0.00000  Uiso   1.00
C193   C     0.17272   0.00330   0.51910   0.00000  Uiso   1.00
C194   C     0.48301   0.32798   0.48293   0.00000  Uiso   1.00
C195   C     0.00142   0.17403   0.51946   0.00000  Uiso   1.00
C196   C     0.17433   0.00574   0.47780   0.00000  Uiso   1.00
C197   C     0.32538   0.48302   0.52090   0.00000  Uiso   1.00
C198   C     0.24101   0.42310   0.98122   0.00000  Uiso   1.00
C199   C     0.25290   0.07631   0.01959   0.00000  Uiso   1.00
C200   C     0.07307   0.22980   0.97825   0.00000  Uiso   1.00
H201   H     0.02514   0.37423   0.37125   0.00000  Uiso   1.00
H202   H     0.46153   0.15896   0.67101   0.00000  Uiso   1.00
H203   H     0.49748   0.16529   0.89492   0.00000  Uiso   1.00
H204   H     0.07532   0.11776   0.92399   0.00000  Uiso   1.00
H205   H     0.03947   0.14391   0.95701   0.00000  Uiso   1.00
H206   H     0.48021   0.10098   0.93163   0.00000  Uiso   1.00
H207   H     0.02220   0.06819   0.94910   0.00000  Uiso   1.00
H208   H     0.01545   0.07564   0.89753   0.00000  Uiso   1.00
H209   H     0.38392   0.19349   0.11131   0.00000  Uiso   1.00
H210   H     0.43064   0.19243   0.13872   0.00000  Uiso   1.00
H211   H     0.42783   0.17615   0.04965   0.00000  Uiso   1.00
H212   H     0.47171   0.16765   0.08158   0.00000  Uiso   1.00
H213   H     0.41083   0.14018   0.65593   0.00000  Uiso   1.00
H214   H     0.42708   0.11415   0.11834   0.00000  Uiso   1.00
H215   H     0.43915   0.10070   0.06860   0.00000  Uiso   1.00
H216   H     0.38786   0.12032   0.08061   0.00000  Uiso   1.00
H217   H     0.46034   0.11857   0.41285   0.00000  Uiso   1.00
H218   H     0.43813   0.16212   0.43811   0.00000  Uiso   1.00
H219   H     0.44482   0.07093   0.46731   0.00000  Uiso   1.00
H220   H     0.42505   0.11418   0.49605   0.00000  Uiso   1.00
H221   H     0.36836   0.12602   0.44713   0.00000  Uiso   1.00
H222   H     0.36685   0.07325   0.46595   0.00000  Uiso   1.00
H223   H     0.38842   0.08292   0.41828   0.00000  Uiso   1.00
H224   H     0.46016   0.08227   0.67467   0.00000  Uiso   1.00
H225   H     0.43345   0.32684   0.58981   0.00000  Uiso   1.00
H226   H     0.40558   0.33315   0.54601   0.00000  Uiso   1.00
H227   H     0.40541   0.41225   0.55878   0.00000  Uiso   1.00
H228   H     0.37690   0.38116   0.59378   0.00000  Uiso   1.00
H229   H     0.44004   0.38414   0.63807   0.00000  Uiso   1.00
H230   H     0.41922   0.43527   0.62668   0.00000  Uiso   1.00
H231   H     0.46621   0.41736   0.60256   0.00000  Uiso   1.00
H232   H     0.35780   0.39224   0.43713   0.00000  Uiso   1.00
H233   H     0.30755   0.40267   0.46002   0.00000  Uiso   1.00
H234   H     0.38975   0.37967   0.49912   0.00000  Uiso   1.00
H235   H     0.49499   0.09719   0.63550   0.00000  Uiso   1.00
H236   H     0.34132   0.39285   0.52459   0.00000  Uiso   1.00
H237   H     0.30478   0.33403   0.48675   0.00000  Uiso   1.00
H238   H     0.34398   0.31612   0.51984   0.00000  Uiso   1.00
H239   H     0.35595   0.31868   0.46859   0.00000  Uiso   1.00
H240   H     0.11892   0.45540   0.55919   0.00000  Uiso   1.00
H241   H     0.10276   0.46559   0.51125   0.00000  Uiso   1.00
H242   H     0.06804   0.03001   0.56515   0.00000  Uiso   1.00
H243   H     0.04199   0.49824   0.53014   0.00000  Uiso   1.00
H244   H     0.04514   0.43742   0.57962   0.00000  Uiso   1.00
H245   H     0.01358   0.48134   0.59398   0.00000  Uiso   1.00
H246   H     0.44241   0.07816   0.62530   0.00000  Uiso   1.00
H247   H     0.06496   0.47572   0.61411   0.00000  Uiso   1.00
H248   H     0.49001   0.42053   0.44295   0.00000  Uiso   1.00
H249   H     0.02693   0.38017   0.43911   0.00000  Uiso   1.00
H250   H     0.03748   0.44280   0.48711   0.00000  Uiso   1.00
H251   H     0.00498   0.41492   0.51966   0.00000  Uiso   1.00
H252   H     0.05792   0.35131   0.50914   0.00000  Uiso   1.00
H253   H     0.07926   0.39652   0.53240   0.00000  Uiso   1.00
H254   H     0.08931   0.38779   0.48170   0.00000  Uiso   1.00
H255   H     0.05002   0.10781   0.57331   0.00000  Uiso   1.00
H256   H     0.06164   0.16150   0.56368   0.00000  Uiso   1.00
H257   H     0.19191   0.09072   0.36695   0.00000  Uiso   1.00
H258   H     0.06620   0.08914   0.50498   0.00000  Uiso   1.00
H259   H     0.07886   0.14279   0.49394   0.00000  Uiso   1.00
H260   H     0.13703   0.14351   0.54015   0.00000  Uiso   1.00
H261   H     0.14293   0.09910   0.50824   0.00000  Uiso   1.00
H262   H     0.12395   0.09150   0.55719   0.00000  Uiso   1.00
H263   H     0.12183   0.05658   0.44401   0.00000  Uiso   1.00
H264   H     0.09533   0.03192   0.48353   0.00000  Uiso   1.00
H265   H     0.08341   0.01738   0.39687   0.00000  Uiso   1.00
H266   H     0.06703   0.47867   0.43164   0.00000  Uiso   1.00
H267   H     0.01980   0.02790   0.46412   0.00000  Uiso   1.00
H268   H     0.23806   0.08119   0.39485   0.00000  Uiso   1.00
H269   H     0.00924   0.02898   0.41274   0.00000  Uiso   1.00
H270   H     0.03875   0.07101   0.43490   0.00000  Uiso   1.00
H271   H     0.37831   0.03970   0.53138   0.00000  Uiso   1.00
H272   H     0.40317   0.00238   0.49910   0.00000  Uiso   1.00
H273   H     0.41963   0.00557   0.58702   0.00000  Uiso   1.00
H274   H     0.44802   0.47641   0.55074   0.00000  Uiso   1.00
H275   H     0.44194   0.07309   0.55240   0.00000  Uiso   1.00
H276   H     0.47506   0.04117   0.52128   0.00000  Uiso   1.00
H277   H     0.48439   0.04359   0.57259   0.00000  Uiso   1.00
H278   H     0.17292   0.40139   0.95074   0.00000  Uiso   1.00
H279   H     0.15242   0.11402   0.42319   0.00000  Uiso   1.00
H280   H     0.18045   0.37128   0.99497   0.00000  Uiso   1.00
H281   H     0.19844   0.33698   0.91321   0.00000  Uiso   1.00
H282   H     0.19699   0.30819   0.95804   0.00000  Uiso   1.00
H283   H     0.11990   0.32458   0.96487   0.00000  Uiso   1.00
H284   H     0.13133   0.29840   0.91950   0.00000  Uiso   1.00
H285   H     0.12195   0.35399   0.91993   0.00000  Uiso   1.00
H286   H     0.19214   0.14709   0.05821   0.00000  Uiso   1.00
H287   H     0.19433   0.09424   0.07428   0.00000  Uiso   1.00
H288   H     0.17433   0.12089   0.99009   0.00000  Uiso   1.00
H289   H     0.17126   0.06864   0.00921   0.00000  Uiso   1.00
H290   H     0.19263   0.09543   0.45611   0.00000  Uiso   1.00
H291   H     0.11528   0.08933   0.05540   0.00000  Uiso   1.00
H292   H     0.10071   0.10129   0.00603   0.00000  Uiso   1.00
H293   H     0.11756   0.14279   0.03799   0.00000  Uiso   1.00
H294   H     0.11387   0.16402   0.95738   0.00000  Uiso   1.00
H295   H     0.14728   0.19168   0.99037   0.00000  Uiso   1.00
H296   H     0.18895   0.22106   0.93586   0.00000  Uiso   1.00
H297   H     0.19029   0.16484   0.93793   0.00000  Uiso   1.00
H298   H     0.13511   0.16123   0.88572   0.00000  Uiso   1.00
H299   H     0.18229   0.18800   0.87031   0.00000  Uiso   1.00
H300   H     0.13623   0.21803   0.88246   0.00000  Uiso   1.00
H301   H     0.24245   0.14864   0.42934   0.00000  Uiso   1.00
H302   H     0.34510   0.24545   0.06822   0.00000  Uiso   1.00
H303   H     0.37195   0.21768   0.03090   0.00000  Uiso   1.00
H304   H     0.31784   0.29461   0.01057   0.00000  Uiso   1.00
H305   H     0.33308   0.25193   0.98034   0.00000  Uiso   1.00
H306   H     0.28756   0.20327   0.02059   0.00000  Uiso   1.00
H307   H     0.25816   0.24548   0.99892   0.00000  Uiso   1.00
H308   H     0.27180   0.24705   0.04983   0.00000  Uiso   1.00
H309   H     0.32987   0.10599   0.96011   0.00000  Uiso   1.00
H310   H     0.30896   0.14016   0.99672   0.00000  Uiso   1.00
H311   H     0.30177   0.15958   0.90926   0.00000  Uiso   1.00
H312   H     0.02118   0.32767   0.34495   0.00000  Uiso   1.00
H313   H     0.19495   0.17287   0.44711   0.00000  Uiso   1.00
H314   H     0.29291   0.19419   0.94914   0.00000  Uiso   1.00
H315   H     0.37067   0.18601   0.96736   0.00000  Uiso   1.00
H316   H     0.36223   0.20929   0.92022   0.00000  Uiso   1.00
H317   H     0.37764   0.15505   0.92399   0.00000  Uiso   1.00
H318   H     0.31348   0.41240   0.05352   0.00000  Uiso   1.00
H319   H     0.31047   0.37198   0.01719   0.00000  Uiso   1.00
H320   H     0.29379   0.31922   0.06899   0.00000  Uiso   1.00
H321   H     0.34368   0.34458   0.07464   0.00000  Uiso   1.00
H322   H     0.30898   0.39450   0.12346   0.00000  Uiso   1.00
H323   H     0.31109   0.34013   0.13799   0.00000  Uiso   1.00
H324   H     0.20262   0.16619   0.39553   0.00000  Uiso   1.00
H325   H     0.26268   0.36135   0.12025   0.00000  Uiso   1.00
H326   H     0.42383   0.35821   0.96803   0.00000  Uiso   1.00
H327   H     0.38392   0.34614   0.00350   0.00000  Uiso   1.00
H328   H     0.36500   0.35790   0.91655   0.00000  Uiso   1.00
H329   H     0.32810   0.35223   0.95536   0.00000  Uiso   1.00
H330   H     0.35872   0.41962   0.98564   0.00000  Uiso   1.00
H331   H     0.33426   0.42708   0.93922   0.00000  Uiso   1.00
H332   H     0.39073   0.42528   0.94247   0.00000  Uiso   1.00
H333   H     0.12253   0.29619   0.03522   0.00000  Uiso   1.00
H334   H     0.15409   0.26448   0.00328   0.00000  Uiso   1.00
H335   H     0.36776   0.05081   0.61457   0.00000  Uiso   1.00
H336   H     0.16067   0.26285   0.09215   0.00000  Uiso   1.00
H337   H     0.19376   0.23586   0.05789   0.00000  Uiso   1.00
H338   H     0.18284   0.33185   0.06196   0.00000  Uiso   1.00
H339   H     0.21918   0.30385   0.03133   0.00000  Uiso   1.00
H340   H     0.22516   0.30279   0.08364   0.00000  Uiso   1.00
H341   H     0.32255   0.05028   0.64412   0.00000  Uiso   1.00
H342   H     0.32295   0.07689   0.55713   0.00000  Uiso   1.00
H343   H     0.28007   0.08273   0.59099   0.00000  Uiso   1.00
H344   H     0.31688   0.14976   0.58272   0.00000  Uiso   1.00
H345   H     0.36621   0.12607   0.59565   0.00000  Uiso   1.00
H346   H     0.32472   0.13066   0.63156   0.00000  Uiso   1.00
H347   H     0.07306   0.15988   0.42436   0.00000  Uiso   1.00
H348   H     0.07200   0.33244   0.42236   0.00000  Uiso   1.00
H349   H     0.07824   0.20893   0.39876   0.00000  Uiso   1.00
H350   H     0.06140   0.16900   0.33610   0.00000  Uiso   1.00
H351   H     0.11210   0.16056   0.35778   0.00000  Uiso   1.00
H352   H     0.08798   0.09371   0.38588   0.00000  Uiso   1.00
H353   H     0.07886   0.09417   0.33436   0.00000  Uiso   1.00
H354   H     0.03529   0.10206   0.36726   0.00000  Uiso   1.00
H355   H     0.06384   0.35467   0.58932   0.00000  Uiso   1.00
H356   H     0.07110   0.30185   0.60533   0.00000  Uiso   1.00
H357   H     0.03591   0.32793   0.67127   0.00000  Uiso   1.00
H358   H     0.09058   0.33768   0.66078   0.00000  Uiso   1.00
H359   H     0.07569   0.29344   0.38559   0.00000  Uiso   1.00
H360   H     0.07505   0.40950   0.64123   0.00000  Uiso   1.00
H361   H     0.05323   0.39978   0.68855   0.00000  Uiso   1.00
H362   H     0.01908   0.40073   0.64702   0.00000  Uiso   1.00
H363   H     0.34953   0.41380   0.37371   0.00000  Uiso   1.00
H364   H     0.31729   0.44161   0.34338   0.00000  Uiso   1.00
H365   H     0.29620   0.37463   0.40553   0.00000  Uiso   1.00
H366   H     0.25471   0.41003   0.39324   0.00000  Uiso   1.00
H367   H     0.25590   0.38530   0.32674   0.00000  Uiso   1.00
H368   H     0.25739   0.34038   0.35773   0.00000  Uiso   1.00
H369   H     0.30509   0.35764   0.33416   0.00000  Uiso   1.00
H370   H     0.10345   0.34718   0.33866   0.00000  Uiso   1.00
H371   H     0.13295   0.45061   0.62339   0.00000  Uiso   1.00
H372   H     0.17707   0.45779   0.65188   0.00000  Uiso   1.00
H373   H     0.17923   0.41691   0.56949   0.00000  Uiso   1.00
H374   H     0.22143   0.41733   0.60402   0.00000  Uiso   1.00
H375   H     0.17537   0.37603   0.65068   0.00000  Uiso   1.00
H376   H     0.18727   0.34914   0.60582   0.00000  Uiso   1.00
H377   H     0.13644   0.37266   0.61250   0.00000  Uiso   1.00
H378   H     0.33552   0.09849   0.88980   0.00000  Uiso   1.00
H379   H     0.32239   0.06178   0.85439   0.00000  Uiso   1.00
H380   H     0.34703   0.03909   0.93929   0.00000  Uiso   1.00
H381   H     0.13564   0.34159   0.38136   0.00000  Uiso   1.00
H382   H     0.33913   0.00246   0.90020   0.00000  Uiso   1.00
H383   H     0.39853   0.03515   0.86334   0.00000  Uiso   1.00
H384   H     0.41453   0.01593   0.91033   0.00000  Uiso   1.00
H385   H     0.40695   0.07144   0.90305   0.00000  Uiso   1.00
H386   H     0.17661   0.40163   0.07488   0.00000  Uiso   1.00
H387   H     0.16694   0.45499   0.08845   0.00000  Uiso   1.00
H388   H     0.16380   0.43719   0.15697   0.00000  Uiso   1.00
H389   H     0.12727   0.40658   0.13023   0.00000  Uiso   1.00
H390   H     0.15852   0.35927   0.17562   0.00000  Uiso   1.00
H391   H     0.21078   0.37805   0.16566   0.00000  Uiso   1.00
H392   H     0.10117   0.38613   0.37687   0.00000  Uiso   1.00
H393   H     0.18267   0.34693   0.13001   0.00000  Uiso   1.00
H394   H     0.43421   0.36457   0.89959   0.00000  Uiso   1.00
H395   H     0.46387   0.34540   0.86079   0.00000  Uiso   1.00
H396   H     0.49472   0.35007   0.94624   0.00000  Uiso   1.00
H397   H     0.02595   0.33382   0.90506   0.00000  Uiso   1.00
H398   H     0.01646   0.40428   0.87474   0.00000  Uiso   1.00
H399   H     0.04036   0.40749   0.92209   0.00000  Uiso   1.00
H400   H     0.48561   0.42071   0.91638   0.00000  Uiso   1.00
H401   H     0.10879   0.31918   0.10473   0.00000  Uiso   1.00
H402   H     0.06375   0.31653   0.13460   0.00000  Uiso   1.00
H403   H     0.43771   0.14587   0.58501   0.00000  Uiso   1.00
H404   H     0.05939   0.32750   0.04481   0.00000  Uiso   1.00
H405   H     0.01704   0.33328   0.07915   0.00000  Uiso   1.00
H406   H     0.05590   0.39385   0.10943   0.00000  Uiso   1.00
H407   H     0.04225   0.40196   0.05920   0.00000  Uiso   1.00
H408   H     0.09551   0.38878   0.07138   0.00000  Uiso   1.00
H409   H     0.27849   0.37922   0.89802   0.00000  Uiso   1.00
H410   H     0.29758   0.42834   0.87983   0.00000  Uiso   1.00
H411   H     0.25159   0.42112   0.82105   0.00000  Uiso   1.00
H412   H     0.29013   0.38051   0.82600   0.00000  Uiso   1.00
H413   H     0.22119   0.35190   0.80536   0.00000  Uiso   1.00
H414   H     0.42950   0.19393   0.61137   0.00000  Uiso   1.00
H415   H     0.19631   0.37271   0.84825   0.00000  Uiso   1.00
H416   H     0.23569   0.33175   0.85233   0.00000  Uiso   1.00
H417   H     0.31924   0.08986   0.07602   0.00000  Uiso   1.00
H418   H     0.32271   0.05743   0.11901   0.00000  Uiso   1.00
H419   H     0.29438   0.11831   0.15878   0.00000  Uiso   1.00
H420   H     0.34538   0.12648   0.13783   0.00000  Uiso   1.00
H421   H     0.31269   0.16726   0.08289   0.00000  Uiso   1.00
H422   H     0.30188   0.19001   0.12980   0.00000  Uiso   1.00
H423   H     0.26159   0.16035   0.10541   0.00000  Uiso   1.00
H424   H     0.04157   0.14712   0.86773   0.00000  Uiso   1.00
O425   O     0.25000   0.00000   0.25000   0.00000  Uiso   1.00
O426   O     0.25000   0.46539   0.66251   0.00000  Uiso   1.00
O427   O     0.46538   0.25000   0.33749   0.00000  Uiso   1.00
O428   O     0.03461   0.25000   0.66251   0.00000  Uiso   1.00
O429   O     0.00000   0.21538   0.83749   0.00000  Uiso   1.00
O430   O     0.00000   0.28461   0.16251   0.00000  Uiso   1.00
O431   O     0.28461   0.00000   0.83749   0.00000  Uiso   1.00
O432   O     0.21538   0.00000   0.16251   0.00000  Uiso   1.00
O433   O     0.00000   0.28461   0.83749   0.00000  Uiso   1.00
O434   O     0.00000   0.21538   0.16251   0.00000  Uiso   1.00
O435   O     0.21538   0.00000   0.83749   0.00000  Uiso   1.00
O436   O     0.25000   0.00000   0.75000   0.00000  Uiso   1.00
O437   O     0.28461   0.00000   0.16251   0.00000  Uiso   1.00
O438   O     0.20126   0.08332   0.27298   0.00000  Uiso   1.00
O439   O     0.29873   0.41668   0.72702   0.00000  Uiso   1.00
O440   O     0.41668   0.20127   0.27298   0.00000  Uiso   1.00
O441   O     0.08332   0.29873   0.72702   0.00000  Uiso   1.00
O442   O     0.29873   0.41668   0.27298   0.00000  Uiso   1.00
O443   O     0.20126   0.08332   0.72702   0.00000  Uiso   1.00
O444   O     0.08332   0.29873   0.27298   0.00000  Uiso   1.00
O445   O     0.41668   0.20127   0.72702   0.00000  Uiso   1.00
O446   O     0.20126   0.41668   0.72702   0.00000  Uiso   1.00
O447   O     0.00000   0.25000   0.25000   0.00000  Uiso   1.00
O448   O     0.29873   0.08332   0.27298   0.00000  Uiso   1.00
O449   O     0.41668   0.29874   0.72702   0.00000  Uiso   1.00
O450   O     0.08332   0.20127   0.27298   0.00000  Uiso   1.00
O451   O     0.29873   0.08332   0.72702   0.00000  Uiso   1.00
O452   O     0.20126   0.41668   0.27298   0.00000  Uiso   1.00
O453   O     0.08332   0.20127   0.72702   0.00000  Uiso   1.00
O454   O     0.41668   0.29874   0.27298   0.00000  Uiso   1.00
O455   O     0.45126   0.33332   0.77298   0.00000  Uiso   1.00
O456   O     0.04873   0.16668   0.22702   0.00000  Uiso   1.00
O457   O     0.16668   0.45127   0.77298   0.00000  Uiso   1.00
O458   O     0.00000   0.25000   0.75000   0.00000  Uiso   1.00
O459   O     0.33332   0.04874   0.22702   0.00000  Uiso   1.00
O460   O     0.04873   0.16668   0.77298   0.00000  Uiso   1.00
O461   O     0.45126   0.33332   0.22702   0.00000  Uiso   1.00
O462   O     0.33332   0.04874   0.77298   0.00000  Uiso   1.00
O463   O     0.16668   0.45127   0.22702   0.00000  Uiso   1.00
O464   O     0.45126   0.16668   0.22702   0.00000  Uiso   1.00
O465   O     0.04873   0.33332   0.77298   0.00000  Uiso   1.00
O466   O     0.16668   0.04874   0.22702   0.00000  Uiso   1.00
O467   O     0.33332   0.45127   0.77298   0.00000  Uiso   1.00
O468   O     0.04873   0.33332   0.22702   0.00000  Uiso   1.00
O469   O     0.25000   0.46539   0.33749   0.00000  Uiso   1.00
O470   O     0.45126   0.16668   0.77298   0.00000  Uiso   1.00
O471   O     0.33332   0.45127   0.22702   0.00000  Uiso   1.00
O472   O     0.16668   0.04874   0.77298   0.00000  Uiso   1.00
O473   O     0.49049   0.32917   0.39894   0.00000  Uiso   1.00
O474   O     0.49262   0.17458   0.60310   0.00000  Uiso   1.00
O475   O     0.18730   0.03766   0.40085   0.00000  Uiso   1.00
O476   O     0.32566   0.00458   0.60105   0.00000  Uiso   1.00
O477   O     0.01811   0.18021   0.39796   0.00000  Uiso   1.00
O478   O     0.00820   0.32449   0.60269   0.00000  Uiso   1.00
O479   O     0.32282   0.46530   0.39933   0.00000  Uiso   1.00
O480   O     0.25000   0.03462   0.66251   0.00000  Uiso   1.00
O481   O     0.17319   0.49518   0.60214   0.00000  Uiso   1.00
O482   O     0.27800   0.07047   0.89815   0.00000  Uiso   1.00
O483   O     0.22660   0.42950   0.10336   0.00000  Uiso   1.00
O484   O     0.44127   0.30037   0.89931   0.00000  Uiso   1.00
O485   O     0.07451   0.26492   0.09882   0.00000  Uiso   1.00
O486   O     0.23320   0.42568   0.89737   0.00000  Uiso   1.00
O487   O     0.26219   0.07496   0.10266   0.00000  Uiso   1.00
O488   O     0.05522   0.19888   0.90106   0.00000  Uiso   1.00
O489   O     0.42377   0.24263   0.10051   0.00000  Uiso   1.00
O490   O     0.49593   0.13705   0.45944   0.00000  Uiso   1.00
O491   O     0.03461   0.25000   0.33749   0.00000  Uiso   1.00
O492   O     0.46585   0.35907   0.54503   0.00000  Uiso   1.00
O493   O     0.35579   0.44811   0.46647   0.00000  Uiso   1.00
O494   O     0.13611   0.01410   0.53850   0.00000  Uiso   1.00
O495   O     0.46968   0.36529   0.46629   0.00000  Uiso   1.00
O496   O     0.00721   0.13556   0.53733   0.00000  Uiso   1.00
O497   O     0.13964   0.49503   0.45538   0.00000  Uiso   1.00
O498   O     0.36266   0.47687   0.54080   0.00000  Uiso   1.00
O499   O     0.23485   0.38490   0.96318   0.00000  Uiso   1.00
O500   O     0.24223   0.11446   0.03628   0.00000  Uiso   1.00
O501   O     0.10925   0.22929   0.95550   0.00000  Uiso   1.00
O502   O     0.46538   0.25000   0.66251   0.00000  Uiso   1.00
O503   O     0.38911   0.28143   0.04091   0.00000  Uiso   1.00
O504   O     0.26454   0.11330   0.95985   0.00000  Uiso   1.00
O505   O     0.25332   0.38678   0.04174   0.00000  Uiso   1.00
O506   O     0.39494   0.29959   0.96195   0.00000  Uiso   1.00
O507   O     0.11246   0.23125   0.03880   0.00000  Uiso   1.00
O508   O     0.25000   0.03462   0.33749   0.00000  Uiso   1.00
Zn509  Zn    0.20052   0.00000   0.21730   0.00000  Uiso   1.00
Zn510  Zn    0.04947   0.25000   0.28270   0.00000  Uiso   1.00
Zn511  Zn    0.25000   0.45053   0.71730   0.00000  Uiso   1.00
Zn512  Zn    0.25000   0.04948   0.28270   0.00000  Uiso   1.00
Zn513  Zn    0.04947   0.25000   0.71730   0.00000  Uiso   1.00
Zn514  Zn    0.45052   0.25000   0.28270   0.00000  Uiso   1.00
Zn515  Zn    0.25000   0.04948   0.71730   0.00000  Uiso   1.00
Zn516  Zn    0.25000   0.45053   0.28270   0.00000  Uiso   1.00
Zn517  Zn    0.29947   0.00000   0.78270   0.00000  Uiso   1.00
Zn518  Zn    0.00000   0.20052   0.21730   0.00000  Uiso   1.00
Zn519  Zn    0.00000   0.29947   0.78270   0.00000  Uiso   1.00
Zn520  Zn    0.29947   0.00000   0.21730   0.00000  Uiso   1.00
Zn521  Zn    0.20052   0.00000   0.78270   0.00000  Uiso   1.00
Zn522  Zn   -0.00000   0.29948   0.21730   0.00000  Uiso   1.00
Zn523  Zn    0.00000   0.20052   0.78270   0.00000  Uiso   1.00
Zn524  Zn    0.45052   0.25000   0.71730   0.00000  Uiso   1.00
C525   C     0.75165   0.49970   0.35591   0.00000  Uiso   1.00
C526   C     0.83002   0.41997   0.75001   0.00000  Uiso   1.00
C527   C     0.92526   0.27078   0.02069   0.00000  Uiso   1.00
C528   C     0.76096   0.07557   0.97954   0.00000  Uiso   1.00
C529   C     0.74569   0.42379   0.02177   0.00000  Uiso   1.00
C530   C     0.92847   0.28087   0.98078   0.00000  Uiso   1.00
C531   C     0.57514   0.23686   0.01896   0.00000  Uiso   1.00
C532   C     0.52571   0.33961   0.37484   0.00000  Uiso   1.00
C533   C     0.56971   0.32723   0.39061   0.00000  Uiso   1.00
C534   C     0.60459   0.35215   0.37054   0.00000  Uiso   1.00
C535   C     0.94961   0.16532   0.60938   0.00000  Uiso   1.00
C536   C     0.94465   0.14164   0.64781   0.00000  Uiso   1.00
C537   C     0.91992   0.17003   0.24999   0.00000  Uiso   1.00
C538   C     0.96176   0.09707   0.64550   0.00000  Uiso   1.00
C539   C     0.70301   0.07919   0.39559   0.00000  Uiso   1.00
C540   C     0.68665   0.10906   0.42699   0.00000  Uiso   1.00
C541   C     0.70811   0.15182   0.42447   0.00000  Uiso   1.00
C542   C     0.83317   0.04654   0.61366   0.00000  Uiso   1.00
C543   C     0.81486   0.08208   0.58812   0.00000  Uiso   1.00
C544   C     0.83177   0.12479   0.60041   0.00000  Uiso   1.00
C545   C     0.56258   0.17752   0.39829   0.00000  Uiso   1.00
C546   C     0.57775   0.15536   0.36146   0.00000  Uiso   1.00
C547   C     0.56926   0.10836   0.36246   0.00000  Uiso   1.00
C548   C     0.58013   0.32992   0.75007   0.00000  Uiso   1.00
C549   C     0.55160   0.33060   0.60974   0.00000  Uiso   1.00
C550   C     0.55791   0.34499   0.65180   0.00000  Uiso   1.00
C551   C     0.55071   0.39174   0.65729   0.00000  Uiso   1.00
C552   C     0.81882   0.43023   0.37365   0.00000  Uiso   1.00
C553   C     0.78476   0.39632   0.38300   0.00000  Uiso   1.00
C554   C     0.77546   0.36839   0.34809   0.00000  Uiso   1.00
C555   C     0.66723   0.45576   0.62118   0.00000  Uiso   1.00
C556   C     0.68672   0.41687   0.60096   0.00000  Uiso   1.00
C557   C     0.67038   0.37619   0.61877   0.00000  Uiso   1.00
C558   C     0.82100   0.06718   0.88612   0.00000  Uiso   1.00
C559   C     0.83006   0.41997   0.24998   0.00000  Uiso   1.00
C560   C     0.84925   0.03489   0.90736   0.00000  Uiso   1.00
C561   C     0.89516   0.03976   0.89517   0.00000  Uiso   1.00
C562   C     0.68263   0.42529   0.09775   0.00000  Uiso   1.00
C563   C     0.66119   0.41157   0.13554   0.00000  Uiso   1.00
C564   C     0.67965   0.37148   0.15256   0.00000  Uiso   1.00
C565   C     0.95869   0.34124   0.89240   0.00000  Uiso   1.00
C566   C     0.99928   0.35388   0.91444   0.00000  Uiso   1.00
C567   C     0.51105   0.39947   0.90632   0.00000  Uiso   1.00
C568   C     0.57530   0.30935   0.10496   0.00000  Uiso   1.00
C569   C     0.55149   0.33695   0.07494   0.00000  Uiso   1.00
C570   C     0.66994   0.08003   0.75003   0.00000  Uiso   1.00
C571   C     0.56209   0.38328   0.07923   0.00000  Uiso   1.00
C572   C     0.76961   0.40720   0.88068   0.00000  Uiso   1.00
C573   C     0.76081   0.39357   0.83877   0.00000  Uiso   1.00
C574   C     0.72629   0.36042   0.83625   0.00000  Uiso   1.00
C575   C     0.80549   0.08394   0.10531   0.00000  Uiso   1.00
C576   C     0.81155   0.12271   0.13088   0.00000  Uiso   1.00
C577   C     0.79589   0.16248   0.11089   0.00000  Uiso   1.00
C578   C     0.53228   0.16086   0.89613   0.00000  Uiso   1.00
C579   C     0.54259   0.12900   0.92799   0.00000  Uiso   1.00
C580   C     0.51321   0.09114   0.92634   0.00000  Uiso   1.00
C581   C     0.57996   0.33007   0.25006   0.00000  Uiso   1.00
C582   C     0.91826   0.19917   0.10935   0.00000  Uiso   1.00
C583   C     0.93685   0.16747   0.07969   0.00000  Uiso   1.00
C584   C     0.92172   0.12290   0.08752   0.00000  Uiso   1.00
C585   C     0.95569   0.13217   0.44225   0.00000  Uiso   1.00
C586   C     0.92883   0.10177   0.46611   0.00000  Uiso   1.00
C587   C     0.88545   0.09570   0.44816   0.00000  Uiso   1.00
C588   C     0.92831   0.34879   0.56537   0.00000  Uiso   1.00
C589   C     0.90866   0.38861   0.58210   0.00000  Uiso   1.00
C590   C     0.93531   0.40737   0.61443   0.00000  Uiso   1.00
C591   C     0.84223   0.40586   0.46305   0.00000  Uiso   1.00
C592   C     0.92000   0.16998   0.75001   0.00000  Uiso   1.00
C593   C     0.85499   0.37941   0.49763   0.00000  Uiso   1.00
C594   C     0.83904   0.33435   0.49284   0.00000  Uiso   1.00
C595   C     0.60726   0.48041   0.54000   0.00000  Uiso   1.00
C596   C     0.56464   0.49727   0.55452   0.00000  Uiso   1.00
C597   C     0.54608   0.47110   0.58748   0.00000  Uiso   1.00
C598   C     0.50353   0.39342   0.45886   0.00000  Uiso   1.00
C599   C     0.52637   0.41086   0.49463   0.00000  Uiso   1.00
C600   C     0.56531   0.38493   0.50508   0.00000  Uiso   1.00
C601   C     0.54935   0.13218   0.55024   0.00000  Uiso   1.00
C602   C     0.57850   0.11871   0.51723   0.00000  Uiso   1.00
C603   C     0.66995   0.42000   0.75002   0.00000  Uiso   1.00
C604   C     0.62336   0.11279   0.53168   0.00000  Uiso   1.00
C605   C     0.60881   0.02665   0.45461   0.00000  Uiso   1.00
C606   C     0.57342   0.01267   0.42752   0.00000  Uiso   1.00
C607   C     0.53283   0.03674   0.43530   0.00000  Uiso   1.00
C608   C     0.89222   0.00778   0.52940   0.00000  Uiso   1.00
C609   C     0.93034   0.00582   0.55629   0.00000  Uiso   1.00
C610   C     0.95961   0.04324   0.55009   0.00000  Uiso   1.00
C611   C     0.69138   0.37562   0.96443   0.00000  Uiso   1.00
C612   C     0.68311   0.33509   0.94211   0.00000  Uiso   1.00
C613   C     0.63612   0.32763   0.93639   0.00000  Uiso   1.00
C614   C     0.83002   0.08003   0.24991   0.00000  Uiso   1.00
C615   C     0.69939   0.11465   0.04857   0.00000  Uiso   1.00
C616   C     0.66785   0.10238   0.01661   0.00000  Uiso   1.00
C617   C     0.62258   0.10948   0.02992   0.00000  Uiso   1.00
C618   C     0.63315   0.19257   0.96111   0.00000  Uiso   1.00
C619   C     0.66973   0.19219   0.93205   0.00000  Uiso   1.00
C620   C     0.65470   0.18970   0.89008   0.00000  Uiso   1.00
C621   C     0.85880   0.24892   0.03866   0.00000  Uiso   1.00
C622   C     0.82359   0.26037   0.01029   0.00000  Uiso   1.00
C623   C     0.78276   0.23762   0.02051   0.00000  Uiso   1.00
C624   C     0.80524   0.12984   0.96611   0.00000  Uiso   1.00
C625   C     0.91999   0.33003   0.74999   0.00000  Uiso   1.00
C626   C     0.81227   0.16739   0.93912   0.00000  Uiso   1.00
C627   C     0.85857   0.18019   0.93767   0.00000  Uiso   1.00
C628   C     0.79749   0.38247   0.04538   0.00000  Uiso   1.00
C629   C     0.80914   0.34946   0.07577   0.00000  Uiso   1.00
C630   C     0.79721   0.36247   0.11689   0.00000  Uiso   1.00
C631   C     0.89295   0.34245   0.97250   0.00000  Uiso   1.00
C632   C     0.85976   0.36458   0.94783   0.00000  Uiso   1.00
C633   C     0.86099   0.41201   0.95425   0.00000  Uiso   1.00
C634   C     0.63941   0.26587   0.03249   0.00000  Uiso   1.00
C635   C     0.67444   0.26444   0.06249   0.00000  Uiso   1.00
C636   C     0.74996   0.00006   0.64413   0.00000  Uiso   1.00
C637   C     0.58001   0.16997   0.25002   0.00000  Uiso   1.00
C638   C     0.70221   0.30318   0.05954   0.00000  Uiso   1.00
C639   C     0.83003   0.07999   0.74996   0.00000  Uiso   1.00
C640   C     0.66991   0.42006   0.25013   0.00000  Uiso   1.00
C641   C     0.58007   0.16998   0.74998   0.00000  Uiso   1.00
C642   C     0.91993   0.33003   0.25003   0.00000  Uiso   1.00
C643   C     0.63815   0.38851   0.25033   0.00000  Uiso   1.00
C644   C     0.86172   0.11163   0.74991   0.00000  Uiso   1.00
C645   C     0.61163   0.13828   0.25009   0.00000  Uiso   1.00
C646   C     0.88832   0.36168   0.75001   0.00000  Uiso   1.00
C647   C     0.86165   0.11170   0.24985   0.00000  Uiso   1.00
C648   C     0.99992   0.25116   0.35599   0.00000  Uiso   1.00
C649   C     0.63833   0.38833   0.75006   0.00000  Uiso   1.00
C650   C     0.88828   0.36166   0.25006   0.00000  Uiso   1.00
C651   C     0.61171   0.13835   0.74998   0.00000  Uiso   1.00
C652   C     0.63829   0.11167   0.75005   0.00000  Uiso   1.00
C653   C     0.86169   0.38834   0.24999   0.00000  Uiso   1.00
C654   C     0.61178   0.36158   0.75002   0.00000  Uiso   1.00
C655   C     0.88824   0.13841   0.24995   0.00000  Uiso   1.00
C656   C     0.86167   0.38832   0.75001   0.00000  Uiso   1.00
C657   C     0.63827   0.11164   0.25010   0.00000  Uiso   1.00
C658   C     0.88838   0.13827   0.74995   0.00000  Uiso   1.00
C659   C     0.50012   0.24941   0.64424   0.00000  Uiso   1.00
C660   C     0.61149   0.36185   0.25024   0.00000  Uiso   1.00
C661   C     0.99448   0.29144   0.41888   0.00000  Uiso   1.00
C662   C     0.99617   0.21144   0.58205   0.00000  Uiso   1.00
C663   C     0.71746   0.01319   0.41909   0.00000  Uiso   1.00
C664   C     0.78784   0.00000   0.58150   0.00000  Uiso   1.00
C665   C     0.50586   0.21546   0.41860   0.00000  Uiso   1.00
C666   C     0.50196   0.28743   0.58232   0.00000  Uiso   1.00
C667   C     0.78632   0.47844   0.41841   0.00000  Uiso   1.00
C668   C     0.71092   0.49796   0.58180   0.00000  Uiso   1.00
C669   C     0.76353   0.03559   0.91838   0.00000  Uiso   1.00
C670   C     0.99948   0.25005   0.85601   0.00000  Uiso   1.00
C671   C     0.74126   0.46361   0.08233   0.00000  Uiso   1.00
C672   C     0.96834   0.27382   0.91897   0.00000  Uiso   1.00
C673   C     0.53787   0.25201   0.08075   0.00000  Uiso   1.00
C674   C     0.74376   0.46139   0.91830   0.00000  Uiso   1.00
C675   C     0.75669   0.03826   0.08182   0.00000  Uiso   1.00
C676   C     0.52983   0.22824   0.91929   0.00000  Uiso   1.00
C677   C     0.96138   0.25024   0.08137   0.00000  Uiso   1.00
C678   C     0.99997   0.25307   0.39856   0.00000  Uiso   1.00
C679   C     0.50032   0.24931   0.60214   0.00000  Uiso   1.00
C680   C     0.75250   0.49787   0.39834   0.00000  Uiso   1.00
C681   C     0.50002   0.25004   0.14403   0.00000  Uiso   1.00
C682   C     0.74948   0.00002   0.60181   0.00000  Uiso   1.00
C683   C     0.75133   0.49926   0.89831   0.00000  Uiso   1.00
C684   C     0.74998   0.00076   0.10203   0.00000  Uiso   1.00
C685   C     0.99889   0.25038   0.89857   0.00000  Uiso   1.00
C686   C     0.99975   0.25018   0.10155   0.00000  Uiso   1.00
C687   C     0.99988   0.21390   0.45903   0.00000  Uiso   1.00
C688   C     0.99292   0.28794   0.54242   0.00000  Uiso   1.00
C689   C     0.78701   0.48184   0.45957   0.00000  Uiso   1.00
C690   C     0.71073   0.49981   0.54062   0.00000  Uiso   1.00
C691   C     0.99140   0.29105   0.46028   0.00000  Uiso   1.00
C692   C     0.75013   0.00019   0.85593   0.00000  Uiso   1.00
C693   C     0.99809   0.21154   0.54099   0.00000  Uiso   1.00
C694   C     0.71368   0.00446   0.45892   0.00000  Uiso   1.00
C695   C     0.78792   0.49291   0.54114   0.00000  Uiso   1.00
C696   C     0.74513   0.46083   0.95949   0.00000  Uiso   1.00
C697   C     0.75334   0.03856   0.04092   0.00000  Uiso   1.00
C698   C     0.53440   0.23607   0.95914   0.00000  Uiso   1.00
C699   C     0.96158   0.25751   0.04096   0.00000  Uiso   1.00
C700   C     0.75903   0.03708   0.95906   0.00000  Uiso   1.00
C701   C     0.74556   0.46223   0.04165   0.00000  Uiso   1.00
C702   C     0.96452   0.26820   0.95958   0.00000  Uiso   1.00
C703   C     0.75002   0.00059   0.14420   0.00000  Uiso   1.00
C704   C     0.53771   0.24501   0.04025   0.00000  Uiso   1.00
C705   C     0.99545   0.25184   0.48003   0.00000  Uiso   1.00
C706   C     0.99541   0.25040   0.52105   0.00000  Uiso   1.00
C707   C     0.75016   0.49425   0.47969   0.00000  Uiso   1.00
C708   C     0.74950   0.49538   0.52056   0.00000  Uiso   1.00
C709   C     0.75142   0.49928   0.97968   0.00000  Uiso   1.00
C710   C     0.75032  -0.00000   0.02071   0.00000  Uiso   1.00
C711   C     0.99921   0.25120   0.97971   0.00000  Uiso   1.00
C712   C     0.99944   0.25083   0.02032   0.00000  Uiso   1.00
C713   C     0.99839   0.17501   0.47898   0.00000  Uiso   1.00
C714   C     0.66995   0.08000   0.25004   0.00000  Uiso   1.00
C715   C     0.98019   0.32488   0.52376   0.00000  Uiso   1.00
C716   C     0.82319   0.47174   0.48163   0.00000  Uiso   1.00
C717   C     0.67272   0.00330   0.51910   0.00000  Uiso   1.00
C718   C     0.98301   0.32798   0.48293   0.00000  Uiso   1.00
C719   C     0.50142   0.17403   0.51946   0.00000  Uiso   1.00
C720   C     0.67433   0.00574   0.47780   0.00000  Uiso   1.00
C721   C     0.82538   0.48302   0.52090   0.00000  Uiso   1.00
C722   C     0.74101   0.42310   0.98122   0.00000  Uiso   1.00
C723   C     0.75290   0.07631   0.01959   0.00000  Uiso   1.00
C724   C     0.57307   0.22980   0.97825   0.00000  Uiso   1.00
H725   H     0.52514   0.37423   0.37125   0.00000  Uiso   1.00
H726   H     0.96153   0.15896   0.67101   0.00000  Uiso   1.00
H727   H     0.99748   0.16529   0.89492   0.00000  Uiso   1.00
H728   H     0.57532   0.11776   0.92399   0.00000  Uiso   1.00
H729   H     0.53947   0.14391   0.95701   0.00000  Uiso   1.00
H730   H     0.98021   0.10098   0.93163   0.00000  Uiso   1.00
H731   H     0.52220   0.06819   0.94910   0.00000  Uiso   1.00
H732   H     0.51545   0.07564   0.89753   0.00000  Uiso   1.00
H733   H     0.88392   0.19349   0.11131   0.00000  Uiso   1.00
H734   H     0.93064   0.19243   0.13872   0.00000  Uiso   1.00
H735   H     0.92783   0.17615   0.04965   0.00000  Uiso   1.00
H736   H     0.97171   0.16765   0.08158   0.00000  Uiso   1.00
H737   H     0.91083   0.14018   0.65593   0.00000  Uiso   1.00
H738   H     0.92708   0.11415   0.11834   0.00000  Uiso   1.00
H739   H     0.93915   0.10070   0.06860   0.00000  Uiso   1.00
H740   H     0.88786   0.12032   0.08061   0.00000  Uiso   1.00
H741   H     0.96034   0.11857   0.41285   0.00000  Uiso   1.00
H742   H     0.93813   0.16212   0.43811   0.00000  Uiso   1.00
H743   H     0.94482   0.07093   0.46731   0.00000  Uiso   1.00
H744   H     0.92505   0.11418   0.49605   0.00000  Uiso   1.00
H745   H     0.86836   0.12602   0.44713   0.00000  Uiso   1.00
H746   H     0.86685   0.07325   0.46595   0.00000  Uiso   1.00
H747   H     0.88842   0.08292   0.41828   0.00000  Uiso   1.00
H748   H     0.96016   0.08227   0.67467   0.00000  Uiso   1.00
H749   H     0.93345   0.32684   0.58981   0.00000  Uiso   1.00
H750   H     0.90558   0.33315   0.54601   0.00000  Uiso   1.00
H751   H     0.90541   0.41225   0.55878   0.00000  Uiso   1.00
H752   H     0.87690   0.38116   0.59378   0.00000  Uiso   1.00
H753   H     0.94004   0.38414   0.63807   0.00000  Uiso   1.00
H754   H     0.91922   0.43527   0.62668   0.00000  Uiso   1.00
H755   H     0.96621   0.41736   0.60256   0.00000  Uiso   1.00
H756   H     0.85780   0.39224   0.43713   0.00000  Uiso   1.00
H757   H     0.80755   0.40267   0.46002   0.00000  Uiso   1.00
H758   H     0.88975   0.37967   0.49912   0.00000  Uiso   1.00
H759   H     0.99499   0.09719   0.63550   0.00000  Uiso   1.00
H760   H     0.84132   0.39285   0.52459   0.00000  Uiso   1.00
H761   H     0.80478   0.33403   0.48675   0.00000  Uiso   1.00
H762   H     0.84398   0.31612   0.51984   0.00000  Uiso   1.00
H763   H     0.85595   0.31868   0.46859   0.00000  Uiso   1.00
H764   H     0.61892   0.45540   0.55919   0.00000  Uiso   1.00
H765   H     0.60276   0.46559   0.51125   0.00000  Uiso   1.00
H766   H     0.56804   0.03001   0.56515   0.00000  Uiso   1.00
H767   H     0.54199   0.49824   0.53014   0.00000  Uiso   1.00
H768   H     0.54514   0.43742   0.57962   0.00000  Uiso   1.00
H769   H     0.51358   0.48134   0.59398   0.00000  Uiso   1.00
H770   H     0.94241   0.07816   0.62530   0.00000  Uiso   1.00
H771   H     0.56496   0.47572   0.61411   0.00000  Uiso   1.00
H772   H     0.99001   0.42053   0.44295   0.00000  Uiso   1.00
H773   H     0.52693   0.38017   0.43911   0.00000  Uiso   1.00
H774   H     0.53748   0.44280   0.48711   0.00000  Uiso   1.00
H775   H     0.50498   0.41492   0.51966   0.00000  Uiso   1.00
H776   H     0.55792   0.35131   0.50914   0.00000  Uiso   1.00
H777   H     0.57926   0.39652   0.53240   0.00000  Uiso   1.00
H778   H     0.58931   0.38779   0.48170   0.00000  Uiso   1.00
H779   H     0.55002   0.10781   0.57331   0.00000  Uiso   1.00
H780   H     0.56164   0.16150   0.56368   0.00000  Uiso   1.00
H781   H     0.69191   0.09072   0.36695   0.00000  Uiso   1.00
H782   H     0.56620   0.08914   0.50498   0.00000  Uiso   1.00
H783   H     0.57886   0.14279   0.49394   0.00000  Uiso   1.00
H784   H     0.63703   0.14351   0.54015   0.00000  Uiso   1.00
H785   H     0.64293   0.09910   0.50824   0.00000  Uiso   1.00
H786   H     0.62395   0.09150   0.55719   0.00000  Uiso   1.00
H787   H     0.62183   0.05658   0.44401   0.00000  Uiso   1.00
H788   H     0.59533   0.03192   0.48353   0.00000  Uiso   1.00
H789   H     0.58341   0.01738   0.39687   0.00000  Uiso   1.00
H790   H     0.56703   0.47867   0.43164   0.00000  Uiso   1.00
H791   H     0.51980   0.02790   0.46412   0.00000  Uiso   1.00
H792   H     0.73806   0.08119   0.39485   0.00000  Uiso   1.00
H793   H     0.50924   0.02898   0.41274   0.00000  Uiso   1.00
H794   H     0.53875   0.07101   0.43490   0.00000  Uiso   1.00
H795   H     0.87831   0.03970   0.53138   0.00000  Uiso   1.00
H796   H     0.90317   0.00238   0.49910   0.00000  Uiso   1.00
H797   H     0.91963   0.00557   0.58702   0.00000  Uiso   1.00
H798   H     0.94802   0.47641   0.55074   0.00000  Uiso   1.00
H799   H     0.94194   0.07309   0.55240   0.00000  Uiso   1.00
H800   H     0.97506   0.04117   0.52128   0.00000  Uiso   1.00
H801   H     0.98439   0.04359   0.57259   0.00000  Uiso   1.00
H802   H     0.67292   0.40139   0.95074   0.00000  Uiso   1.00
H803   H     0.65242   0.11402   0.42319   0.00000  Uiso   1.00
H804   H     0.68045   0.37128   0.99497   0.00000  Uiso   1.00
H805   H     0.69844   0.33698   0.91321   0.00000  Uiso   1.00
H806   H     0.69699   0.30819   0.95804   0.00000  Uiso   1.00
H807   H     0.61990   0.32458   0.96487   0.00000  Uiso   1.00
H808   H     0.63133   0.29840   0.91950   0.00000  Uiso   1.00
H809   H     0.62195   0.35399   0.91993   0.00000  Uiso   1.00
H810   H     0.69214   0.14709   0.05821   0.00000  Uiso   1.00
H811   H     0.69433   0.09424   0.07428   0.00000  Uiso   1.00
H812   H     0.67433   0.12089   0.99009   0.00000  Uiso   1.00
H813   H     0.67126   0.06864   0.00921   0.00000  Uiso   1.00
H814   H     0.69263   0.09543   0.45611   0.00000  Uiso   1.00
H815   H     0.61528   0.08933   0.05540   0.00000  Uiso   1.00
H816   H     0.60071   0.10129   0.00603   0.00000  Uiso   1.00
H817   H     0.61756   0.14279   0.03799   0.00000  Uiso   1.00
H818   H     0.61387   0.16402   0.95738   0.00000  Uiso   1.00
H819   H     0.64728   0.19168   0.99037   0.00000  Uiso   1.00
H820   H     0.68895   0.22106   0.93586   0.00000  Uiso   1.00
H821   H     0.69029   0.16484   0.93793   0.00000  Uiso   1.00
H822   H     0.63511   0.16123   0.88572   0.00000  Uiso   1.00
H823   H     0.68229   0.18800   0.87031   0.00000  Uiso   1.00
H824   H     0.63623   0.21803   0.88246   0.00000  Uiso   1.00
H825   H     0.74245   0.14864   0.42934   0.00000  Uiso   1.00
H826   H     0.84510   0.24545   0.06822   0.00000  Uiso   1.00
H827   H     0.87195   0.21768   0.03090   0.00000  Uiso   1.00
H828   H     0.81784   0.29461   0.01057   0.00000  Uiso   1.00
H829   H     0.83308   0.25193   0.98034   0.00000  Uiso   1.00
H830   H     0.78756   0.20327   0.02059   0.00000  Uiso   1.00
H831   H     0.75816   0.24548   0.99892   0.00000  Uiso   1.00
H832   H     0.77180   0.24705   0.04983   0.00000  Uiso   1.00
H833   H     0.82987   0.10599   0.96011   0.00000  Uiso   1.00
H834   H     0.80896   0.14016   0.99672   0.00000  Uiso   1.00
H835   H     0.80177   0.15958   0.90926   0.00000  Uiso   1.00
H836   H     0.52118   0.32767   0.34495   0.00000  Uiso   1.00
H837   H     0.69495   0.17287   0.44711   0.00000  Uiso   1.00
H838   H     0.79291   0.19419   0.94914   0.00000  Uiso   1.00
H839   H     0.87067   0.18601   0.96736   0.00000  Uiso   1.00
H840   H     0.86223   0.20929   0.92022   0.00000  Uiso   1.00
H841   H     0.87764   0.15505   0.92399   0.00000  Uiso   1.00
H842   H     0.81348   0.41240   0.05352   0.00000  Uiso   1.00
H843   H     0.81047   0.37198   0.01719   0.00000  Uiso   1.00
H844   H     0.79379   0.31922   0.06899   0.00000  Uiso   1.00
H845   H     0.84368   0.34458   0.07464   0.00000  Uiso   1.00
H846   H     0.80898   0.39450   0.12346   0.00000  Uiso   1.00
H847   H     0.81109   0.34013   0.13799   0.00000  Uiso   1.00
H848   H     0.70262   0.16619   0.39553   0.00000  Uiso   1.00
H849   H     0.76268   0.36135   0.12025   0.00000  Uiso   1.00
H850   H     0.92383   0.35821   0.96803   0.00000  Uiso   1.00
H851   H     0.88392   0.34614   0.00350   0.00000  Uiso   1.00
H852   H     0.86500   0.35790   0.91655   0.00000  Uiso   1.00
H853   H     0.82810   0.35223   0.95536   0.00000  Uiso   1.00
H854   H     0.85872   0.41962   0.98564   0.00000  Uiso   1.00
H855   H     0.83426   0.42708   0.93922   0.00000  Uiso   1.00
H856   H     0.89073   0.42528   0.94247   0.00000  Uiso   1.00
H857   H     0.62253   0.29619   0.03522   0.00000  Uiso   1.00
H858   H     0.65409   0.26448   0.00328   0.00000  Uiso   1.00
H859   H     0.86776   0.05081   0.61457   0.00000  Uiso   1.00
H860   H     0.66067   0.26285   0.09215   0.00000  Uiso   1.00
H861   H     0.69376   0.23586   0.05789   0.00000  Uiso   1.00
H862   H     0.68284   0.33185   0.06196   0.00000  Uiso   1.00
H863   H     0.71918   0.30385   0.03133   0.00000  Uiso   1.00
H864   H     0.72516   0.30279   0.08364   0.00000  Uiso   1.00
H865   H     0.82255   0.05028   0.64412   0.00000  Uiso   1.00
H866   H     0.82295   0.07689   0.55713   0.00000  Uiso   1.00
H867   H     0.78007   0.08273   0.59099   0.00000  Uiso   1.00
H868   H     0.81688   0.14976   0.58272   0.00000  Uiso   1.00
H869   H     0.86621   0.12607   0.59565   0.00000  Uiso   1.00
H870   H     0.82472   0.13066   0.63156   0.00000  Uiso   1.00
H871   H     0.57306   0.15988   0.42436   0.00000  Uiso   1.00
H872   H     0.57200   0.33244   0.42236   0.00000  Uiso   1.00
H873   H     0.57824   0.20893   0.39876   0.00000  Uiso   1.00
H874   H     0.56140   0.16900   0.33610   0.00000  Uiso   1.00
H875   H     0.61210   0.16056   0.35778   0.00000  Uiso   1.00
H876   H     0.58798   0.09371   0.38588   0.00000  Uiso   1.00
H877   H     0.57886   0.09417   0.33436   0.00000  Uiso   1.00
H878   H     0.53529   0.10206   0.36726   0.00000  Uiso   1.00
H879   H     0.56384   0.35467   0.58932   0.00000  Uiso   1.00
H880   H     0.57110   0.30185   0.60533   0.00000  Uiso   1.00
H881   H     0.53591   0.32793   0.67127   0.00000  Uiso   1.00
H882   H     0.59058   0.33768   0.66078   0.00000  Uiso   1.00
H883   H     0.57569   0.29344   0.38559   0.00000  Uiso   1.00
H884   H     0.57505   0.40950   0.64123   0.00000  Uiso   1.00
H885   H     0.55323   0.39978   0.68855   0.00000  Uiso   1.00
H886   H     0.51908   0.40073   0.64702   0.00000  Uiso   1.00
H887   H     0.84953   0.41380   0.37371   0.00000  Uiso   1.00
H888   H     0.81729   0.44161   0.34338   0.00000  Uiso   1.00
H889   H     0.79620   0.37463   0.40553   0.00000  Uiso   1.00
H890   H     0.75471   0.41003   0.39324   0.00000  Uiso   1.00
H891   H     0.75590   0.38530   0.32674   0.00000  Uiso   1.00
H892   H     0.75739   0.34038   0.35773   0.00000  Uiso   1.00
H893   H     0.80509   0.35764   0.33416   0.00000  Uiso   1.00
H894   H     0.60345   0.34718   0.33866   0.00000  Uiso   1.00
H895   H     0.63295   0.45061   0.62339   0.00000  Uiso   1.00
H896   H     0.67707   0.45779   0.65188   0.00000  Uiso   1.00
H897   H     0.67923   0.41691   0.56949   0.00000  Uiso   1.00
H898   H     0.72143   0.41733   0.60402   0.00000  Uiso   1.00
H899   H     0.67537   0.37603   0.65068   0.00000  Uiso   1.00
H900   H     0.68727   0.34914   0.60582   0.00000  Uiso   1.00
H901   H     0.63644   0.37266   0.61250   0.00000  Uiso   1.00
H902   H     0.83552   0.09849   0.88980   0.00000  Uiso   1.00
H903   H     0.82239   0.06178   0.85439   0.00000  Uiso   1.00
H904   H     0.84703   0.03909   0.93929   0.00000  Uiso   1.00
H905   H     0.63564   0.34159   0.38136   0.00000  Uiso   1.00
H906   H     0.83913   0.00246   0.90020   0.00000  Uiso   1.00
H907   H     0.89853   0.03515   0.86334   0.00000  Uiso   1.00
H908   H     0.91453   0.01593   0.91033   0.00000  Uiso   1.00
H909   H     0.90695   0.07144   0.90305   0.00000  Uiso   1.00
H910   H     0.67661   0.40163   0.07488   0.00000  Uiso   1.00
H911   H     0.66694   0.45499   0.08845   0.00000  Uiso   1.00
H912   H     0.66380   0.43719   0.15697   0.00000  Uiso   1.00
H913   H     0.62727   0.40658   0.13023   0.00000  Uiso   1.00
H914   H     0.65852   0.35927   0.17562   0.00000  Uiso   1.00
H915   H     0.71078   0.37805   0.16566   0.00000  Uiso   1.00
H916   H     0.60117   0.38613   0.37687   0.00000  Uiso   1.00
H917   H     0.68267   0.34693   0.13001   0.00000  Uiso   1.00
H918   H     0.93421   0.36457   0.89959   0.00000  Uiso   1.00
H919   H     0.96387   0.34540   0.86079   0.00000  Uiso   1.00
H920   H     0.99472   0.35007   0.94624   0.00000  Uiso   1.00
H921   H     0.52595   0.33382   0.90506   0.00000  Uiso   1.00
H922   H     0.51646   0.40428   0.87474   0.00000  Uiso   1.00
H923   H     0.54036   0.40749   0.92209   0.00000  Uiso   1.00
H924   H     0.98561   0.42071   0.91638   0.00000  Uiso   1.00
H925   H     0.60879   0.31918   0.10473   0.00000  Uiso   1.00
H926   H     0.56375   0.31653   0.13460   0.00000  Uiso   1.00
H927   H     0.93771   0.14587   0.58501   0.00000  Uiso   1.00
H928   H     0.55939   0.32750   0.04481   0.00000  Uiso   1.00
H929   H     0.51704   0.33328   0.07915   0.00000  Uiso   1.00
H930   H     0.55590   0.39385   0.10943   0.00000  Uiso   1.00
H931   H     0.54225   0.40196   0.05920   0.00000  Uiso   1.00
H932   H     0.59551   0.38878   0.07138   0.00000  Uiso   1.00
H933   H     0.77849   0.37922   0.89802   0.00000  Uiso   1.00
H934   H     0.79758   0.42834   0.87983   0.00000  Uiso   1.00
H935   H     0.75159   0.42112   0.82105   0.00000  Uiso   1.00
H936   H     0.79013   0.38051   0.82600   0.00000  Uiso   1.00
H937   H     0.72119   0.35190   0.80536   0.00000  Uiso   1.00
H938   H     0.92950   0.19393   0.61137   0.00000  Uiso   1.00
H939   H     0.69631   0.37271   0.84825   0.00000  Uiso   1.00
H940   H     0.73569   0.33175   0.85233   0.00000  Uiso   1.00
H941   H     0.81924   0.08986   0.07602   0.00000  Uiso   1.00
H942   H     0.82271   0.05743   0.11901   0.00000  Uiso   1.00
H943   H     0.79438   0.11831   0.15878   0.00000  Uiso   1.00
H944   H     0.84538   0.12648   0.13783   0.00000  Uiso   1.00
H945   H     0.81269   0.16726   0.08289   0.00000  Uiso   1.00
H946   H     0.80188   0.19001   0.12980   0.00000  Uiso   1.00
H947   H     0.76159   0.16035   0.10541   0.00000  Uiso   1.00
H948   H     0.54157   0.14712   0.86773   0.00000  Uiso   1.00
O949   O     0.75000   0.00000   0.25000   0.00000  Uiso   1.00
O950   O     0.75000   0.46539   0.66251   0.00000  Uiso   1.00
O951   O     0.96538   0.25000   0.33749   0.00000  Uiso   1.00
O952   O     0.53461   0.25000   0.66251   0.00000  Uiso   1.00
O953   O     0.50000   0.21538   0.83749   0.00000  Uiso   1.00
O954   O     0.50000   0.28461   0.16251   0.00000  Uiso   1.00
O955   O     0.78461   0.00000   0.83749   0.00000  Uiso   1.00
O956   O     0.71538   0.00000   0.16251   0.00000  Uiso   1.00
O957   O     0.50000   0.28461   0.83749   0.00000  Uiso   1.00
O958   O     0.50000   0.21538   0.16251   0.00000  Uiso   1.00
O959   O     0.71538   0.00000   0.83749   0.00000  Uiso   1.00
O960   O     0.75000   0.00000   0.75000   0.00000  Uiso   1.00
O961   O     0.78461   0.00000   0.16251   0.00000  Uiso   1.00
O962   O     0.70126   0.08332   0.27298   0.00000  Uiso   1.00
O963   O     0.79873   0.41668   0.72702   0.00000  Uiso   1.00
O964   O     0.91668   0.20127   0.27298   0.00000  Uiso   1.00
O965   O     0.58332   0.29873   0.72702   0.00000  Uiso   1.00
O966   O     0.79873   0.41668   0.27298   0.00000  Uiso   1.00
O967   O     0.70126   0.08332   0.72702   0.00000  Uiso   1.00
O968   O     0.58332   0.29873   0.27298   0.00000  Uiso   1.00
O969   O     0.91668   0.20127   0.72702   0.00000  Uiso   1.00
O970   O     0.70126   0.41668   0.72702   0.00000  Uiso   1.00
O971   O     0.50000   0.25000   0.25000   0.00000  Uiso   1.00
O972   O     0.79873   0.08332   0.27298   0.00000  Uiso   1.00
O973   O     0.91668   0.29874   0.72702   0.00000  Uiso   1.00
O974   O     0.58332   0.20127   0.27298   0.00000  Uiso   1.00
O975   O     0.79873   0.08332   0.72702   0.00000  Uiso   1.00
O976   O     0.70126   0.41668   0.27298   0.00000  Uiso   1.00
O977   O     0.58332   0.20127   0.72702   0.00000  Uiso   1.00
O978   O     0.91668   0.29874   0.27298   0.00000  Uiso   1.00
O979   O     0.95126   0.33332   0.77298   0.00000  Uiso   1.00
O980   O     0.54873   0.16668   0.22702   0.00000  Uiso   1.00
O981   O     0.66668   0.45127   0.77298   0.00000  Uiso   1.00
O982   O     0.50000   0.25000   0.75000   0.00000  Uiso   1.00
O983   O     0.83332   0.04874   0.22702   0.00000  Uiso   1.00
O984   O     0.54873   0.16668   0.77298   0.00000  Uiso   1.00
O985   O     0.95126   0.33332   0.22702   0.00000  Uiso   1.00
O986   O     0.83332   0.04874   0.77298   0.00000  Uiso   1.00
O987   O     0.66668   0.45127   0.22702   0.00000  Uiso   1.00
O988   O     0.95126   0.16668   0.22702   0.00000  Uiso   1.00
O989   O     0.54873   0.33332   0.77298   0.00000  Uiso   1.00
O990   O     0.66668   0.04874   0.22702   0.00000  Uiso   1.00
O991   O     0.83332   0.45127   0.77298   0.00000  Uiso   1.00
O992   O     0.54873   0.33332   0.22702   0.00000  Uiso   1.00
O993   O     0.75000   0.46539   0.33749   0.00000  Uiso   1.00
O994   O     0.95126   0.16668   0.77298   0.00000  Uiso   1.00
O995   O     0.83332   0.45127   0.22702   0.00000  Uiso   1.00
O996   O     0.66668   0.04874   0.77298   0.00000  Uiso   1.00
O997   O     0.99049   0.32917   0.39894   0.00000  Uiso   1.00
O998   O     0.99262   0.17458   0.60310   0.00000  Uiso   1.00
O999   O     0.68730   0.03766   0.40085   0.00000  Uiso   1.00
O1000  O     0.82566   0.00458   0.60105   0.00000  Uiso   1.00
O1001  O     0.51811   0.18021   0.39796   0.00000  Uiso   1.00
O1002  O     0.50820   0.32449   0.60269   0.00000  Uiso   1.00
O1003  O     0.82282   0.46530   0.39933   0.00000  Uiso   1.00
O1004  O     0.75000   0.03462   0.66251   0.00000  Uiso   1.00
O1005  O     0.67319   0.49518   0.60214   0.00000  Uiso   1.00
O1006  O     0.77800   0.07047   0.89815   0.00000  Uiso   1.00
O1007  O     0.72660   0.42950   0.10336   0.00000  Uiso   1.00
O1008  O     0.94127   0.30037   0.89931   0.00000  Uiso   1.00
O1009  O     0.57451   0.26492   0.09882   0.00000  Uiso   1.00
O1010  O     0.73320   0.42568   0.89737   0.00000  Uiso   1.00
O1011  O     0.76219   0.07496   0.10266   0.00000  Uiso   1.00
O1012  O     0.55522   0.19888   0.90106   0.00000  Uiso   1.00
O1013  O     0.92377   0.24263   0.10051   0.00000  Uiso   1.00
O1014  O     0.99593   0.13705   0.45944   0.00000  Uiso   1.00
O1015  O     0.53461   0.25000   0.33749   0.00000  Uiso   1.00
O1016  O     0.96585   0.35907   0.54503   0.00000  Uiso   1.00
O1017  O     0.85579   0.44811   0.46647   0.00000  Uiso   1.00
O1018  O     0.63611   0.01410   0.53850   0.00000  Uiso   1.00
O1019  O     0.96968   0.36529   0.46629   0.00000  Uiso   1.00
O1020  O     0.50721   0.13556   0.53733   0.00000  Uiso   1.00
O1021  O     0.63964   0.49503   0.45538   0.00000  Uiso   1.00
O1022  O     0.86266   0.47687   0.54080   0.00000  Uiso   1.00
O1023  O     0.73485   0.38490   0.96318   0.00000  Uiso   1.00
O1024  O     0.74223   0.11446   0.03628   0.00000  Uiso   1.00
O1025  O     0.60925   0.22929   0.95550   0.00000  Uiso   1.00
O1026  O     0.96538   0.25000   0.66251   0.00000  Uiso   1.00
O1027  O     0.88911   0.28143   0.04091   0.00000  Uiso   1.00
O1028  O     0.76454   0.11330   0.95985   0.00000  Uiso   1.00
O1029  O     0.75332   0.38678   0.04174   0.00000  Uiso   1.00
O1030  O     0.89494   0.29959   0.96195   0.00000  Uiso   1.00
O1031  O     0.61246   0.23125   0.03880   0.00000  Uiso   1.00
O1032  O     0.75000   0.03462   0.33749   0.00000  Uiso   1.00
Zn1033 Zn    0.70052   0.00000   0.21730   0.00000  Uiso   1.00
Zn1034 Zn    0.54947   0.25000   0.28270   0.00000  Uiso   1.00
Zn1035 Zn    0.75000   0.45053   0.71730   0.00000  Uiso   1.00
Zn1036 Zn    0.75000   0.04948   0.28270   0.00000  Uiso   1.00
Zn1037 Zn    0.54947   0.25000   0.71730   0.00000  Uiso   1.00
Zn1038 Zn    0.95052   0.25000   0.28270   0.00000  Uiso   1.00
Zn1039 Zn    0.75000   0.04948   0.71730   0.00000  Uiso   1.00
Zn1040 Zn    0.75000   0.45053   0.28270   0.00000  Uiso   1.00
Zn1041 Zn    0.79947   0.00000   0.78270   0.00000  Uiso   1.00
Zn1042 Zn    0.50000   0.20052   0.21730   0.00000  Uiso   1.00
Zn1043 Zn    0.50000   0.29947   0.78270   0.00000  Uiso   1.00
Zn1044 Zn    0.79947   0.00000   0.21730   0.00000  Uiso   1.00
Zn1045 Zn    0.70052   0.00000   0.78270   0.00000  Uiso   1.00
Zn1046 Zn    0.50000   0.29948   0.21730   0.00000  Uiso   1.00
Zn1047 Zn    0.50000   0.20052   0.78270   0.00000  Uiso   1.00
Zn1048 Zn    0.95052   0.25000   0.71730   0.00000  Uiso   1.00
C1049  C     0.25165   0.99970   0.35591   0.00000  Uiso   1.00
C1050  C     0.33002   0.91997   0.75001   0.00000  Uiso   1.00
C1051  C     0.42526   0.77078   0.02069   0.00000  Uiso   1.00
C1052  C     0.26096   0.57557   0.97954   0.00000  Uiso   1.00
C1053  C     0.24569   0.92379   0.02177   0.00000  Uiso   1.00
C1054  C     0.42847   0.78087   0.98078   0.00000  Uiso   1.00
C1055  C     0.07514   0.73686   0.01896   0.00000  Uiso   1.00
C1056  C     0.02571   0.83961   0.37484   0.00000  Uiso   1.00
C1057  C     0.06971   0.82723   0.39061   0.00000  Uiso   1.00
C1058  C     0.10459   0.85215   0.37054   0.00000  Uiso   1.00
C1059  C     0.44961   0.66532   0.60938   0.00000  Uiso   1.00
C1060  C     0.44465   0.64164   0.64781   0.00000  Uiso   1.00
C1061  C     0.41992   0.67003   0.24999   0.00000  Uiso   1.00
C1062  C     0.46176   0.59707   0.64550   0.00000  Uiso   1.00
C1063  C     0.20301   0.57919   0.39559   0.00000  Uiso   1.00
C1064  C     0.18665   0.60906   0.42699   0.00000  Uiso   1.00
C1065  C     0.20811   0.65182   0.42447   0.00000  Uiso   1.00
C1066  C     0.33317   0.54654   0.61366   0.00000  Uiso   1.00
C1067  C     0.31486   0.58208   0.58812   0.00000  Uiso   1.00
C1068  C     0.33177   0.62479   0.60041   0.00000  Uiso   1.00
C1069  C     0.06258   0.67752   0.39829   0.00000  Uiso   1.00
C1070  C     0.07775   0.65536   0.36146   0.00000  Uiso   1.00
C1071  C     0.06926   0.60836   0.36246   0.00000  Uiso   1.00
C1072  C     0.08013   0.82992   0.75007   0.00000  Uiso   1.00
C1073  C     0.05160   0.83060   0.60974   0.00000  Uiso   1.00
C1074  C     0.05791   0.84499   0.65180   0.00000  Uiso   1.00
C1075  C     0.05071   0.89174   0.65729   0.00000  Uiso   1.00
C1076  C     0.31882   0.93023   0.37365   0.00000  Uiso   1.00
C1077  C     0.28476   0.89632   0.38300   0.00000  Uiso   1.00
C1078  C     0.27546   0.86839   0.34809   0.00000  Uiso   1.00
C1079  C     0.16723   0.95576   0.62118   0.00000  Uiso   1.00
C1080  C     0.18672   0.91687   0.60096   0.00000  Uiso   1.00
C1081  C     0.17038   0.87619   0.61877   0.00000  Uiso   1.00
C1082  C     0.32100   0.56718   0.88612   0.00000  Uiso   1.00
C1083  C     0.33006   0.91997   0.24998   0.00000  Uiso   1.00
C1084  C     0.34925   0.53489   0.90736   0.00000  Uiso   1.00
C1085  C     0.39516   0.53976   0.89517   0.00000  Uiso   1.00
C1086  C     0.18263   0.92529   0.09775   0.00000  Uiso   1.00
C1087  C     0.16119   0.91157   0.13554   0.00000  Uiso   1.00
C1088  C     0.17965   0.87148   0.15256   0.00000  Uiso   1.00
C1089  C     0.45869   0.84124   0.89240   0.00000  Uiso   1.00
C1090  C     0.49928   0.85388   0.91444   0.00000  Uiso   1.00
C1091  C     0.01105   0.89947   0.90632   0.00000  Uiso   1.00
C1092  C     0.07530   0.80935   0.10496   0.00000  Uiso   1.00
C1093  C     0.05149   0.83695   0.07494   0.00000  Uiso   1.00
C1094  C     0.16994   0.58003   0.75003   0.00000  Uiso   1.00
C1095  C     0.06209   0.88328   0.07923   0.00000  Uiso   1.00
C1096  C     0.26961   0.90720   0.88068   0.00000  Uiso   1.00
C1097  C     0.26081   0.89357   0.83877   0.00000  Uiso   1.00
C1098  C     0.22629   0.86042   0.83625   0.00000  Uiso   1.00
C1099  C     0.30549   0.58394   0.10531   0.00000  Uiso   1.00
C1100  C     0.31155   0.62271   0.13088   0.00000  Uiso   1.00
C1101  C     0.29589   0.66248   0.11089   0.00000  Uiso   1.00
C1102  C     0.03228   0.66086   0.89613   0.00000  Uiso   1.00
C1103  C     0.04259   0.62900   0.92799   0.00000  Uiso   1.00
C1104  C     0.01321   0.59114   0.92634   0.00000  Uiso   1.00
C1105  C     0.07996   0.83007   0.25006   0.00000  Uiso   1.00
C1106  C     0.41826   0.69917   0.10935   0.00000  Uiso   1.00
C1107  C     0.43685   0.66747   0.07969   0.00000  Uiso   1.00
C1108  C     0.42172   0.62290   0.08752   0.00000  Uiso   1.00
C1109  C     0.45569   0.63217   0.44225   0.00000  Uiso   1.00
C1110  C     0.42883   0.60177   0.46611   0.00000  Uiso   1.00
C1111  C     0.38545   0.59570   0.44816   0.00000  Uiso   1.00
C1112  C     0.42831   0.84879   0.56537   0.00000  Uiso   1.00
C1113  C     0.40866   0.88861   0.58210   0.00000  Uiso   1.00
C1114  C     0.43531   0.90737   0.61443   0.00000  Uiso   1.00
C1115  C     0.34223   0.90586   0.46305   0.00000  Uiso   1.00
C1116  C     0.42000   0.66998   0.75001   0.00000  Uiso   1.00
C1117  C     0.35499   0.87941   0.49763   0.00000  Uiso   1.00
C1118  C     0.33904   0.83435   0.49284   0.00000  Uiso   1.00
C1119  C     0.10726   0.98041   0.54000   0.00000  Uiso   1.00
C1120  C     0.06464   0.99727   0.55452   0.00000  Uiso   1.00
C1121  C     0.04608   0.97110   0.58748   0.00000  Uiso   1.00
C1122  C     0.00353   0.89342   0.45886   0.00000  Uiso   1.00
C1123  C     0.02637   0.91086   0.49463   0.00000  Uiso   1.00
C1124  C     0.06531   0.88493   0.50508   0.00000  Uiso   1.00
C1125  C     0.04935   0.63218   0.55024   0.00000  Uiso   1.00
C1126  C     0.07850   0.61871   0.51723   0.00000  Uiso   1.00
C1127  C     0.16995   0.92000   0.75002   0.00000  Uiso   1.00
C1128  C     0.12336   0.61279   0.53168   0.00000  Uiso   1.00
C1129  C     0.10881   0.52665   0.45461   0.00000  Uiso   1.00
C1130  C     0.07342   0.51267   0.42752   0.00000  Uiso   1.00
C1131  C     0.03283   0.53674   0.43530   0.00000  Uiso   1.00
C1132  C     0.39222   0.50778   0.52940   0.00000  Uiso   1.00
C1133  C     0.43034   0.50582   0.55629   0.00000  Uiso   1.00
C1134  C     0.45961   0.54324   0.55009   0.00000  Uiso   1.00
C1135  C     0.19138   0.87562   0.96443   0.00000  Uiso   1.00
C1136  C     0.18311   0.83509   0.94211   0.00000  Uiso   1.00
C1137  C     0.13612   0.82763   0.93639   0.00000  Uiso   1.00
C1138  C     0.33002   0.58003   0.24991   0.00000  Uiso   1.00
C1139  C     0.19939   0.61465   0.04857   0.00000  Uiso   1.00
C1140  C     0.16785   0.60238   0.01661   0.00000  Uiso   1.00
C1141  C     0.12258   0.60948   0.02992   0.00000  Uiso   1.00
C1142  C     0.13315   0.69257   0.96111   0.00000  Uiso   1.00
C1143  C     0.16973   0.69219   0.93205   0.00000  Uiso   1.00
C1144  C     0.15470   0.68970   0.89008   0.00000  Uiso   1.00
C1145  C     0.35880   0.74892   0.03866   0.00000  Uiso   1.00
C1146  C     0.32359   0.76037   0.01029   0.00000  Uiso   1.00
C1147  C     0.28276   0.73762   0.02051   0.00000  Uiso   1.00
C1148  C     0.30524   0.62984   0.96611   0.00000  Uiso   1.00
C1149  C     0.41999   0.83003   0.74999   0.00000  Uiso   1.00
C1150  C     0.31227   0.66739   0.93912   0.00000  Uiso   1.00
C1151  C     0.35857   0.68019   0.93767   0.00000  Uiso   1.00
C1152  C     0.29749   0.88247   0.04538   0.00000  Uiso   1.00
C1153  C     0.30914   0.84946   0.07577   0.00000  Uiso   1.00
C1154  C     0.29721   0.86247   0.11689   0.00000  Uiso   1.00
C1155  C     0.39295   0.84245   0.97250   0.00000  Uiso   1.00
C1156  C     0.35976   0.86458   0.94783   0.00000  Uiso   1.00
C1157  C     0.36099   0.91201   0.95425   0.00000  Uiso   1.00
C1158  C     0.13941   0.76587   0.03249   0.00000  Uiso   1.00
C1159  C     0.17444   0.76444   0.06249   0.00000  Uiso   1.00
C1160  C     0.24996   0.50006   0.64413   0.00000  Uiso   1.00
C1161  C     0.08001   0.66997   0.25002   0.00000  Uiso   1.00
C1162  C     0.20221   0.80318   0.05954   0.00000  Uiso   1.00
C1163  C     0.33003   0.57999   0.74996   0.00000  Uiso   1.00
C1164  C     0.16991   0.92006   0.25013   0.00000  Uiso   1.00
C1165  C     0.08007   0.66998   0.74998   0.00000  Uiso   1.00
C1166  C     0.41993   0.83003   0.25003   0.00000  Uiso   1.00
C1167  C     0.13815   0.88851   0.25033   0.00000  Uiso   1.00
C1168  C     0.36172   0.61163   0.74991   0.00000  Uiso   1.00
C1169  C     0.11163   0.63828   0.25009   0.00000  Uiso   1.00
C1170  C     0.38832   0.86168   0.75001   0.00000  Uiso   1.00
C1171  C     0.36165   0.61170   0.24985   0.00000  Uiso   1.00
C1172  C     0.49992   0.75116   0.35599   0.00000  Uiso   1.00
C1173  C     0.13833   0.88833   0.75006   0.00000  Uiso   1.00
C1174  C     0.38828   0.86166   0.25006   0.00000  Uiso   1.00
C1175  C     0.11171   0.63835   0.74998   0.00000  Uiso   1.00
C1176  C     0.13829   0.61167   0.75005   0.00000  Uiso   1.00
C1177  C     0.36169   0.88834   0.24999   0.00000  Uiso   1.00
C1178  C     0.11178   0.86158   0.75002   0.00000  Uiso   1.00
C1179  C     0.38824   0.63841   0.24995   0.00000  Uiso   1.00
C1180  C     0.36167   0.88832   0.75001   0.00000  Uiso   1.00
C1181  C     0.13827   0.61164   0.25010   0.00000  Uiso   1.00
C1182  C     0.38838   0.63827   0.74995   0.00000  Uiso   1.00
C1183  C     0.00012   0.74941   0.64424   0.00000  Uiso   1.00
C1184  C     0.11149   0.86185   0.25024   0.00000  Uiso   1.00
C1185  C     0.49448   0.79144   0.41888   0.00000  Uiso   1.00
C1186  C     0.49617   0.71144   0.58205   0.00000  Uiso   1.00
C1187  C     0.21746   0.51319   0.41909   0.00000  Uiso   1.00
C1188  C     0.28784   0.50000   0.58150   0.00000  Uiso   1.00
C1189  C     0.00586   0.71546   0.41860   0.00000  Uiso   1.00
C1190  C     0.00196   0.78743   0.58232   0.00000  Uiso   1.00
C1191  C     0.28632   0.97844   0.41841   0.00000  Uiso   1.00
C1192  C     0.21092   0.99796   0.58180   0.00000  Uiso   1.00
C1193  C     0.26353   0.53559   0.91838   0.00000  Uiso   1.00
C1194  C     0.49948   0.75005   0.85601   0.00000  Uiso   1.00
C1195  C     0.24126   0.96361   0.08233   0.00000  Uiso   1.00
C1196  C     0.46834   0.77382   0.91897   0.00000  Uiso   1.00
C1197  C     0.03787   0.75201   0.08075   0.00000  Uiso   1.00
C1198  C     0.24376   0.96139   0.91830   0.00000  Uiso   1.00
C1199  C     0.25669   0.53826   0.08182   0.00000  Uiso   1.00
C1200  C     0.02983   0.72824   0.91929   0.00000  Uiso   1.00
C1201  C     0.46138   0.75024   0.08137   0.00000  Uiso   1.00
C1202  C     0.49997   0.75307   0.39856   0.00000  Uiso   1.00
C1203  C     0.00032   0.74931   0.60214   0.00000  Uiso   1.00
C1204  C     0.25250   0.99787   0.39834   0.00000  Uiso   1.00
C1205  C     0.00002   0.75004   0.14403   0.00000  Uiso   1.00
C1206  C     0.24948   0.50002   0.60181   0.00000  Uiso   1.00
C1207  C     0.25133   0.99926   0.89831   0.00000  Uiso   1.00
C1208  C     0.24998   0.50076   0.10203   0.00000  Uiso   1.00
C1209  C     0.49889   0.75038   0.89857   0.00000  Uiso   1.00
C1210  C     0.49975   0.75018   0.10155   0.00000  Uiso   1.00
C1211  C     0.49988   0.71390   0.45903   0.00000  Uiso   1.00
C1212  C     0.49292   0.78794   0.54242   0.00000  Uiso   1.00
C1213  C     0.28701   0.98184   0.45957   0.00000  Uiso   1.00
C1214  C     0.21073   0.99981   0.54062   0.00000  Uiso   1.00
C1215  C     0.49140   0.79105   0.46028   0.00000  Uiso   1.00
C1216  C     0.25013   0.50019   0.85593   0.00000  Uiso   1.00
C1217  C     0.49809   0.71154   0.54099   0.00000  Uiso   1.00
C1218  C     0.21368   0.50446   0.45892   0.00000  Uiso   1.00
C1219  C     0.28792   0.99291   0.54114   0.00000  Uiso   1.00
C1220  C     0.24513   0.96083   0.95949   0.00000  Uiso   1.00
C1221  C     0.25334   0.53856   0.04092   0.00000  Uiso   1.00
C1222  C     0.03440   0.73607   0.95914   0.00000  Uiso   1.00
C1223  C     0.46158   0.75751   0.04096   0.00000  Uiso   1.00
C1224  C     0.25903   0.53708   0.95906   0.00000  Uiso   1.00
C1225  C     0.24556   0.96223   0.04165   0.00000  Uiso   1.00
C1226  C     0.46452   0.76820   0.95958   0.00000  Uiso   1.00
C1227  C     0.25002   0.50059   0.14420   0.00000  Uiso   1.00
C1228  C     0.03771   0.74501   0.04025   0.00000  Uiso   1.00
C1229  C     0.49545   0.75184   0.48003   0.00000  Uiso   1.00
C1230  C     0.49541   0.75040   0.52105   0.00000  Uiso   1.00
C1231  C     0.25016   0.99425   0.47969   0.00000  Uiso   1.00
C1232  C     0.24950   0.99538   0.52056   0.00000  Uiso   1.00
C1233  C     0.25142   0.99928   0.97968   0.00000  Uiso   1.00
C1234  C     0.25032   0.50000   0.02071   0.00000  Uiso   1.00
C1235  C     0.49921   0.75120   0.97971   0.00000  Uiso   1.00
C1236  C     0.49944   0.75083   0.02032   0.00000  Uiso   1.00
C1237  C     0.49839   0.67501   0.47898   0.00000  Uiso   1.00
C1238  C     0.16995   0.58000   0.25004   0.00000  Uiso   1.00
C1239  C     0.48019   0.82488   0.52376   0.00000  Uiso   1.00
C1240  C     0.32319   0.97174   0.48163   0.00000  Uiso   1.00
C1241  C     0.17272   0.50330   0.51910   0.00000  Uiso   1.00
C1242  C     0.48301   0.82798   0.48293   0.00000  Uiso   1.00
C1243  C     0.00142   0.67403   0.51946   0.00000  Uiso   1.00
C1244  C     0.17433   0.50574   0.47780   0.00000  Uiso   1.00
C1245  C     0.32538   0.98302   0.52090   0.00000  Uiso   1.00
C1246  C     0.24101   0.92310   0.98122   0.00000  Uiso   1.00
C1247  C     0.25290   0.57631   0.01959   0.00000  Uiso   1.00
C1248  C     0.07307   0.72980   0.97825   0.00000  Uiso   1.00
H1249  H     0.02514   0.87423   0.37125   0.00000  Uiso   1.00
H1250  H     0.46153   0.65896   0.67101   0.00000  Uiso   1.00
H1251  H     0.49748   0.66529   0.89492   0.00000  Uiso   1.00
H1252  H     0.07532   0.61776   0.92399   0.00000  Uiso   1.00
H1253  H     0.03947   0.64391   0.95701   0.00000  Uiso   1.00
H1254  H     0.48021   0.60098   0.93163   0.00000  Uiso   1.00
H1255  H     0.02220   0.56819   0.94910   0.00000  Uiso   1.00
H1256  H     0.01545   0.57564   0.89753   0.00000  Uiso   1.00
H1257  H     0.38392   0.69349   0.11131   0.00000  Uiso   1.00
H1258  H     0.43064   0.69243   0.13872   0.00000  Uiso   1.00
H1259  H     0.42783   0.67615   0.04965   0.00000  Uiso   1.00
H1260  H     0.47171   0.66765   0.08158   0.00000  Uiso   1.00
H1261  H     0.41083   0.64018   0.65593   0.00000  Uiso   1.00
H1262  H     0.42708   0.61415   0.11834   0.00000  Uiso   1.00
H1263  H     0.43915   0.60070   0.06860   0.00000  Uiso   1.00
H1264  H     0.38786   0.62032   0.08061   0.00000  Uiso   1.00
H1265  H     0.46034   0.61857   0.41285   0.00000  Uiso   1.00
H1266  H     0.43813   0.66212   0.43811   0.00000  Uiso   1.00
H1267  H     0.44482   0.57093   0.46731   0.00000  Uiso   1.00
H1268  H     0.42505   0.61418   0.49605   0.00000  Uiso   1.00
H1269  H     0.36836   0.62602   0.44713   0.00000  Uiso   1.00
H1270  H     0.36685   0.57325   0.46595   0.00000  Uiso   1.00
H1271  H     0.38842   0.58292   0.41828   0.00000  Uiso   1.00
H1272  H     0.46016   0.58227   0.67467   0.00000  Uiso   1.00
H1273  H     0.43345   0.82684   0.58981   0.00000  Uiso   1.00
H1274  H     0.40558   0.83315   0.54601   0.00000  Uiso   1.00
H1275  H     0.40541   0.91225   0.55878   0.00000  Uiso   1.00
H1276  H     0.37690   0.88116   0.59378   0.00000  Uiso   1.00
H1277  H     0.44004   0.88414   0.63807   0.00000  Uiso   1.00
H1278  H     0.41922   0.93527   0.62668   0.00000  Uiso   1.00
H1279  H     0.46621   0.91736   0.60256   0.00000  Uiso   1.00
H1280  H     0.35780   0.89224   0.43713   0.00000  Uiso   1.00
H1281  H     0.30755   0.90267   0.46002   0.00000  Uiso   1.00
H1282  H     0.38975   0.87967   0.49912   0.00000  Uiso   1.00
H1283  H     0.49499   0.59719   0.63550   0.00000  Uiso   1.00
H1284  H     0.34132   0.89285   0.52459   0.00000  Uiso   1.00
H1285  H     0.30478   0.83403   0.48675   0.00000  Uiso   1.00
H1286  H     0.34398   0.81612   0.51984   0.00000  Uiso   1.00
H1287  H     0.35595   0.81868   0.46859   0.00000  Uiso   1.00
H1288  H     0.11892   0.95540   0.55919   0.00000  Uiso   1.00
H1289  H     0.10276   0.96559   0.51125   0.00000  Uiso   1.00
H1290  H     0.06804   0.53001   0.56515   0.00000  Uiso   1.00
H1291  H     0.04199   0.99824   0.53014   0.00000  Uiso   1.00
H1292  H     0.04514   0.93742   0.57962   0.00000  Uiso   1.00
H1293  H     0.01358   0.98134   0.59398   0.00000  Uiso   1.00
H1294  H     0.44241   0.57816   0.62530   0.00000  Uiso   1.00
H1295  H     0.06496   0.97572   0.61411   0.00000  Uiso   1.00
H1296  H     0.49001   0.92053   0.44295   0.00000  Uiso   1.00
H1297  H     0.02693   0.88017   0.43911   0.00000  Uiso   1.00
H1298  H     0.03748   0.94280   0.48711   0.00000  Uiso   1.00
H1299  H     0.00498   0.91492   0.51966   0.00000  Uiso   1.00
H1300  H     0.05792   0.85131   0.50914   0.00000  Uiso   1.00
H1301  H     0.07926   0.89652   0.53240   0.00000  Uiso   1.00
H1302  H     0.08931   0.88779   0.48170   0.00000  Uiso   1.00
H1303  H     0.05002   0.60781   0.57331   0.00000  Uiso   1.00
H1304  H     0.06164   0.66150   0.56368   0.00000  Uiso   1.00
H1305  H     0.19191   0.59072   0.36695   0.00000  Uiso   1.00
H1306  H     0.06620   0.58914   0.50498   0.00000  Uiso   1.00
H1307  H     0.07886   0.64279   0.49394   0.00000  Uiso   1.00
H1308  H     0.13703   0.64351   0.54015   0.00000  Uiso   1.00
H1309  H     0.14293   0.59910   0.50824   0.00000  Uiso   1.00
H1310  H     0.12395   0.59150   0.55719   0.00000  Uiso   1.00
H1311  H     0.12183   0.55658   0.44401   0.00000  Uiso   1.00
H1312  H     0.09533   0.53192   0.48353   0.00000  Uiso   1.00
H1313  H     0.08341   0.51738   0.39687   0.00000  Uiso   1.00
H1314  H     0.06703   0.97867   0.43164   0.00000  Uiso   1.00
H1315  H     0.01980   0.52790   0.46412   0.00000  Uiso   1.00
H1316  H     0.23806   0.58119   0.39485   0.00000  Uiso   1.00
H1317  H     0.00924   0.52898   0.41274   0.00000  Uiso   1.00
H1318  H     0.03875   0.57101   0.43490   0.00000  Uiso   1.00
H1319  H     0.37831   0.53970   0.53138   0.00000  Uiso   1.00
H1320  H     0.40317   0.50238   0.49910   0.00000  Uiso   1.00
H1321  H     0.41963   0.50557   0.58702   0.00000  Uiso   1.00
H1322  H     0.44802   0.97641   0.55074   0.00000  Uiso   1.00
H1323  H     0.44194   0.57309   0.55240   0.00000  Uiso   1.00
H1324  H     0.47506   0.54117   0.52128   0.00000  Uiso   1.00
H1325  H     0.48439   0.54359   0.57259   0.00000  Uiso   1.00
H1326  H     0.17292   0.90139   0.95074   0.00000  Uiso   1.00
H1327  H     0.15242   0.61402   0.42319   0.00000  Uiso   1.00
H1328  H     0.18045   0.87128   0.99497   0.00000  Uiso   1.00
H1329  H     0.19844   0.83698   0.91321   0.00000  Uiso   1.00
H1330  H     0.19699   0.80819   0.95804   0.00000  Uiso   1.00
H1331  H     0.11990   0.82458   0.96487   0.00000  Uiso   1.00
H1332  H     0.13133   0.79840   0.91950   0.00000  Uiso   1.00
H1333  H     0.12195   0.85399   0.91993   0.00000  Uiso   1.00
H1334  H     0.19214   0.64709   0.05821   0.00000  Uiso   1.00
H1335  H     0.19433   0.59424   0.07428   0.00000  Uiso   1.00
H1336  H     0.17433   0.62089   0.99009   0.00000  Uiso   1.00
H1337  H     0.17126   0.56864   0.00921   0.00000  Uiso   1.00
H1338  H     0.19263   0.59543   0.45611   0.00000  Uiso   1.00
H1339  H     0.11528   0.58933   0.05540   0.00000  Uiso   1.00
H1340  H     0.10071   0.60129   0.00603   0.00000  Uiso   1.00
H1341  H     0.11756   0.64279   0.03799   0.00000  Uiso   1.00
H1342  H     0.11387   0.66402   0.95738   0.00000  Uiso   1.00
H1343  H     0.14728   0.69168   0.99037   0.00000  Uiso   1.00
H1344  H     0.18895   0.72106   0.93586   0.00000  Uiso   1.00
H1345  H     0.19029   0.66484   0.93793   0.00000  Uiso   1.00
H1346  H     0.13511   0.66123   0.88572   0.00000  Uiso   1.00
H1347  H     0.18229   0.68800   0.87031   0.00000  Uiso   1.00
H1348  H     0.13623   0.71803   0.88246   0.00000  Uiso   1.00
H1349  H     0.24245   0.64864   0.42934   0.00000  Uiso   1.00
H1350  H     0.34510   0.74545   0.06822   0.00000  Uiso   1.00
H1351  H     0.37195   0.71768   0.03090   0.00000  Uiso   1.00
H1352  H     0.31784   0.79461   0.01057   0.00000  Uiso   1.00
H1353  H     0.33308   0.75193   0.98034   0.00000  Uiso   1.00
H1354  H     0.28756   0.70327   0.02059   0.00000  Uiso   1.00
H1355  H     0.25816   0.74548   0.99892   0.00000  Uiso   1.00
H1356  H     0.27180   0.74705   0.04983   0.00000  Uiso   1.00
H1357  H     0.32987   0.60599   0.96011   0.00000  Uiso   1.00
H1358  H     0.30896   0.64016   0.99672   0.00000  Uiso   1.00
H1359  H     0.30177   0.65958   0.90926   0.00000  Uiso   1.00
H1360  H     0.02118   0.82767   0.34495   0.00000  Uiso   1.00
H1361  H     0.19495   0.67287   0.44711   0.00000  Uiso   1.00
H1362  H     0.29291   0.69419   0.94914   0.00000  Uiso   1.00
H1363  H     0.37067   0.68601   0.96736   0.00000  Uiso   1.00
H1364  H     0.36223   0.70929   0.92022   0.00000  Uiso   1.00
H1365  H     0.37764   0.65505   0.92399   0.00000  Uiso   1.00
H1366  H     0.31348   0.91240   0.05352   0.00000  Uiso   1.00
H1367  H     0.31047   0.87198   0.01719   0.00000  Uiso   1.00
H1368  H     0.29379   0.81922   0.06899   0.00000  Uiso   1.00
H1369  H     0.34368   0.84458   0.07464   0.00000  Uiso   1.00
H1370  H     0.30898   0.89450   0.12346   0.00000  Uiso   1.00
H1371  H     0.31109   0.84013   0.13799   0.00000  Uiso   1.00
H1372  H     0.20262   0.66619   0.39553   0.00000  Uiso   1.00
H1373  H     0.26268   0.86135   0.12025   0.00000  Uiso   1.00
H1374  H     0.42383   0.85821   0.96803   0.00000  Uiso   1.00
H1375  H     0.38392   0.84614   0.00350   0.00000  Uiso   1.00
H1376  H     0.36500   0.85790   0.91655   0.00000  Uiso   1.00
H1377  H     0.32810   0.85223   0.95536   0.00000  Uiso   1.00
H1378  H     0.35872   0.91962   0.98564   0.00000  Uiso   1.00
H1379  H     0.33426   0.92708   0.93922   0.00000  Uiso   1.00
H1380  H     0.39073   0.92528   0.94247   0.00000  Uiso   1.00
H1381  H     0.12253   0.79619   0.03522   0.00000  Uiso   1.00
H1382  H     0.15409   0.76448   0.00328   0.00000  Uiso   1.00
H1383  H     0.36776   0.55081   0.61457   0.00000  Uiso   1.00
H1384  H     0.16067   0.76285   0.09215   0.00000  Uiso   1.00
H1385  H     0.19376   0.73586   0.05789   0.00000  Uiso   1.00
H1386  H     0.18284   0.83185   0.06196   0.00000  Uiso   1.00
H1387  H     0.21918   0.80385   0.03133   0.00000  Uiso   1.00
H1388  H     0.22516   0.80279   0.08364   0.00000  Uiso   1.00
H1389  H     0.32255   0.55028   0.64412   0.00000  Uiso   1.00
H1390  H     0.32295   0.57689   0.55713   0.00000  Uiso   1.00
H1391  H     0.28007   0.58273   0.59099   0.00000  Uiso   1.00
H1392  H     0.31688   0.64976   0.58272   0.00000  Uiso   1.00
H1393  H     0.36621   0.62607   0.59565   0.00000  Uiso   1.00
H1394  H     0.32472   0.63066   0.63156   0.00000  Uiso   1.00
H1395  H     0.07306   0.65988   0.42436   0.00000  Uiso   1.00
H1396  H     0.07200   0.83244   0.42236   0.00000  Uiso   1.00
H1397  H     0.07824   0.70893   0.39876   0.00000  Uiso   1.00
H1398  H     0.06140   0.66900   0.33610   0.00000  Uiso   1.00
H1399  H     0.11210   0.66056   0.35778   0.00000  Uiso   1.00
H1400  H     0.08798   0.59371   0.38588   0.00000  Uiso   1.00
H1401  H     0.07886   0.59417   0.33436   0.00000  Uiso   1.00
H1402  H     0.03529   0.60206   0.36726   0.00000  Uiso   1.00
H1403  H     0.06384   0.85467   0.58932   0.00000  Uiso   1.00
H1404  H     0.07110   0.80185   0.60533   0.00000  Uiso   1.00
H1405  H     0.03591   0.82793   0.67127   0.00000  Uiso   1.00
H1406  H     0.09058   0.83768   0.66078   0.00000  Uiso   1.00
H1407  H     0.07569   0.79344   0.38559   0.00000  Uiso   1.00
H1408  H     0.07505   0.90950   0.64123   0.00000  Uiso   1.00
H1409  H     0.05323   0.89978   0.68855   0.00000  Uiso   1.00
H1410  H     0.01908   0.90073   0.64702   0.00000  Uiso   1.00
H1411  H     0.34953   0.91380   0.37371   0.00000  Uiso   1.00
H1412  H     0.31729   0.94161   0.34338   0.00000  Uiso   1.00
H1413  H     0.29620   0.87463   0.40553   0.00000  Uiso   1.00
H1414  H     0.25471   0.91003   0.39324   0.00000  Uiso   1.00
H1415  H     0.25590   0.88530   0.32674   0.00000  Uiso   1.00
H1416  H     0.25739   0.84038   0.35773   0.00000  Uiso   1.00
H1417  H     0.30509   0.85764   0.33416   0.00000  Uiso   1.00
H1418  H     0.10345   0.84718   0.33866   0.00000  Uiso   1.00
H1419  H     0.13295   0.95061   0.62339   0.00000  Uiso   1.00
H1420  H     0.17707   0.95779   0.65188   0.00000  Uiso   1.00
H1421  H     0.17923   0.91691   0.56949   0.00000  Uiso   1.00
H1422  H     0.22143   0.91733   0.60402   0.00000  Uiso   1.00
H1423  H     0.17537   0.87603   0.65068   0.00000  Uiso   1.00
H1424  H     0.18727   0.84914   0.60582   0.00000  Uiso   1.00
H1425  H     0.13644   0.87266   0.61250   0.00000  Uiso   1.00
H1426  H     0.33552   0.59849   0.88980   0.00000  Uiso   1.00
H1427  H     0.32239   0.56178   0.85439   0.00000  Uiso   1.00
H1428  H     0.34703   0.53909   0.93929   0.00000  Uiso   1.00
H1429  H     0.13564   0.84159   0.38136   0.00000  Uiso   1.00
H1430  H     0.33913   0.50246   0.90020   0.00000  Uiso   1.00
H1431  H     0.39853   0.53515   0.86334   0.00000  Uiso   1.00
H1432  H     0.41453   0.51593   0.91033   0.00000  Uiso   1.00
H1433  H     0.40695   0.57144   0.90305   0.00000  Uiso   1.00
H1434  H     0.17661   0.90163   0.07488   0.00000  Uiso   1.00
H1435  H     0.16694   0.95499   0.08845   0.00000  Uiso   1.00
H1436  H     0.16380   0.93719   0.15697   0.00000  Uiso   1.00
H1437  H     0.12727   0.90658   0.13023   0.00000  Uiso   1.00
H1438  H     0.15852   0.85927   0.17562   0.00000  Uiso   1.00
H1439  H     0.21078   0.87805   0.16566   0.00000  Uiso   1.00
H1440  H     0.10117   0.88613   0.37687   0.00000  Uiso   1.00
H1441  H     0.18267   0.84693   0.13001   0.00000  Uiso   1.00
H1442  H     0.43421   0.86457   0.89959   0.00000  Uiso   1.00
H1443  H     0.46387   0.84540   0.86079   0.00000  Uiso   1.00
H1444  H     0.49472   0.85007   0.94624   0.00000  Uiso   1.00
H1445  H     0.02595   0.83382   0.90506   0.00000  Uiso   1.00
H1446  H     0.01646   0.90428   0.87474   0.00000  Uiso   1.00
H1447  H     0.04036   0.90749   0.92209   0.00000  Uiso   1.00
H1448  H     0.48561   0.92071   0.91638   0.00000  Uiso   1.00
H1449  H     0.10879   0.81918   0.10473   0.00000  Uiso   1.00
H1450  H     0.06375   0.81653   0.13460   0.00000  Uiso   1.00
H1451  H     0.43771   0.64587   0.58501   0.00000  Uiso   1.00
H1452  H     0.05939   0.82750   0.04481   0.00000  Uiso   1.00
H1453  H     0.01704   0.83328   0.07915   0.00000  Uiso   1.00
H1454  H     0.05590   0.89385   0.10943   0.00000  Uiso   1.00
H1455  H     0.04225   0.90196   0.05920   0.00000  Uiso   1.00
H1456  H     0.09551   0.88878   0.07138   0.00000  Uiso   1.00
H1457  H     0.27849   0.87922   0.89802   0.00000  Uiso   1.00
H1458  H     0.29758   0.92834   0.87983   0.00000  Uiso   1.00
H1459  H     0.25159   0.92112   0.82105   0.00000  Uiso   1.00
H1460  H     0.29013   0.88051   0.82600   0.00000  Uiso   1.00
H1461  H     0.22119   0.85190   0.80536   0.00000  Uiso   1.00
H1462  H     0.42950   0.69393   0.61137   0.00000  Uiso   1.00
H1463  H     0.19631   0.87271   0.84825   0.00000  Uiso   1.00
H1464  H     0.23569   0.83175   0.85233   0.00000  Uiso   1.00
H1465  H     0.31924   0.58986   0.07602   0.00000  Uiso   1.00
H1466  H     0.32271   0.55743   0.11901   0.00000  Uiso   1.00
H1467  H     0.29438   0.61831   0.15878   0.00000  Uiso   1.00
H1468  H     0.34538   0.62648   0.13783   0.00000  Uiso   1.00
H1469  H     0.31269   0.66726   0.08289   0.00000  Uiso   1.00
H1470  H     0.30188   0.69001   0.12980   0.00000  Uiso   1.00
H1471  H     0.26159   0.66035   0.10541   0.00000  Uiso   1.00
H1472  H     0.04157   0.64712   0.86773   0.00000  Uiso   1.00
O1473  O     0.25000   0.50000   0.25000   0.00000  Uiso   1.00
O1474  O     0.25000   0.96539   0.66251   0.00000  Uiso   1.00
O1475  O     0.46538   0.75000   0.33749   0.00000  Uiso   1.00
O1476  O     0.03461   0.75000   0.66251   0.00000  Uiso   1.00
O1477  O     0.00000   0.71538   0.83749   0.00000  Uiso   1.00
O1478  O     0.00000   0.78461   0.16251   0.00000  Uiso   1.00
O1479  O     0.28461   0.50000   0.83749   0.00000  Uiso   1.00
O1480  O     0.21538   0.50000   0.16251   0.00000  Uiso   1.00
O1481  O     0.00000   0.78461   0.83749   0.00000  Uiso   1.00
O1482  O     0.00000   0.71538   0.16251   0.00000  Uiso   1.00
O1483  O     0.21538   0.50000   0.83749   0.00000  Uiso   1.00
O1484  O     0.25000   0.50000   0.75000   0.00000  Uiso   1.00
O1485  O     0.28461   0.50000   0.16251   0.00000  Uiso   1.00
O1486  O     0.20126   0.58332   0.27298   0.00000  Uiso   1.00
O1487  O     0.29873   0.91668   0.72702   0.00000  Uiso   1.00
O1488  O     0.41668   0.70127   0.27298   0.00000  Uiso   1.00
O1489  O     0.08332   0.79873   0.72702   0.00000  Uiso   1.00
O1490  O     0.29873   0.91668   0.27298   0.00000  Uiso   1.00
O1491  O     0.20126   0.58332   0.72702   0.00000  Uiso   1.00
O1492  O     0.08332   0.79873   0.27298   0.00000  Uiso   1.00
O1493  O     0.41668   0.70127   0.72702   0.00000  Uiso   1.00
O1494  O     0.20126   0.91668   0.72702   0.00000  Uiso   1.00
O1495  O     0.00000   0.75000   0.25000   0.00000  Uiso   1.00
O1496  O     0.29873   0.58332   0.27298   0.00000  Uiso   1.00
O1497  O     0.41668   0.79874   0.72702   0.00000  Uiso   1.00
O1498  O     0.08332   0.70127   0.27298   0.00000  Uiso   1.00
O1499  O     0.29873   0.58332   0.72702   0.00000  Uiso   1.00
O1500  O     0.20126   0.91668   0.27298   0.00000  Uiso   1.00
O1501  O     0.08332   0.70127   0.72702   0.00000  Uiso   1.00
O1502  O     0.41668   0.79874   0.27298   0.00000  Uiso   1.00
O1503  O     0.45126   0.83332   0.77298   0.00000  Uiso   1.00
O1504  O     0.04873   0.66668   0.22702   0.00000  Uiso   1.00
O1505  O     0.16668   0.95127   0.77298   0.00000  Uiso   1.00
O1506  O     0.00000   0.75000   0.75000   0.00000  Uiso   1.00
O1507  O     0.33332   0.54874   0.22702   0.00000  Uiso   1.00
O1508  O     0.04873   0.66668   0.77298   0.00000  Uiso   1.00
O1509  O     0.45126   0.83332   0.22702   0.00000  Uiso   1.00
O1510  O     0.33332   0.54874   0.77298   0.00000  Uiso   1.00
O1511  O     0.16668   0.95127   0.22702   0.00000  Uiso   1.00
O1512  O     0.45126   0.66668   0.22702   0.00000  Uiso   1.00
O1513  O     0.04873   0.83332   0.77298   0.00000  Uiso   1.00
O1514  O     0.16668   0.54874   0.22702   0.00000  Uiso   1.00
O1515  O     0.33332   0.95127   0.77298   0.00000  Uiso   1.00
O1516  O     0.04873   0.83332   0.22702   0.00000  Uiso   1.00
O1517  O     0.25000   0.96539   0.33749   0.00000  Uiso   1.00
O1518  O     0.45126   0.66668   0.77298   0.00000  Uiso   1.00
O1519  O     0.33332   0.95127   0.22702   0.00000  Uiso   1.00
O1520  O     0.16668   0.54874   0.77298   0.00000  Uiso   1.00
O1521  O     0.49049   0.82917   0.39894   0.00000  Uiso   1.00
O1522  O     0.49262   0.67458   0.60310   0.00000  Uiso   1.00
O1523  O     0.18730   0.53766   0.40085   0.00000  Uiso   1.00
O1524  O     0.32566   0.50458   0.60105   0.00000  Uiso   1.00
O1525  O     0.01811   0.68021   0.39796   0.00000  Uiso   1.00
O1526  O     0.00820   0.82449   0.60269   0.00000  Uiso   1.00
O1527  O     0.32282   0.96530   0.39933   0.00000  Uiso   1.00
O1528  O     0.25000   0.53462   0.66251   0.00000  Uiso   1.00
O1529  O     0.17319   0.99518   0.60214   0.00000  Uiso   1.00
O1530  O     0.27800   0.57047   0.89815   0.00000  Uiso   1.00
O1531  O     0.22660   0.92950   0.10336   0.00000  Uiso   1.00
O1532  O     0.44127   0.80037   0.89931   0.00000  Uiso   1.00
O1533  O     0.07451   0.76492   0.09882   0.00000  Uiso   1.00
O1534  O     0.23320   0.92568   0.89737   0.00000  Uiso   1.00
O1535  O     0.26219   0.57496   0.10266   0.00000  Uiso   1.00
O1536  O     0.05522   0.69888   0.90106   0.00000  Uiso   1.00
O1537  O     0.42377   0.74263   0.10051   0.00000  Uiso   1.00
O1538  O     0.49593   0.63705   0.45944   0.00000  Uiso   1.00
O1539  O     0.03461   0.75000   0.33749   0.00000  Uiso   1.00
O1540  O     0.46585   0.85907   0.54503   0.00000  Uiso   1.00
O1541  O     0.35579   0.94811   0.46647   0.00000  Uiso   1.00
O1542  O     0.13611   0.51410   0.53850   0.00000  Uiso   1.00
O1543  O     0.46968   0.86529   0.46629   0.00000  Uiso   1.00
O1544  O     0.00721   0.63556   0.53733   0.00000  Uiso   1.00
O1545  O     0.13964   0.99503   0.45538   0.00000  Uiso   1.00
O1546  O     0.36266   0.97687   0.54080   0.00000  Uiso   1.00
O1547  O     0.23485   0.88490   0.96318   0.00000  Uiso   1.00
O1548  O     0.24223   0.61446   0.03628   0.00000  Uiso   1.00
O1549  O     0.10925   0.72929   0.95550   0.00000  Uiso   1.00
O1550  O     0.46538   0.75000   0.66251   0.00000  Uiso   1.00
O1551  O     0.38911   0.78143   0.04091   0.00000  Uiso   1.00
O1552  O     0.26454   0.61330   0.95985   0.00000  Uiso   1.00
O1553  O     0.25332   0.88678   0.04174   0.00000  Uiso   1.00
O1554  O     0.39494   0.79959   0.96195   0.00000  Uiso   1.00
O1555  O     0.11246   0.73125   0.03880   0.00000  Uiso   1.00
O1556  O     0.25000   0.53462   0.33749   0.00000  Uiso   1.00
Zn1557 Zn    0.20052   0.50000   0.21730   0.00000  Uiso   1.00
Zn1558 Zn    0.04947   0.75000   0.28270   0.00000  Uiso   1.00
Zn1559 Zn    0.25000   0.95053   0.71730   0.00000  Uiso   1.00
Zn1560 Zn    0.25000   0.54948   0.28270   0.00000  Uiso   1.00
Zn1561 Zn    0.04947   0.75000   0.71730   0.00000  Uiso   1.00
Zn1562 Zn    0.45052   0.75000   0.28270   0.00000  Uiso   1.00
Zn1563 Zn    0.25000   0.54948   0.71730   0.00000  Uiso   1.00
Zn1564 Zn    0.25000   0.95053   0.28270   0.00000  Uiso   1.00
Zn1565 Zn    0.29947   0.50000   0.78270   0.00000  Uiso   1.00
Zn1566 Zn    0.00000   0.70052   0.21730   0.00000  Uiso   1.00
Zn1567 Zn    0.00000   0.79947   0.78270   0.00000  Uiso   1.00
Zn1568 Zn    0.29947   0.50000   0.21730   0.00000  Uiso   1.00
Zn1569 Zn    0.20052   0.50000   0.78270   0.00000  Uiso   1.00
Zn1570 Zn   -0.00000   0.79948   0.21730   0.00000  Uiso   1.00
Zn1571 Zn    0.00000   0.70052   0.78270   0.00000  Uiso   1.00
Zn1572 Zn    0.45052   0.75000   0.71730   0.00000  Uiso   1.00
C1573  C     0.75165   0.99970   0.35591   0.00000  Uiso   1.00
C1574  C     0.83002   0.91997   0.75001   0.00000  Uiso   1.00
C1575  C     0.92526   0.77078   0.02069   0.00000  Uiso   1.00
C1576  C     0.76096   0.57557   0.97954   0.00000  Uiso   1.00
C1577  C     0.74569   0.92379   0.02177   0.00000  Uiso   1.00
C1578  C     0.92847   0.78087   0.98078   0.00000  Uiso   1.00
C1579  C     0.57514   0.73686   0.01896   0.00000  Uiso   1.00
C1580  C     0.52571   0.83961   0.37484   0.00000  Uiso   1.00
C1581  C     0.56971   0.82723   0.39061   0.00000  Uiso   1.00
C1582  C     0.60459   0.85215   0.37054   0.00000  Uiso   1.00
C1583  C     0.94961   0.66532   0.60938   0.00000  Uiso   1.00
C1584  C     0.94465   0.64164   0.64781   0.00000  Uiso   1.00
C1585  C     0.91992   0.67003   0.24999   0.00000  Uiso   1.00
C1586  C     0.96176   0.59707   0.64550   0.00000  Uiso   1.00
C1587  C     0.70301   0.57919   0.39559   0.00000  Uiso   1.00
C1588  C     0.68665   0.60906   0.42699   0.00000  Uiso   1.00
C1589  C     0.70811   0.65182   0.42447   0.00000  Uiso   1.00
C1590  C     0.83317   0.54654   0.61366   0.00000  Uiso   1.00
C1591  C     0.81486   0.58208   0.58812   0.00000  Uiso   1.00
C1592  C     0.83177   0.62479   0.60041   0.00000  Uiso   1.00
C1593  C     0.56258   0.67752   0.39829   0.00000  Uiso   1.00
C1594  C     0.57775   0.65536   0.36146   0.00000  Uiso   1.00
C1595  C     0.56926   0.60836   0.36246   0.00000  Uiso   1.00
C1596  C     0.58013   0.82992   0.75007   0.00000  Uiso   1.00
C1597  C     0.55160   0.83060   0.60974   0.00000  Uiso   1.00
C1598  C     0.55791   0.84499   0.65180   0.00000  Uiso   1.00
C1599  C     0.55071   0.89174   0.65729   0.00000  Uiso   1.00
C1600  C     0.81882   0.93023   0.37365   0.00000  Uiso   1.00
C1601  C     0.78476   0.89632   0.38300   0.00000  Uiso   1.00
C1602  C     0.77546   0.86839   0.34809   0.00000  Uiso   1.00
C1603  C     0.66723   0.95576   0.62118   0.00000  Uiso   1.00
C1604  C     0.68672   0.91687   0.60096   0.00000  Uiso   1.00
C1605  C     0.67038   0.87619   0.61877   0.00000  Uiso   1.00
C1606  C     0.82100   0.56718   0.88612   0.00000  Uiso   1.00
C1607  C     0.83006   0.91997   0.24998   0.00000  Uiso   1.00
C1608  C     0.84925   0.53489   0.90736   0.00000  Uiso   1.00
C1609  C     0.89516   0.53976   0.89517   0.00000  Uiso   1.00
C1610  C     0.68263   0.92529   0.09775   0.00000  Uiso   1.00
C1611  C     0.66119   0.91157   0.13554   0.00000  Uiso   1.00
C1612  C     0.67965   0.87148   0.15256   0.00000  Uiso   1.00
C1613  C     0.95869   0.84124   0.89240   0.00000  Uiso   1.00
C1614  C     0.99928   0.85388   0.91444   0.00000  Uiso   1.00
C1615  C     0.51105   0.89947   0.90632   0.00000  Uiso   1.00
C1616  C     0.57530   0.80935   0.10496   0.00000  Uiso   1.00
C1617  C     0.55149   0.83695   0.07494   0.00000  Uiso   1.00
C1618  C     0.66994   0.58003   0.75003   0.00000  Uiso   1.00
C1619  C     0.56209   0.88328   0.07923   0.00000  Uiso   1.00
C1620  C     0.76961   0.90720   0.88068   0.00000  Uiso   1.00
C1621  C     0.76081   0.89357   0.83877   0.00000  Uiso   1.00
C1622  C     0.72629   0.86042   0.83625   0.00000  Uiso   1.00
C1623  C     0.80549   0.58394   0.10531   0.00000  Uiso   1.00
C1624  C     0.81155   0.62271   0.13088   0.00000  Uiso   1.00
C1625  C     0.79589   0.66248   0.11089   0.00000  Uiso   1.00
C1626  C     0.53228   0.66086   0.89613   0.00000  Uiso   1.00
C1627  C     0.54259   0.62900   0.92799   0.00000  Uiso   1.00
C1628  C     0.51321   0.59114   0.92634   0.00000  Uiso   1.00
C1629  C     0.57996   0.83007   0.25006   0.00000  Uiso   1.00
C1630  C     0.91826   0.69917   0.10935   0.00000  Uiso   1.00
C1631  C     0.93685   0.66747   0.07969   0.00000  Uiso   1.00
C1632  C     0.92172   0.62290   0.08752   0.00000  Uiso   1.00
C1633  C     0.95569   0.63217   0.44225   0.00000  Uiso   1.00
C1634  C     0.92883   0.60177   0.46611   0.00000  Uiso   1.00
C1635  C     0.88545   0.59570   0.44816   0.00000  Uiso   1.00
C1636  C     0.92831   0.84879   0.56537   0.00000  Uiso   1.00
C1637  C     0.90866   0.88861   0.58210   0.00000  Uiso   1.00
C1638  C     0.93531   0.90737   0.61443   0.00000  Uiso   1.00
C1639  C     0.84223   0.90586   0.46305   0.00000  Uiso   1.00
C1640  C     0.92000   0.66998   0.75001   0.00000  Uiso   1.00
C1641  C     0.85499   0.87941   0.49763   0.00000  Uiso   1.00
C1642  C     0.83904   0.83435   0.49284   0.00000  Uiso   1.00
C1643  C     0.60726   0.98041   0.54000   0.00000  Uiso   1.00
C1644  C     0.56464   0.99727   0.55452   0.00000  Uiso   1.00
C1645  C     0.54608   0.97110   0.58748   0.00000  Uiso   1.00
C1646  C     0.50353   0.89342   0.45886   0.00000  Uiso   1.00
C1647  C     0.52637   0.91086   0.49463   0.00000  Uiso   1.00
C1648  C     0.56531   0.88493   0.50508   0.00000  Uiso   1.00
C1649  C     0.54935   0.63218   0.55024   0.00000  Uiso   1.00
C1650  C     0.57850   0.61871   0.51723   0.00000  Uiso   1.00
C1651  C     0.66995   0.92000   0.75002   0.00000  Uiso   1.00
C1652  C     0.62336   0.61279   0.53168   0.00000  Uiso   1.00
C1653  C     0.60881   0.52665   0.45461   0.00000  Uiso   1.00
C1654  C     0.57342   0.51267   0.42752   0.00000  Uiso   1.00
C1655  C     0.53283   0.53674   0.43530   0.00000  Uiso   1.00
C1656  C     0.89222   0.50778   0.52940   0.00000  Uiso   1.00
C1657  C     0.93034   0.50582   0.55629   0.00000  Uiso   1.00
C1658  C     0.95961   0.54324   0.55009   0.00000  Uiso   1.00
C1659  C     0.69138   0.87562   0.96443   0.00000  Uiso   1.00
C1660  C     0.68311   0.83509   0.94211   0.00000  Uiso   1.00
C1661  C     0.63612   0.82763   0.93639   0.00000  Uiso   1.00
C1662  C     0.83002   0.58003   0.24991   0.00000  Uiso   1.00
C1663  C     0.69939   0.61465   0.04857   0.00000  Uiso   1.00
C1664  C     0.66785   0.60238   0.01661   0.00000  Uiso   1.00
C1665  C     0.62258   0.60948   0.02992   0.00000  Uiso   1.00
C1666  C     0.63315   0.69257   0.96111   0.00000  Uiso   1.00
C1667  C     0.66973   0.69219   0.93205   0.00000  Uiso   1.00
C1668  C     0.65470   0.68970   0.89008   0.00000  Uiso   1.00
C1669  C     0.85880   0.74892   0.03866   0.00000  Uiso   1.00
C1670  C     0.82359   0.76037   0.01029   0.00000  Uiso   1.00
C1671  C     0.78276   0.73762   0.02051   0.00000  Uiso   1.00
C1672  C     0.80524   0.62984   0.96611   0.00000  Uiso   1.00
C1673  C     0.91999   0.83003   0.74999   0.00000  Uiso   1.00
C1674  C     0.81227   0.66739   0.93912   0.00000  Uiso   1.00
C1675  C     0.85857   0.68019   0.93767   0.00000  Uiso   1.00
C1676  C     0.79749   0.88247   0.04538   0.00000  Uiso   1.00
C1677  C     0.80914   0.84946   0.07577   0.00000  Uiso   1.00
C1678  C     0.79721   0.86247   0.11689   0.00000  Uiso   1.00
C1679  C     0.89295   0.84245   0.97250   0.00000  Uiso   1.00
C1680  C     0.85976   0.86458   0.94783   0.00000  Uiso   1.00
C1681  C     0.86099   0.91201   0.95425   0.00000  Uiso   1.00
C1682  C     0.63941   0.76587   0.03249   0.00000  Uiso   1.00
C1683  C     0.67444   0.76444   0.06249   0.00000  Uiso   1.00
C1684  C     0.74996   0.50006   0.64413   0.00000  Uiso   1.00
C1685  C     0.58001   0.66997   0.25002   0.00000  Uiso   1.00
C1686  C     0.70221   0.80318   0.05954   0.00000  Uiso   1.00
C1687  C     0.83003   0.57999   0.74996   0.00000  Uiso   1.00
C1688  C     0.66991   0.92006   0.25013   0.00000  Uiso   1.00
C1689  C     0.58007   0.66998   0.74998   0.00000  Uiso   1.00
C1690  C     0.91993   0.83003   0.25003   0.00000  Uiso   1.00
C1691  C     0.63815   0.88851   0.25033   0.00000  Uiso   1.00
C1692  C     0.86172   0.61163   0.74991   0.00000  Uiso   1.00
C1693  C     0.61163   0.63828   0.25009   0.00000  Uiso   1.00
C1694  C     0.88832   0.86168   0.75001   0.00000  Uiso   1.00
C1695  C     0.86165   0.61170   0.24985   0.00000  Uiso   1.00
C1696  C     0.99992   0.75116   0.35599   0.00000  Uiso   1.00
C1697  C     0.63833   0.88833   0.75006   0.00000  Uiso   1.00
C1698  C     0.88828   0.86166   0.25006   0.00000  Uiso   1.00
C1699  C     0.61171   0.63835   0.74998   0.00000  Uiso   1.00
C1700  C     0.63829   0.61167   0.75005   0.00000  Uiso   1.00
C1701  C     0.86169   0.88834   0.24999   0.00000  Uiso   1.00
C1702  C     0.61178   0.86158   0.75002   0.00000  Uiso   1.00
C1703  C     0.88824   0.63841   0.24995   0.00000  Uiso   1.00
C1704  C     0.86167   0.88832   0.75001   0.00000  Uiso   1.00
C1705  C     0.63827   0.61164   0.25010   0.00000  Uiso   1.00
C1706  C     0.88838   0.63827   0.74995   0.00000  Uiso   1.00
C1707  C     0.50012   0.74941   0.64424   0.00000  Uiso   1.00
C1708  C     0.61149   0.86185   0.25024   0.00000  Uiso   1.00
C1709  C     0.99448   0.79144   0.41888   0.00000  Uiso   1.00
C1710  C     0.99617   0.71144   0.58205   0.00000  Uiso   1.00
C1711  C     0.71746   0.51319   0.41909   0.00000  Uiso   1.00
C1712  C     0.78784   0.50000   0.58150   0.00000  Uiso   1.00
C1713  C     0.50586   0.71546   0.41860   0.00000  Uiso   1.00
C1714  C     0.50196   0.78743   0.58232   0.00000  Uiso   1.00
C1715  C     0.78632   0.97844   0.41841   0.00000  Uiso   1.00
C1716  C     0.71092   0.99796   0.58180   0.00000  Uiso   1.00
C1717  C     0.76353   0.53559   0.91838   0.00000  Uiso   1.00
C1718  C     0.99948   0.75005   0.85601   0.00000  Uiso   1.00
C1719  C     0.74126   0.96361   0.08233   0.00000  Uiso   1.00
C1720  C     0.96834   0.77382   0.91897   0.00000  Uiso   1.00
C1721  C     0.53787   0.75201   0.08075   0.00000  Uiso   1.00
C1722  C     0.74376   0.96139   0.91830   0.00000  Uiso   1.00
C1723  C     0.75669   0.53826   0.08182   0.00000  Uiso   1.00
C1724  C     0.52983   0.72824   0.91929   0.00000  Uiso   1.00
C1725  C     0.96138   0.75024   0.08137   0.00000  Uiso   1.00
C1726  C     0.99997   0.75307   0.39856   0.00000  Uiso   1.00
C1727  C     0.50032   0.74931   0.60214   0.00000  Uiso   1.00
C1728  C     0.75250   0.99787   0.39834   0.00000  Uiso   1.00
C1729  C     0.50002   0.75004   0.14403   0.00000  Uiso   1.00
C1730  C     0.74948   0.50002   0.60181   0.00000  Uiso   1.00
C1731  C     0.75133   0.99926   0.89831   0.00000  Uiso   1.00
C1732  C     0.74998   0.50076   0.10203   0.00000  Uiso   1.00
C1733  C     0.99889   0.75038   0.89857   0.00000  Uiso   1.00
C1734  C     0.99975   0.75018   0.10155   0.00000  Uiso   1.00
C1735  C     0.99988   0.71390   0.45903   0.00000  Uiso   1.00
C1736  C     0.99292   0.78794   0.54242   0.00000  Uiso   1.00
C1737  C     0.78701   0.98184   0.45957   0.00000  Uiso   1.00
C1738  C     0.71073   0.99981   0.54062   0.00000  Uiso   1.00
C1739  C     0.99140   0.79105   0.46028   0.00000  Uiso   1.00
C1740  C     0.75013   0.50019   0.85593   0.00000  Uiso   1.00
C1741  C     0.99809   0.71154   0.54099   0.00000  Uiso   1.00
C1742  C     0.71368   0.50446   0.45892   0.00000  Uiso   1.00
C1743  C     0.78792   0.99291   0.54114   0.00000  Uiso   1.00
C1744  C     0.74513   0.96083   0.95949   0.00000  Uiso   1.00
C1745  C     0.75334   0.53856   0.04092   0.00000  Uiso   1.00
C1746  C     0.53440   0.73607   0.95914   0.00000  Uiso   1.00
C1747  C     0.96158   0.75751   0.04096   0.00000  Uiso   1.00
C1748  C     0.75903   0.53708   0.95906   0.00000  Uiso   1.00
C1749  C     0.74556   0.96223   0.04165   0.00000  Uiso   1.00
C1750  C     0.96452   0.76820   0.95958   0.00000  Uiso   1.00
C1751  C     0.75002   0.50059   0.14420   0.00000  Uiso   1.00
C1752  C     0.53771   0.74501   0.04025   0.00000  Uiso   1.00
C1753  C     0.99545   0.75184   0.48003   0.00000  Uiso   1.00
C1754  C     0.99541   0.75040   0.52105   0.00000  Uiso   1.00
C1755  C     0.75016   0.99425   0.47969   0.00000  Uiso   1.00
C1756  C     0.74950   0.99538   0.52056   0.00000  Uiso   1.00
C1757  C     0.75142   0.99928   0.97968   0.00000  Uiso   1.00
C1758  C     0.75032   0.50000   0.02071   0.00000  Uiso   1.00
C1759  C     0.99921   0.75120   0.97971   0.00000  Uiso   1.00
C1760  C     0.99944   0.75083   0.02032   0.00000  Uiso   1.00
C1761  C     0.99839   0.67501   0.47898   0.00000  Uiso   1.00
C1762  C     0.66995   0.58000   0.25004   0.00000  Uiso   1.00
C1763  C     0.98019   0.82488   0.52376   0.00000  Uiso   1.00
C1764  C     0.82319   0.97174   0.48163   0.00000  Uiso   1.00
C1765  C     0.67272   0.50330   0.51910   0.00000  Uiso   1.00
C1766  C     0.98301   0.82798   0.48293   0.00000  Uiso   1.00
C1767  C     0.50142   0.67403   0.51946   0.00000  Uiso   1.00
C1768  C     0.67433   0.50574   0.47780   0.00000  Uiso   1.00
C1769  C     0.82538   0.98302   0.52090   0.00000  Uiso   1.00
C1770  C     0.74101   0.92310   0.98122   0.00000  Uiso   1.00
C1771  C     0.75290   0.57631   0.01959   0.00000  Uiso   1.00
C1772  C     0.57307   0.72980   0.97825   0.00000  Uiso   1.00
H1773  H     0.52514   0.87423   0.37125   0.00000  Uiso   1.00
H1774  H     0.96153   0.65896   0.67101   0.00000  Uiso   1.00
H1775  H     0.99748   0.66529   0.89492   0.00000  Uiso   1.00
H1776  H     0.57532   0.61776   0.92399   0.00000  Uiso   1.00
H1777  H     0.53947   0.64391   0.95701   0.00000  Uiso   1.00
H1778  H     0.98021   0.60098   0.93163   0.00000  Uiso   1.00
H1779  H     0.52220   0.56819   0.94910   0.00000  Uiso   1.00
H1780  H     0.51545   0.57564   0.89753   0.00000  Uiso   1.00
H1781  H     0.88392   0.69349   0.11131   0.00000  Uiso   1.00
H1782  H     0.93064   0.69243   0.13872   0.00000  Uiso   1.00
H1783  H     0.92783   0.67615   0.04965   0.00000  Uiso   1.00
H1784  H     0.97171   0.66765   0.08158   0.00000  Uiso   1.00
H1785  H     0.91083   0.64018   0.65593   0.00000  Uiso   1.00
H1786  H     0.92708   0.61415   0.11834   0.00000  Uiso   1.00
H1787  H     0.93915   0.60070   0.06860   0.00000  Uiso   1.00
H1788  H     0.88786   0.62032   0.08061   0.00000  Uiso   1.00
H1789  H     0.96034   0.61857   0.41285   0.00000  Uiso   1.00
H1790  H     0.93813   0.66212   0.43811   0.00000  Uiso   1.00
H1791  H     0.94482   0.57093   0.46731   0.00000  Uiso   1.00
H1792  H     0.92505   0.61418   0.49605   0.00000  Uiso   1.00
H1793  H     0.86836   0.62602   0.44713   0.00000  Uiso   1.00
H1794  H     0.86685   0.57325   0.46595   0.00000  Uiso   1.00
H1795  H     0.88842   0.58292   0.41828   0.00000  Uiso   1.00
H1796  H     0.96016   0.58227   0.67467   0.00000  Uiso   1.00
H1797  H     0.93345   0.82684   0.58981   0.00000  Uiso   1.00
H1798  H     0.90558   0.83315   0.54601   0.00000  Uiso   1.00
H1799  H     0.90541   0.91225   0.55878   0.00000  Uiso   1.00
H1800  H     0.87690   0.88116   0.59378   0.00000  Uiso   1.00
H1801  H     0.94004   0.88414   0.63807   0.00000  Uiso   1.00
H1802  H     0.91922   0.93527   0.62668   0.00000  Uiso   1.00
H1803  H     0.96621   0.91736   0.60256   0.00000  Uiso   1.00
H1804  H     0.85780   0.89224   0.43713   0.00000  Uiso   1.00
H1805  H     0.80755   0.90267   0.46002   0.00000  Uiso   1.00
H1806  H     0.88975   0.87967   0.49912   0.00000  Uiso   1.00
H1807  H     0.99499   0.59719   0.63550   0.00000  Uiso   1.00
H1808  H     0.84132   0.89285   0.52459   0.00000  Uiso   1.00
H1809  H     0.80478   0.83403   0.48675   0.00000  Uiso   1.00
H1810  H     0.84398   0.81612   0.51984   0.00000  Uiso   1.00
H1811  H     0.85595   0.81868   0.46859   0.00000  Uiso   1.00
H1812  H     0.61892   0.95540   0.55919   0.00000  Uiso   1.00
H1813  H     0.60276   0.96559   0.51125   0.00000  Uiso   1.00
H1814  H     0.56804   0.53001   0.56515   0.00000  Uiso   1.00
H1815  H     0.54199   0.99824   0.53014   0.00000  Uiso   1.00
H1816  H     0.54514   0.93742   0.57962   0.00000  Uiso   1.00
H1817  H     0.51358   0.98134   0.59398   0.00000  Uiso   1.00
H1818  H     0.94241   0.57816   0.62530   0.00000  Uiso   1.00
H1819  H     0.56496   0.97572   0.61411   0.00000  Uiso   1.00
H1820  H     0.99001   0.92053   0.44295   0.00000  Uiso   1.00
H1821  H     0.52693   0.88017   0.43911   0.00000  Uiso   1.00
H1822  H     0.53748   0.94280   0.48711   0.00000  Uiso   1.00
H1823  H     0.50498   0.91492   0.51966   0.00000  Uiso   1.00
H1824  H     0.55792   0.85131   0.50914   0.00000  Uiso   1.00
H1825  H     0.57926   0.89652   0.53240   0.00000  Uiso   1.00
H1826  H     0.58931   0.88779   0.48170   0.00000  Uiso   1.00
H1827  H     0.55002   0.60781   0.57331   0.00000  Uiso   1.00
H1828  H     0.56164   0.66150   0.56368   0.00000  Uiso   1.00
H1829  H     0.69191   0.59072   0.36695   0.00000  Uiso   1.00
H1830  H     0.56620   0.58914   0.50498   0.00000  Uiso   1.00
H1831  H     0.57886   0.64279   0.49394   0.00000  Uiso   1.00
H1832  H     0.63703   0.64351   0.54015   0.00000  Uiso   1.00
H1833  H     0.64293   0.59910   0.50824   0.00000  Uiso   1.00
H1834  H     0.62395   0.59150   0.55719   0.00000  Uiso   1.00
H1835  H     0.62183   0.55658   0.44401   0.00000  Uiso   1.00
H1836  H     0.59533   0.53192   0.48353   0.00000  Uiso   1.00
H1837  H     0.58341   0.51738   0.39687   0.00000  Uiso   1.00
H1838  H     0.56703   0.97867   0.43164   0.00000  Uiso   1.00
H1839  H     0.51980   0.52790   0.46412   0.00000  Uiso   1.00
H1840  H     0.73806   0.58119   0.39485   0.00000  Uiso   1.00
H1841  H     0.50924   0.52898   0.41274   0.00000  Uiso   1.00
H1842  H     0.53875   0.57101   0.43490   0.00000  Uiso   1.00
H1843  H     0.87831   0.53970   0.53138   0.00000  Uiso   1.00
H1844  H     0.90317   0.50238   0.49910   0.00000  Uiso   1.00
H1845  H     0.91963   0.50557   0.58702   0.00000  Uiso   1.00
H1846  H     0.94802   0.97641   0.55074   0.00000  Uiso   1.00
H1847  H     0.94194   0.57309   0.55240   0.00000  Uiso   1.00
H1848  H     0.97506   0.54117   0.52128   0.00000  Uiso   1.00
H1849  H     0.98439   0.54359   0.57259   0.00000  Uiso   1.00
H1850  H     0.67292   0.90139   0.95074   0.00000  Uiso   1.00
H1851  H     0.65242   0.61402   0.42319   0.00000  Uiso   1.00
H1852  H     0.68045   0.87128   0.99497   0.00000  Uiso   1.00
H1853  H     0.69844   0.83698   0.91321   0.00000  Uiso   1.00
H1854  H     0.69699   0.80819   0.95804   0.00000  Uiso   1.00
H1855  H     0.61990   0.82458   0.96487   0.00000  Uiso   1.00
H1856  H     0.63133   0.79840   0.91950   0.00000  Uiso   1.00
H1857  H     0.62195   0.85399   0.91993   0.00000  Uiso   1.00
H1858  H     0.69214   0.64709   0.05821   0.00000  Uiso   1.00
H1859  H     0.69433   0.59424   0.07428   0.00000  Uiso   1.00
H1860  H     0.67433   0.62089   0.99009   0.00000  Uiso   1.00
H1861  H     0.67126   0.56864   0.00921   0.00000  Uiso   1.00
H1862  H     0.69263   0.59543   0.45611   0.00000  Uiso   1.00
H1863  H     0.61528   0.58933   0.05540   0.00000  Uiso   1.00
H1864  H     0.60071   0.60129   0.00603   0.00000  Uiso   1.00
H1865  H     0.61756   0.64279   0.03799   0.00000  Uiso   1.00
H1866  H     0.61387   0.66402   0.95738   0.00000  Uiso   1.00
H1867  H     0.64728   0.69168   0.99037   0.00000  Uiso   1.00
H1868  H     0.68895   0.72106   0.93586   0.00000  Uiso   1.00
H1869  H     0.69029   0.66484   0.93793   0.00000  Uiso   1.00
H1870  H     0.63511   0.66123   0.88572   0.00000  Uiso   1.00
H1871  H     0.68229   0.68800   0.87031   0.00000  Uiso   1.00
H1872  H     0.63623   0.71803   0.88246   0.00000  Uiso   1.00
H1873  H     0.74245   0.64864   0.42934   0.00000  Uiso   1.00
H1874  H     0.84510   0.74545   0.06822   0.00000  Uiso   1.00
H1875  H     0.87195   0.71768   0.03090   0.00000  Uiso   1.00
H1876  H     0.81784   0.79461   0.01057   0.00000  Uiso   1.00
H1877  H     0.83308   0.75193   0.98034   0.00000  Uiso   1.00
H1878  H     0.78756   0.70327   0.02059   0.00000  Uiso   1.00
H1879  H     0.75816   0.74548   0.99892   0.00000  Uiso   1.00
H1880  H     0.77180   0.74705   0.04983   0.00000  Uiso   1.00
H1881  H     0.82987   0.60599   0.96011   0.00000  Uiso   1.00
H1882  H     0.80896   0.64016   0.99672   0.00000  Uiso   1.00
H1883  H     0.80177   0.65958   0.90926   0.00000  Uiso   1.00
H1884  H     0.52118   0.82767   0.34495   0.00000  Uiso   1.00
H1885  H     0.69495   0.67287   0.44711   0.00000  Uiso   1.00
H1886  H     0.79291   0.69419   0.94914   0.00000  Uiso   1.00
H1887  H     0.87067   0.68601   0.96736   0.00000  Uiso   1.00
H1888  H     0.86223   0.70929   0.92022   0.00000  Uiso   1.00
H1889  H     0.87764   0.65505   0.92399   0.00000  Uiso   1.00
H1890  H     0.81348   0.91240   0.05352   0.00000  Uiso   1.00
H1891  H     0.81047   0.87198   0.01719   0.00000  Uiso   1.00
H1892  H     0.79379   0.81922   0.06899   0.00000  Uiso   1.00
H1893  H     0.84368   0.84458   0.07464   0.00000  Uiso   1.00
H1894  H     0.80898   0.89450   0.12346   0.00000  Uiso   1.00
H1895  H     0.81109   0.84013   0.13799   0.00000  Uiso   1.00
H1896  H     0.70262   0.66619   0.39553   0.00000  Uiso   1.00
H1897  H     0.76268   0.86135   0.12025   0.00000  Uiso   1.00
H1898  H     0.92383   0.85821   0.96803   0.00000  Uiso   1.00
H1899  H     0.88392   0.84614   0.00350   0.00000  Uiso   1.00
H1900  H     0.86500   0.85790   0.91655   0.00000  Uiso   1.00
H1901  H     0.82810   0.85223   0.95536   0.00000  Uiso   1.00
H1902  H     0.85872   0.91962   0.98564   0.00000  Uiso   1.00
H1903  H     0.83426   0.92708   0.93922   0.00000  Uiso   1.00
H1904  H     0.89073   0.92528   0.94247   0.00000  Uiso   1.00
H1905  H     0.62253   0.79619   0.03522   0.00000  Uiso   1.00
H1906  H     0.65409   0.76448   0.00328   0.00000  Uiso   1.00
H1907  H     0.86776   0.55081   0.61457   0.00000  Uiso   1.00
H1908  H     0.66067   0.76285   0.09215   0.00000  Uiso   1.00
H1909  H     0.69376   0.73586   0.05789   0.00000  Uiso   1.00
H1910  H     0.68284   0.83185   0.06196   0.00000  Uiso   1.00
H1911  H     0.71918   0.80385   0.03133   0.00000  Uiso   1.00
H1912  H     0.72516   0.80279   0.08364   0.00000  Uiso   1.00
H1913  H     0.82255   0.55028   0.64412   0.00000  Uiso   1.00
H1914  H     0.82295   0.57689   0.55713   0.00000  Uiso   1.00
H1915  H     0.78007   0.58273   0.59099   0.00000  Uiso   1.00
H1916  H     0.81688   0.64976   0.58272   0.00000  Uiso   1.00
H1917  H     0.86621   0.62607   0.59565   0.00000  Uiso   1.00
H1918  H     0.82472   0.63066   0.63156   0.00000  Uiso   1.00
H1919  H     0.57306   0.65988   0.42436   0.00000  Uiso   1.00
H1920  H     0.57200   0.83244   0.42236   0.00000  Uiso   1.00
H1921  H     0.57824   0.70893   0.39876   0.00000  Uiso   1.00
H1922  H     0.56140   0.66900   0.33610   0.00000  Uiso   1.00
H1923  H     0.61210   0.66056   0.35778   0.00000  Uiso   1.00
H1924  H     0.58798   0.59371   0.38588   0.00000  Uiso   1.00
H1925  H     0.57886   0.59417   0.33436   0.00000  Uiso   1.00
H1926  H     0.53529   0.60206   0.36726   0.00000  Uiso   1.00
H1927  H     0.56384   0.85467   0.58932   0.00000  Uiso   1.00
H1928  H     0.57110   0.80185   0.60533   0.00000  Uiso   1.00
H1929  H     0.53591   0.82793   0.67127   0.00000  Uiso   1.00
H1930  H     0.59058   0.83768   0.66078   0.00000  Uiso   1.00
H1931  H     0.57569   0.79344   0.38559   0.00000  Uiso   1.00
H1932  H     0.57505   0.90950   0.64123   0.00000  Uiso   1.00
H1933  H     0.55323   0.89978   0.68855   0.00000  Uiso   1.00
H1934  H     0.51908   0.90073   0.64702   0.00000  Uiso   1.00
H1935  H     0.84953   0.91380   0.37371   0.00000  Uiso   1.00
H1936  H     0.81729   0.94161   0.34338   0.00000  Uiso   1.00
H1937  H     0.79620   0.87463   0.40553   0.00000  Uiso   1.00
H1938  H     0.75471   0.91003   0.39324   0.00000  Uiso   1.00
H1939  H     0.75590   0.88530   0.32674   0.00000  Uiso   1.00
H1940  H     0.75739   0.84038   0.35773   0.00000  Uiso   1.00
H1941  H     0.80509   0.85764   0.33416   0.00000  Uiso   1.00
H1942  H     0.60345   0.84718   0.33866   0.00000  Uiso   1.00
H1943  H     0.63295   0.95061   0.62339   0.00000  Uiso   1.00
H1944  H     0.67707   0.95779   0.65188   0.00000  Uiso   1.00
H1945  H     0.67923   0.91691   0.56949   0.00000  Uiso   1.00
H1946  H     0.72143   0.91733   0.60402   0.00000  Uiso   1.00
H1947  H     0.67537   0.87603   0.65068   0.00000  Uiso   1.00
H1948  H     0.68727   0.84914   0.60582   0.00000  Uiso   1.00
H1949  H     0.63644   0.87266   0.61250   0.00000  Uiso   1.00
H1950  H     0.83552   0.59849   0.88980   0.00000  Uiso   1.00
H1951  H     0.82239   0.56178   0.85439   0.00000  Uiso   1.00
H1952  H     0.84703   0.53909   0.93929   0.00000  Uiso   1.00
H1953  H     0.63564   0.84159   0.38136   0.00000  Uiso   1.00
H1954  H     0.83913   0.50246   0.90020   0.00000  Uiso   1.00
H1955  H     0.89853   0.53515   0.86334   0.00000  Uiso   1.00
H1956  H     0.91453   0.51593   0.91033   0.00000  Uiso   1.00
H1957  H     0.90695   0.57144   0.90305   0.00000  Uiso   1.00
H1958  H     0.67661   0.90163   0.07488   0.00000  Uiso   1.00
H1959  H     0.66694   0.95499   0.08845   0.00000  Uiso   1.00
H1960  H     0.66380   0.93719   0.15697   0.00000  Uiso   1.00
H1961  H     0.62727   0.90658   0.13023   0.00000  Uiso   1.00
H1962  H     0.65852   0.85927   0.17562   0.00000  Uiso   1.00
H1963  H     0.71078   0.87805   0.16566   0.00000  Uiso   1.00
H1964  H     0.60117   0.88613   0.37687   0.00000  Uiso   1.00
H1965  H     0.68267   0.84693   0.13001   0.00000  Uiso   1.00
H1966  H     0.93421   0.86457   0.89959   0.00000  Uiso   1.00
H1967  H     0.96387   0.84540   0.86079   0.00000  Uiso   1.00
H1968  H     0.99472   0.85007   0.94624   0.00000  Uiso   1.00
H1969  H     0.52595   0.83382   0.90506   0.00000  Uiso   1.00
H1970  H     0.51646   0.90428   0.87474   0.00000  Uiso   1.00
H1971  H     0.54036   0.90749   0.92209   0.00000  Uiso   1.00
H1972  H     0.98561   0.92071   0.91638   0.00000  Uiso   1.00
H1973  H     0.60879   0.81918   0.10473   0.00000  Uiso   1.00
H1974  H     0.56375   0.81653   0.13460   0.00000  Uiso   1.00
H1975  H     0.93771   0.64587   0.58501   0.00000  Uiso   1.00
H1976  H     0.55939   0.82750   0.04481   0.00000  Uiso   1.00
H1977  H     0.51704   0.83328   0.07915   0.00000  Uiso   1.00
H1978  H     0.55590   0.89385   0.10943   0.00000  Uiso   1.00
H1979  H     0.54225   0.90196   0.05920   0.00000  Uiso   1.00
H1980  H     0.59551   0.88878   0.07138   0.00000  Uiso   1.00
H1981  H     0.77849   0.87922   0.89802   0.00000  Uiso   1.00
H1982  H     0.79758   0.92834   0.87983   0.00000  Uiso   1.00
H1983  H     0.75159   0.92112   0.82105   0.00000  Uiso   1.00
H1984  H     0.79013   0.88051   0.82600   0.00000  Uiso   1.00
H1985  H     0.72119   0.85190   0.80536   0.00000  Uiso   1.00
H1986  H     0.92950   0.69393   0.61137   0.00000  Uiso   1.00
H1987  H     0.69631   0.87271   0.84825   0.00000  Uiso   1.00
H1988  H     0.73569   0.83175   0.85233   0.00000  Uiso   1.00
H1989  H     0.81924   0.58986   0.07602   0.00000  Uiso   1.00
H1990  H     0.82271   0.55743   0.11901   0.00000  Uiso   1.00
H1991  H     0.79438   0.61831   0.15878   0.00000  Uiso   1.00
H1992  H     0.84538   0.62648   0.13783   0.00000  Uiso   1.00
H1993  H     0.81269   0.66726   0.08289   0.00000  Uiso   1.00
H1994  H     0.80188   0.69001   0.12980   0.00000  Uiso   1.00
H1995  H     0.76159   0.66035   0.10541   0.00000  Uiso   1.00
H1996  H     0.54157   0.64712   0.86773   0.00000  Uiso   1.00
O1997  O     0.75000   0.50000   0.25000   0.00000  Uiso   1.00
O1998  O     0.75000   0.96539   0.66251   0.00000  Uiso   1.00
O1999  O     0.96538   0.75000   0.33749   0.00000  Uiso   1.00
O2000  O     0.53461   0.75000   0.66251   0.00000  Uiso   1.00
O2001  O     0.50000   0.71538   0.83749   0.00000  Uiso   1.00
O2002  O     0.50000   0.78461   0.16251   0.00000  Uiso   1.00
O2003  O     0.78461   0.50000   0.83749   0.00000  Uiso   1.00
O2004  O     0.71538   0.50000   0.16251   0.00000  Uiso   1.00
O2005  O     0.50000   0.78461   0.83749   0.00000  Uiso   1.00
O2006  O     0.50000   0.71538   0.16251   0.00000  Uiso   1.00
O2007  O     0.71538   0.50000   0.83749   0.00000  Uiso   1.00
O2008  O     0.75000   0.50000   0.75000   0.00000  Uiso   1.00
O2009  O     0.78461   0.50000   0.16251   0.00000  Uiso   1.00
O2010  O     0.70126   0.58332   0.27298   0.00000  Uiso   1.00
O2011  O     0.79873   0.91668   0.72702   0.00000  Uiso   1.00
O2012  O     0.91668   0.70127   0.27298   0.00000  Uiso   1.00
O2013  O     0.58332   0.79873   0.72702   0.00000  Uiso   1.00
O2014  O     0.79873   0.91668   0.27298   0.00000  Uiso   1.00
O2015  O     0.70126   0.58332   0.72702   0.00000  Uiso   1.00
O2016  O     0.58332   0.79873   0.27298   0.00000  Uiso   1.00
O2017  O     0.91668   0.70127   0.72702   0.00000  Uiso   1.00
O2018  O     0.70126   0.91668   0.72702   0.00000  Uiso   1.00
O2019  O     0.50000   0.75000   0.25000   0.00000  Uiso   1.00
O2020  O     0.79873   0.58332   0.27298   0.00000  Uiso   1.00
O2021  O     0.91668   0.79874   0.72702   0.00000  Uiso   1.00
O2022  O     0.58332   0.70127   0.27298   0.00000  Uiso   1.00
O2023  O     0.79873   0.58332   0.72702   0.00000  Uiso   1.00
O2024  O     0.70126   0.91668   0.27298   0.00000  Uiso   1.00
O2025  O     0.58332   0.70127   0.72702   0.00000  Uiso   1.00
O2026  O     0.91668   0.79874   0.27298   0.00000  Uiso   1.00
O2027  O     0.95126   0.83332   0.77298   0.00000  Uiso   1.00
O2028  O     0.54873   0.66668   0.22702   0.00000  Uiso   1.00
O2029  O     0.66668   0.95127   0.77298   0.00000  Uiso   1.00
O2030  O     0.50000   0.75000   0.75000   0.00000  Uiso   1.00
O2031  O     0.83332   0.54874   0.22702   0.00000  Uiso   1.00
O2032  O     0.54873   0.66668   0.77298   0.00000  Uiso   1.00
O2033  O     0.95126   0.83332   0.22702   0.00000  Uiso   1.00
O2034  O     0.83332   0.54874   0.77298   0.00000  Uiso   1.00
O2035  O     0.66668   0.95127   0.22702   0.00000  Uiso   1.00
O2036  O     0.95126   0.66668   0.22702   0.00000  Uiso   1.00
O2037  O     0.54873   0.83332   0.77298   0.00000  Uiso   1.00
O2038  O     0.66668   0.54874   0.22702   0.00000  Uiso   1.00
O2039  O     0.83332   0.95127   0.77298   0.00000  Uiso   1.00
O2040  O     0.54873   0.83332   0.22702   0.00000  Uiso   1.00
O2041  O     0.75000   0.96539   0.33749   0.00000  Uiso   1.00
O2042  O     0.95126   0.66668   0.77298   0.00000  Uiso   1.00
O2043  O     0.83332   0.95127   0.22702   0.00000  Uiso   1.00
O2044  O     0.66668   0.54874   0.77298   0.00000  Uiso   1.00
O2045  O     0.99049   0.82917   0.39894   0.00000  Uiso   1.00
O2046  O     0.99262   0.67458   0.60310   0.00000  Uiso   1.00
O2047  O     0.68730   0.53766   0.40085   0.00000  Uiso   1.00
O2048  O     0.82566   0.50458   0.60105   0.00000  Uiso   1.00
O2049  O     0.51811   0.68021   0.39796   0.00000  Uiso   1.00
O2050  O     0.50820   0.82449   0.60269   0.00000  Uiso   1.00
O2051  O     0.82282   0.96530   0.39933   0.00000  Uiso   1.00
O2052  O     0.75000   0.53462   0.66251   0.00000  Uiso   1.00
O2053  O     0.67319   0.99518   0.60214   0.00000  Uiso   1.00
O2054  O     0.77800   0.57047   0.89815   0.00000  Uiso   1.00
O2055  O     0.72660   0.92950   0.10336   0.00000  Uiso   1.00
O2056  O     0.94127   0.80037   0.89931   0.00000  Uiso   1.00
O2057  O     0.57451   0.76492   0.09882   0.00000  Uiso   1.00
O2058  O     0.73320   0.92568   0.89737   0.00000  Uiso   1.00
O2059  O     0.76219   0.57496   0.10266   0.00000  Uiso   1.00
O2060  O     0.55522   0.69888   0.90106   0.00000  Uiso   1.00
O2061  O     0.92377   0.74263   0.10051   0.00000  Uiso   1.00
O2062  O     0.99593   0.63705   0.45944   0.00000  Uiso   1.00
O2063  O     0.53461   0.75000   0.33749   0.00000  Uiso   1.00
O2064  O     0.96585   0.85907   0.54503   0.00000  Uiso   1.00
O2065  O     0.85579   0.94811   0.46647   0.00000  Uiso   1.00
O2066  O     0.63611   0.51410   0.53850   0.00000  Uiso   1.00
O2067  O     0.96968   0.86529   0.46629   0.00000  Uiso   1.00
O2068  O     0.50721   0.63556   0.53733   0.00000  Uiso   1.00
O2069  O     0.63964   0.99503   0.45538   0.00000  Uiso   1.00
O2070  O     0.86266   0.97687   0.54080   0.00000  Uiso   1.00
O2071  O     0.73485   0.88490   0.96318   0.00000  Uiso   1.00
O2072  O     0.74223   0.61446   0.03628   0.00000  Uiso   1.00
O2073  O     0.60925   0.72929   0.95550   0.00000  Uiso   1.00
O2074  O     0.96538   0.75000   0.66251   0.00000  Uiso   1.00
O2075  O     0.88911   0.78143   0.04091   0.00000  Uiso   1.00
O2076  O     0.76454   0.61330   0.95985   0.00000  Uiso   1.00
O2077  O     0.75332   0.88678   0.04174   0.00000  Uiso   1.00
O2078  O     0.89494   0.79959   0.96195   0.00000  Uiso   1.00
O2079  O     0.61246   0.73125   0.03880   0.00000  Uiso   1.00
O2080  O     0.75000   0.53462   0.33749   0.00000  Uiso   1.00
Zn2081 Zn    0.70052   0.50000   0.21730   0.00000  Uiso   1.00
Zn2082 Zn    0.54947   0.75000   0.28270   0.00000  Uiso   1.00
Zn2083 Zn    0.75000   0.95053   0.71730   0.00000  Uiso   1.00
Zn2084 Zn    0.75000   0.54948   0.28270   0.00000  Uiso   1.00
Zn2085 Zn    0.54947   0.75000   0.71730   0.00000  Uiso   1.00
Zn2086 Zn    0.95052   0.75000   0.28270   0.00000  Uiso   1.00
Zn2087 Zn    0.75000   0.54948   0.71730   0.00000  Uiso   1.00
Zn2088 Zn    0.75000   0.95053   0.28270   0.00000  Uiso   1.00
Zn2089 Zn    0.79947   0.50000   0.78270   0.00000  Uiso   1.00
Zn2090 Zn    0.50000   0.70052   0.21730   0.00000  Uiso   1.00
Zn2091 Zn    0.50000   0.79947   0.78270   0.00000  Uiso   1.00
Zn2092 Zn    0.79947   0.50000   0.21730   0.00000  Uiso   1.00
Zn2093 Zn    0.70052   0.50000   0.78270   0.00000  Uiso   1.00
Zn2094 Zn    0.50000   0.79948   0.21730   0.00000  Uiso   1.00
Zn2095 Zn    0.50000   0.70052   0.78270   0.00000  Uiso   1.00
Zn2096 Zn    0.95052   0.75000   0.71730   0.00000  Uiso   1.00
loop_
_geom_bond_atom_site_label_1
_geom_bond_atom_site_label_2
_geom_bond_distance
_geom_bond_site_symmetry_2
_ccdc_geom_bond_type
C1     O469    1.266   .     A
C1     C156    1.463   .     S
C1     O1556   1.282   .     S
C2     C132    1.428   .     S
C2     O439    1.278   .     A
C2     O467    1.278   .     A
C3     C175    1.417   .     A
C3     O503    1.385   .     S
C3     C6      1.414   1_554 S
C4     O504    1.385   .     S
C4     C176    1.417   .     A
C4     C199    1.402   1_556 S
C5     O505    1.388   .     S
C5     C177    1.404   .     A
C5     C198    1.405   1_554 S
C6     C178    1.417   .     A
C6     O506    1.387   .     S
C6     C3      1.414   1_556 S
C7     C180    1.421   .     A
C7     O507    1.384   .     S
C7     C200    1.422   1_554 S
C8     H201    1.111   .     S
C8     H312    1.108   .     S
C8     C9      1.555   .     S
C8     O997    1.430   1_455 S
C9     C10     1.526   .     S
C9     H359    1.108   .     S
C9     H348    1.108   .     S
C10    H392    1.111   .     S
C10    H381    1.110   .     S
C10    H370    1.110   .     S
C11    H403    1.111   .     S
C11    H414    1.117   .     S
C11    O474    1.415   .     S
C11    C12     1.531   .     S
C12    H202    1.111   .     S
C12    H213    1.111   .     S
C12    C14     1.525   .     S
C13    O464    1.275   .     A
C13    O440    1.277   .     A
C13    C131    1.424   .     S
C14    H235    1.111   .     S
C14    H224    1.110   .     S
C14    H246    1.108   .     S
C15    O475    1.426   .     S
C15    H257    1.111   .     S
C15    H268    1.117   .     S
C15    C16     1.532   .     S
C16    H290    1.110   .     S
C16    C17     1.526   .     S
C16    H279    1.109   .     S
C17    H324    1.111   .     S
C17    H313    1.111   .     S
C17    H301    1.111   .     S
C18    H341    1.107   .     S
C18    C19     1.550   .     S
C18    O476    1.427   .     S
C18    H335    1.109   .     S
C19    C20     1.524   .     S
C19    H343    1.111   .     S
C19    H342    1.109   .     S
C20    H345    1.108   .     S
C20    H344    1.110   .     S
C20    H346    1.111   .     S
C21    C22     1.529   .     S
C21    O477    1.418   .     S
C21    H347    1.111   .     S
C21    H349    1.118   .     S
C22    C23     1.522   .     S
C22    H351    1.112   .     S
C22    H350    1.107   .     S
C23    H354    1.111   .     S
C23    H352    1.108   .     S
C23    H353    1.110   .     S
C24    C130    1.424   .     S
C24    O441    1.277   .     A
C24    O465    1.275   .     A
C25    C26     1.533   .     S
C25    H356    1.118   .     S
C25    O478    1.416   .     S
C25    H355    1.109   .     S
C26    H357    1.109   .     S
C26    H358    1.111   .     S
C26    C27     1.520   .     S
C27    H361    1.110   .     S
C27    H360    1.105   .     S
C27    H362    1.106   .     S
C28    H363    1.110   .     S
C28    O479    1.432   .     S
C28    C29     1.561   .     S
C28    H364    1.105   .     S
C29    H366    1.109   .     S
C29    C30     1.526   .     S
C29    H365    1.102   .     S
C30    H367    1.106   .     S
C30    H369    1.111   .     S
C30    H368    1.111   .     S
C31    C32     1.552   .     S
C31    O481    1.429   .     S
C31    H372    1.105   .     S
C31    H371    1.105   .     S
C32    H374    1.110   .     S
C32    C33     1.524   .     S
C32    H373    1.110   .     S
C33    H377    1.108   .     S
C33    H375    1.111   .     S
C33    H376    1.110   .     S
C34    H379    1.107   .     S
C34    H378    1.107   .     S
C34    C36     1.553   .     S
C34    O482    1.432   .     S
C35    C129    1.427   .     S
C35    O442    1.275   .     A
C35    O471    1.276   .     A
C36    C37     1.526   .     S
C36    H380    1.110   .     S
C36    H382    1.111   .     S
C37    H384    1.111   .     S
C37    H383    1.111   .     S
C37    H385    1.111   .     S
C38    O483    1.419   .     S
C38    H386    1.108   .     S
C38    C39     1.530   .     S
C38    H387    1.119   .     S
C39    C40     1.526   .     S
C39    H389    1.106   .     S
C39    H388    1.105   .     S
C40    H393    1.107   .     S
C40    H391    1.110   .     S
C40    H390    1.108   .     S
C41    H395    1.108   .     S
C41    C42     1.553   .     S
C41    H394    1.106   .     S
C41    O484    1.434   .     S
C42    H396    1.110   .     S
C42    C567    1.526   .     S
C42    H921    1.111   .     S
C43    H398    1.111   .     S
C43    H399    1.111   .     S
C43    C566    1.526   1_455 S
C43    H924    1.111   1_455 S
C44    H402    1.108   .     S
C44    H401    1.110   .     S
C44    C45     1.557   .     S
C44    O485    1.433   .     S
C45    C47     1.522   .     S
C45    H405    1.111   .     S
C45    H404    1.109   .     S
C46    O443    1.275   .     A
C46    O472    1.276   .     A
C46    C128    1.427   .     S
C47    H407    1.110   .     S
C47    H406    1.111   .     S
C47    H408    1.110   .     S
C48    H410    1.116   .     S
C48    O486    1.421   .     S
C48    H409    1.111   .     S
C48    C49     1.534   .     S
C49    H412    1.112   .     S
C49    C50     1.525   .     S
C49    H411    1.110   .     S
C50    H415    1.111   .     S
C50    H413    1.110   .     S
C50    H416    1.110   .     S
C51    H417    1.114   .     S
C51    C52     1.530   .     S
C51    H418    1.114   .     S
C51    O487    1.410   .     S
C52    H420    1.110   .     S
C52    C53     1.528   .     S
C52    H419    1.112   .     S
C53    H421    1.111   .     S
C53    H423    1.110   .     S
C53    H422    1.110   .     S
C54    H424    1.111   .     S
C54    C55     1.531   .     S
C54    O488    1.424   .     S
C54    H727    1.118   1_455 S
C55    C56     1.527   .     S
C55    H204    1.110   .     S
C55    H205    1.111   .     S
C56    H207    1.110   .     S
C56    H208    1.111   .     S
C56    H730    1.111   1_455 S
C57    O444    1.278   .     A
C57    O468    1.278   .     A
C57    C136    1.425   .     S
C58    H209    1.109   .     S
C58    C59     1.554   .     S
C58    O489    1.429   .     S
C58    H210    1.108   .     S
C59    C60     1.523   .     S
C59    H211    1.109   .     S
C59    H212    1.111   .     S
C60    H214    1.111   .     S
C60    H216    1.107   .     S
C60    H215    1.110   .     S
C61    H217    1.111   .     S
C61    O490    1.421   .     S
C61    C62     1.528   .     S
C61    H218    1.117   .     S
C62    H219    1.109   .     S
C62    C63     1.527   .     S
C62    H220    1.111   .     S
C63    H222    1.110   .     S
C63    H223    1.111   .     S
C63    H221    1.111   .     S
C64    H225    1.107   .     S
C64    O492    1.420   .     S
C64    C65     1.529   .     S
C64    H226    1.104   .     S
C65    H227    1.106   .     S
C65    H228    1.111   .     S
C65    C66     1.524   .     S
C66    H231    1.109   .     S
C66    H229    1.111   .     S
C66    H230    1.110   .     S
C67    H232    1.108   .     S
C67    C69     1.515   .     S
C67    H233    1.113   .     S
C67    O493    1.419   .     S
C68    C134    1.424   .     S
C68    O445    1.278   .     A
C68    O470    1.278   .     A
C69    H236    1.110   .     S
C69    C70     1.532   .     S
C69    H234    1.108   .     S
C70    H237    1.111   .     S
C70    H238    1.108   .     S
C70    H239    1.111   .     S
C71    C72     1.542   .     S
C71    H241    1.107   .     S
C71    H240    1.101   .     S
C71    O1542   1.412   .     S
C72    C73     1.524   .     S
C72    H243    1.109   .     S
C72    H1290   1.112   .     S
C73    H245    1.107   .     S
C73    H247    1.108   .     S
C73    H244    1.108   .     S
C74    H249    1.092   .     S
C74    C75     1.537   .     S
C74    H772    1.111   1_455 S
C74    O1019   1.422   1_455 S
C75    H250    1.107   .     S
C75    H251    1.104   .     S
C75    C76     1.535   .     S
C76    H252    1.105   .     S
C76    H254    1.111   .     S
C76    H253    1.106   .     S
C77    H256    1.115   .     S
C77    H255    1.111   .     S
C77    C78     1.527   .     S
C77    O496    1.419   .     S
C78    H259    1.110   .     S
C78    C80     1.526   .     S
C78    H258    1.105   .     S
C79    C125    1.424   .     S
C79    O446    1.275   .     A
C79    O457    1.277   .     A
C80    H262    1.110   .     S
C80    H260    1.111   .     S
C80    H261    1.108   .     S
C81    H263    1.101   .     S
C81    C82     1.531   .     S
C81    H264    1.096   .     S
C81    O1545   1.409   1_545 S
C82    H265    1.111   .     S
C82    C83     1.527   .     S
C82    H1314   1.111   1_545 S
C83    H270    1.108   .     S
C83    H269    1.110   .     S
C83    H267    1.110   .     S
C84    H272    1.112   .     S
C84    H271    1.113   .     S
C84    C85     1.530   .     S
C84    O1546   1.415   1_545 S
C85    C86     1.526   .     S
C85    H273    1.110   .     S
C85    H1322   1.111   1_545 S
C86    H275    1.109   .     S
C86    H277    1.108   .     S
C86    H276    1.107   .     S
C87    H280    1.114   .     S
C87    H278    1.116   .     S
C87    C88     1.527   .     S
C87    O499    1.414   .     S
C88    H282    1.111   .     S
C88    C89     1.527   .     S
C88    H281    1.108   .     S
C89    H285    1.111   .     S
C89    H284    1.109   .     S
C89    H283    1.110   .     S
C90    C123    1.424   .     S
C90    O459    1.277   .     A
C90    O448    1.276   .     A
C91    H287    1.109   .     S
C91    O500    1.426   .     S
C91    C92     1.542   .     S
C91    H286    1.111   .     S
C92    C93     1.527   .     S
C92    H289    1.111   .     S
C92    H288    1.106   1_554 S
C93    H293    1.110   .     S
C93    H292    1.111   .     S
C93    H291    1.111   .     S
C94    H295    1.105   .     S
C94    O501    1.411   .     S
C94    H294    1.105   .     S
C94    C95     1.532   .     S
C95    H297    1.110   .     S
C95    H296    1.112   .     S
C95    C96     1.526   .     S
C96    H299    1.110   .     S
C96    H298    1.111   .     S
C96    H300    1.110   .     S
C97    H303    1.114   .     S
C97    C98     1.534   .     S
C97    H302    1.111   .     S
C97    O503    1.417   .     S
C98    H304    1.107   .     S
C98    C99     1.526   .     S
C98    H305    1.107   1_554 S
C99    H308    1.109   .     S
C99    H306    1.106   .     S
C99    H307    1.110   1_554 S
C100   O504    1.415   .     S
C100   H310    1.111   .     S
C100   H309    1.112   .     S
C100   C102    1.531   .     S
C101   C122    1.428   .     S
C101   O455    1.278   .     A
C101   O449    1.278   .     A
C102   H314    1.109   .     S
C102   H311    1.110   .     S
C102   C103    1.529   .     S
C103   H317    1.111   .     S
C103   H315    1.109   .     S
C103   H316    1.110   .     S
C104   C105    1.531   .     S
C104   O505    1.419   .     S
C104   H319    1.105   .     S
C104   H318    1.117   .     S
C105   H321    1.111   .     S
C105   H320    1.106   .     S
C105   C106    1.523   .     S
C106   H322    1.111   .     S
C106   H323    1.110   .     S
C106   H325    1.105   .     S
C107   O506    1.416   .     S
C107   C108    1.531   .     S
C107   H326    1.113   .     S
C107   H327    1.111   1_556 S
C108   C109    1.529   .     S
C108   H328    1.110   .     S
C108   H329    1.110   .     S
C109   H331    1.107   .     S
C109   H330    1.110   .     S
C109   H332    1.111   .     S
C110   H333    1.111   .     S
C110   C111    1.523   .     S
C110   O507    1.413   .     S
C110   H334    1.108   .     S
C111   H337    1.111   .     S
C111   H336    1.111   .     S
C111   C114    1.520   .     S
C112   C158    1.457   .     S
C112   O480    1.271   .     A
C112   O1474   1.273   1_545 S
C113   O456    1.278   .     A
C113   C121    1.428   .     S
C113   O450    1.278   .     A
C114   H339    1.110   .     S
C114   H340    1.108   .     S
C114   H338    1.107   .     S
C115   O462    1.278   .     A
C115   C120    1.425   .     S
C115   O451    1.278   .     A
C116   O452    1.278   .     A
C116   O463    1.278   .     A
C116   C119    1.425   .     S
C117   O453    1.276   .     A
C117   C127    1.427   .     S
C117   O460    1.275   .     A
C118   O454    1.276   .     A
C118   O461    1.275   .     A
C118   C126    1.427   .     S
C119   C136    1.200   .     T
C120   C134    1.200   .     T
C121   C133    1.201   .     T
C122   C132    1.201   .     T
C123   C131    1.199   .     T
C124   O427    1.273   .     A
C124   C154    1.467   .     S
C124   O1015   1.273   .     S
C125   C130    1.199   .     T
C126   C129    1.201   .     T
C127   C128    1.201   .     T
C133   C190    1.428   .     S
C135   O428    1.267   .     A
C135   C155    1.449   .     S
C135   O1026   1.270   1_455 S
C137   O473    1.391   .     S
C137   C167    1.429   .     A
C137   C154    1.420   .     A
C138   O474    1.384   .     S
C138   C169    1.415   .     A
C138   C679    1.399   .     S
C139   C170    1.404   .     A
C139   O475    1.390   .     S
C139   C1204   1.410   1_545 S
C140   C1219   1.408   1_545 A
C140   C158    1.404   .     S
C140   O476    1.389   .     S
C141   O477    1.386   .     S
C141   C678    1.396   1_455 S
C141   C687    1.405   1_455 S
C142   O478    1.389   .     S
C142   C155    1.394   .     A
C142   C688    1.405   1_455 S
C143   O479    1.397   .     S
C143   C165    1.422   .     A
C143   C156    1.424   .     A
C144   O481    1.390   .     S
C144   C166    1.419   .     A
C144   C1206   1.411   .     S
C145   C176    1.409   .     A
C145   O482    1.389   .     S
C145   C1207   1.404   1_545 S
C146   C161    1.465   .     S
C146   O953    1.277   .     S
C146   O957    1.273   .     S
C147   C177    1.408   .     A
C147   O483    1.385   .     S
C147   C1208   1.394   .     S
C148   C178    1.414   .     A
C148   C161    1.413   .     A
C148   O484    1.387   .     S
C149   C180    1.413   .     A
C149   O485    1.385   .     S
C149   C686    1.407   1_455 S
C150   C172    1.419   .     A
C150   C159    1.409   .     A
C150   O486    1.389   .     S
C151   C173    1.413   .     A
C151   O487    1.384   .     S
C151   C160    1.398   .     A
C152   O488    1.387   .     S
C152   C174    1.403   .     A
C152   C685    1.409   1_455 S
C153   C175    1.411   .     A
C153   O489    1.385   .     S
C153   C162    1.407   .     A
C154   C665    1.396   .     S
C155   C662    1.399   1_455 S
C156   C1187   1.410   .     S
C157   O434    1.275   .     A
C157   O430    1.273   .     A
C157   C686    1.463   1_455 S
C158   C1192   1.411   1_545 S
C159   C1193   1.404   .     S
C159   C1216   1.460   .     S
C160   C179    1.452   .     S
C160   C1195   1.394   1_545 S
C161   C676    1.409   .     S
C162   C681    1.463   .     S
C162   C673    1.407   .     S
C163   C181    1.417   .     A
C163   C189    1.418   .     A
C163   C665    1.405   .     S
C164   C191    1.403   .     A
C164   C182    1.408   .     A
C164   C666    1.405   .     S
C165   C183    1.417   .     A
C165   C192    1.419   .     A
C166   C184    1.419   .     A
C166   C1241   1.426   .     S
C167   C194    1.438   .     A
C167   C181    1.429   .     A
C168   C1207   1.460   1_545 S
C168   O431    1.266   .     S
C168   O435    1.277   .     S
C169   C182    1.419   .     A
C169   C719    1.412   .     S
C170   C196    1.409   .     A
C170   C1231   1.404   1_545 S
C171   C1188   1.408   .     A
C171   C184    1.418   .     A
C171   C197    1.415   .     A
C172   C198    1.422   .     A
C172   C185    1.424   .     A
C173   C199    1.409   .     A
C173   C186    1.417   .     S
C174   C200    1.412   .     A
C174   C711    1.409   1_455 S
C175   C188    1.413   .     A
C176   C1233   1.418   1_545 S
C177   C1234   1.411   .     A
C178   C187    1.415   .     A
C179   O437    1.271   .     A
C179   O432    1.268   .     A
C180   C712    1.413   1_455 S
C181   C182    1.413   .     A
C183   C184    1.408   .     A
C183   C1218   1.404   .     S
C185   C1224   1.418   .     S
C185   C1234   1.413   1_556 S
C186   C1225   1.411   1_545 A
C186   C1233   1.413   1_544 S
C187   C698    1.409   .     S
C187   C188    1.398   1_556 S
C188   C704    1.413   .     S
C188   C187    1.398   1_554 S
C189   O490    1.387   .     S
C189   C719    1.398   .     S
C190   O466    1.279   .     A
C190   O438    1.278   .     A
C191   C194    1.412   .     A
C191   O492    1.391   .     S
C192   O493    1.384   .     S
C192   C197    1.402   .     A
C193   O494    1.385   .     S
C193   C196    1.425   .     A
C193   C1214   1.426   1_545 S
C194   O495    1.388   .     S
C195   O496    1.385   .     S
C195   C693    1.412   1_455 S
C195   C713    1.398   1_455 S
C196   O1545   1.391   1_545 S
C197   O498    1.387   .     S
C198   O499    1.382   .     S
C198   C5      1.405   1_556 S
C199   O500    1.388   .     S
C199   C4      1.402   1_554 S
C200   O501    1.390   .     S
C200   C7      1.422   1_556 S
H203   C578    1.118   .     S
H206   C580    1.111   .     S
H242   C1120   1.112   1_545 S
H248   C598    1.111   .     S
H266   C1130   1.111   .     S
H274   C1133   1.111   .     S
H288   C92     1.106   1_556 S
H305   C98     1.107   1_556 S
H307   C99     1.110   1_556 S
H327   C107    1.111   1_554 S
H397   C566    1.111   1_455 S
H400   C567    1.111   .     S
O425   Zn512   1.939   .     S
O425   Zn509   1.939   .     S
O425   Zn1564  1.937   1_545 S
O425   Zn520   1.932   .     S
O426   Zn511   1.945   .     S
O426   C1160   1.273   .     S
O427   Zn514   1.947   .     S
O428   Zn513   1.947   .     S
O429   Zn523   1.946   .     S
O429   C670    1.277   1_455 S
O430   Zn522   1.946   .     S
O431   Zn517   1.943   .     S
O432   Zn509   1.943   .     S
O433   Zn519   1.945   .     S
O433   C670    1.273   1_455 S
O434   Zn518   1.945   .     S
O435   Zn521   1.947   .     S
O436   Zn515   1.937   .     S
O436   Zn517   1.939   .     S
O436   Zn521   1.932   .     S
O436   Zn1559  1.939   1_545 S
O437   Zn520   1.947   .     S
O438   Zn512   1.922   .     S
O439   Zn511   1.922   .     S
O440   Zn514   1.919   .     S
O441   Zn513   1.919   .     S
O442   Zn516   1.920   .     S
O443   Zn515   1.920   .     S
O444   Zn510   1.917   .     S
O445   Zn524   1.917   .     S
O446   Zn511   1.916   .     S
O447   Zn518   1.939   .     S
O447   Zn510   1.939   .     S
O447   Zn1038  1.932   1_455 S
O447   Zn522   1.937   .     S
O448   Zn512   1.916   .     S
O449   Zn524   1.921   .     S
O450   Zn510   1.921   .     S
O451   Zn515   1.918   .     S
O452   Zn516   1.918   .     S
O453   Zn513   1.922   .     S
O454   Zn514   1.922   .     S
O455   Zn1043  1.922   .     S
O456   Zn518   1.922   .     S
O457   Zn1569  1.919   .     S
O458   Zn519   1.939   .     S
O458   Zn523   1.937   .     S
O458   Zn513   1.932   .     S
O458   Zn1048  1.939   1_455 S
O459   Zn520   1.919   .     S
O460   Zn523   1.920   .     S
O461   Zn1046  1.920   .     S
O462   Zn517   1.917   .     S
O463   Zn1557  1.917   .     S
O464   Zn1042  1.916   .     S
O465   Zn519   1.916   .     S
O466   Zn509   1.921   .     S
O467   Zn1565  1.921   .     S
O468   Zn522   1.918   .     S
O469   Zn516   1.946   .     S
O470   Zn1047  1.918   .     S
O471   Zn1568  1.922   .     S
O472   Zn521   1.922   .     S
O473   C532    1.430   .     S
O480   Zn515   1.946   .     S
O491   Zn510   1.943   .     S
O491   C648    1.273   1_455 S
O494   C1119   1.412   1_545 S
O495   C598    1.422   .     S
O497   C1244   1.391   .     S
O497   C1129   1.409   .     S
O498   C1132   1.415   .     S
O502   Zn524   1.943   .     S
O502   C659    1.270   .     S
O508   Zn512   1.945   .     S
O508   C1049   1.282   1_545 S
Zn509  O1511   1.917   1_545 S
Zn511  O1484   1.939   .     S
Zn514  O971    1.932   .     S
Zn516  O1473   1.937   .     S
Zn517  O1515   1.921   1_545 S
Zn518  O988    1.916   1_455 S
Zn519  O979    1.922   1_455 S
Zn520  O1519   1.922   1_545 S
Zn521  O1505   1.919   1_545 S
Zn522  O985    1.920   1_455 S
Zn523  O994    1.918   1_455 S
Zn524  O982    1.939   .     S
C525   O993    1.266   .     A
C525   C680    1.463   .     S
C525   O2080   1.282   .     S
C526   C656    1.428   .     S
C526   O963    1.278   .     A
C526   O991    1.278   .     A
C527   C699    1.417   .     A
C527   O1027   1.385   .     S
C527   C530    1.414   1_554 S
C528   O1028   1.385   .     S
C528   C700    1.417   .     A
C528   C723    1.402   1_556 S
C529   O1029   1.388   .     S
C529   C701    1.404   .     A
C529   C722    1.405   1_554 S
C530   C702    1.417   .     A
C530   O1030   1.387   .     S
C530   C527    1.414   1_556 S
C531   C704    1.421   .     A
C531   O1031   1.384   .     S
C531   C724    1.422   1_554 S
C532   H725    1.111   .     S
C532   H836    1.108   .     S
C532   C533    1.555   .     S
C533   C534    1.526   .     S
C533   H883    1.108   .     S
C533   H872    1.108   .     S
C534   H916    1.111   .     S
C534   H905    1.110   .     S
C534   H894    1.110   .     S
C535   H927    1.111   .     S
C535   H938    1.117   .     S
C535   O998    1.415   .     S
C535   C536    1.531   .     S
C536   H726    1.111   .     S
C536   H737    1.111   .     S
C536   C538    1.525   .     S
C537   O988    1.275   .     A
C537   O964    1.277   .     A
C537   C655    1.424   .     S
C538   H759    1.111   .     S
C538   H748    1.110   .     S
C538   H770    1.108   .     S
C539   O999    1.426   .     S
C539   H781    1.111   .     S
C539   H792    1.117   .     S
C539   C540    1.532   .     S
C540   H814    1.110   .     S
C540   C541    1.526   .     S
C540   H803    1.109   .     S
C541   H848    1.111   .     S
C541   H837    1.111   .     S
C541   H825    1.111   .     S
C542   H865    1.107   .     S
C542   C543    1.550   .     S
C542   O1000   1.427   .     S
C542   H859    1.109   .     S
C543   C544    1.524   .     S
C543   H867    1.111   .     S
C543   H866    1.109   .     S
C544   H869    1.108   .     S
C544   H868    1.110   .     S
C544   H870    1.111   .     S
C545   C546    1.529   .     S
C545   O1001   1.418   .     S
C545   H871    1.111   .     S
C545   H873    1.118   .     S
C546   C547    1.522   .     S
C546   H875    1.112   .     S
C546   H874    1.107   .     S
C547   H878    1.111   .     S
C547   H876    1.108   .     S
C547   H877    1.110   .     S
C548   C654    1.424   .     S
C548   O965    1.277   .     A
C548   O989    1.275   .     A
C549   C550    1.533   .     S
C549   H880    1.118   .     S
C549   O1002   1.416   .     S
C549   H879    1.109   .     S
C550   H881    1.109   .     S
C550   H882    1.111   .     S
C550   C551    1.520   .     S
C551   H885    1.110   .     S
C551   H884    1.105   .     S
C551   H886    1.106   .     S
C552   H887    1.110   .     S
C552   O1003   1.432   .     S
C552   C553    1.561   .     S
C552   H888    1.105   .     S
C553   H890    1.109   .     S
C553   C554    1.526   .     S
C553   H889    1.102   .     S
C554   H891    1.106   .     S
C554   H893    1.111   .     S
C554   H892    1.111   .     S
C555   C556    1.552   .     S
C555   O1005   1.429   .     S
C555   H896    1.105   .     S
C555   H895    1.105   .     S
C556   H898    1.110   .     S
C556   C557    1.524   .     S
C556   H897    1.110   .     S
C557   H901    1.108   .     S
C557   H899    1.111   .     S
C557   H900    1.110   .     S
C558   H903    1.107   .     S
C558   H902    1.107   .     S
C558   C560    1.553   .     S
C558   O1006   1.432   .     S
C559   C653    1.427   .     S
C559   O966    1.275   .     A
C559   O995    1.276   .     A
C560   C561    1.526   .     S
C560   H904    1.110   .     S
C560   H906    1.111   .     S
C561   H908    1.111   .     S
C561   H907    1.111   .     S
C561   H909    1.111   .     S
C562   O1007   1.419   .     S
C562   H910    1.108   .     S
C562   C563    1.530   .     S
C562   H911    1.119   .     S
C563   C564    1.526   .     S
C563   H913    1.106   .     S
C563   H912    1.105   .     S
C564   H917    1.107   .     S
C564   H915    1.110   .     S
C564   H914    1.108   .     S
C565   H919    1.108   .     S
C565   C566    1.553   .     S
C565   H918    1.106   .     S
C565   O1008   1.434   .     S
C566   H920    1.110   .     S
C566   C43     1.526   1_655 S
C566   H397    1.111   1_655 S
C567   H922    1.111   .     S
C567   H923    1.111   .     S
C568   H926    1.108   .     S
C568   H925    1.110   .     S
C568   C569    1.557   .     S
C568   O1009   1.433   .     S
C569   C571    1.522   .     S
C569   H929    1.111   .     S
C569   H928    1.109   .     S
C570   O967    1.275   .     A
C570   O996    1.276   .     A
C570   C652    1.427   .     S
C571   H931    1.110   .     S
C571   H930    1.111   .     S
C571   H932    1.110   .     S
C572   H934    1.116   .     S
C572   O1010   1.421   .     S
C572   H933    1.111   .     S
C572   C573    1.534   .     S
C573   H936    1.112   .     S
C573   C574    1.525   .     S
C573   H935    1.110   .     S
C574   H939    1.111   .     S
C574   H937    1.110   .     S
C574   H940    1.110   .     S
C575   H941    1.114   .     S
C575   C576    1.530   .     S
C575   H942    1.114   .     S
C575   O1011   1.410   .     S
C576   H944    1.110   .     S
C576   C577    1.528   .     S
C576   H943    1.112   .     S
C577   H945    1.111   .     S
C577   H947    1.110   .     S
C577   H946    1.110   .     S
C578   H948    1.111   .     S
C578   C579    1.531   .     S
C578   O1012   1.424   .     S
C579   C580    1.527   .     S
C579   H728    1.110   .     S
C579   H729    1.111   .     S
C580   H731    1.110   .     S
C580   H732    1.111   .     S
C581   O968    1.278   .     A
C581   O992    1.278   .     A
C581   C660    1.425   .     S
C582   H733    1.109   .     S
C582   C583    1.554   .     S
C582   O1013   1.429   .     S
C582   H734    1.108   .     S
C583   C584    1.523   .     S
C583   H735    1.109   .     S
C583   H736    1.111   .     S
C584   H738    1.111   .     S
C584   H740    1.107   .     S
C584   H739    1.110   .     S
C585   H741    1.111   .     S
C585   O1014   1.421   .     S
C585   C586    1.528   .     S
C585   H742    1.117   .     S
C586   H743    1.109   .     S
C586   C587    1.527   .     S
C586   H744    1.111   .     S
C587   H746    1.110   .     S
C587   H747    1.111   .     S
C587   H745    1.111   .     S
C588   H749    1.107   .     S
C588   O1016   1.420   .     S
C588   C589    1.529   .     S
C588   H750    1.104   .     S
C589   H751    1.106   .     S
C589   H752    1.111   .     S
C589   C590    1.524   .     S
C590   H755    1.109   .     S
C590   H753    1.111   .     S
C590   H754    1.110   .     S
C591   H756    1.108   .     S
C591   C593    1.515   .     S
C591   H757    1.113   .     S
C591   O1017   1.419   .     S
C592   C658    1.424   .     S
C592   O969    1.278   .     A
C592   O994    1.278   .     A
C593   H760    1.110   .     S
C593   C594    1.532   .     S
C593   H758    1.108   .     S
C594   H761    1.111   .     S
C594   H762    1.108   .     S
C594   H763    1.111   .     S
C595   C596    1.542   .     S
C595   H765    1.107   .     S
C595   H764    1.101   .     S
C595   O2066   1.412   .     S
C596   C597    1.524   .     S
C596   H767    1.109   .     S
C596   H1814   1.112   .     S
C597   H769    1.107   .     S
C597   H771    1.108   .     S
C597   H768    1.108   .     S
C598   H773    1.092   .     S
C598   C599    1.537   .     S
C599   H774    1.107   .     S
C599   H775    1.104   .     S
C599   C600    1.535   .     S
C600   H776    1.105   .     S
C600   H778    1.111   .     S
C600   H777    1.106   .     S
C601   H780    1.115   .     S
C601   H779    1.111   .     S
C601   C602    1.527   .     S
C601   O1020   1.419   .     S
C602   H783    1.110   .     S
C602   C604    1.526   .     S
C602   H782    1.105   .     S
C603   C649    1.424   .     S
C603   O970    1.275   .     A
C603   O981    1.277   .     A
C604   H786    1.110   .     S
C604   H784    1.111   .     S
C604   H785    1.108   .     S
C605   H787    1.101   .     S
C605   C606    1.531   .     S
C605   H788    1.096   .     S
C605   O2069   1.409   1_545 S
C606   H789    1.111   .     S
C606   C607    1.527   .     S
C606   H1838   1.111   1_545 S
C607   H794    1.108   .     S
C607   H793    1.110   .     S
C607   H791    1.110   .     S
C608   H796    1.112   .     S
C608   H795    1.113   .     S
C608   C609    1.530   .     S
C608   O2070   1.415   1_545 S
C609   C610    1.526   .     S
C609   H797    1.110   .     S
C609   H1846   1.111   1_545 S
C610   H799    1.109   .     S
C610   H801    1.108   .     S
C610   H800    1.107   .     S
C611   H804    1.114   .     S
C611   H802    1.116   .     S
C611   C612    1.527   .     S
C611   O1023   1.414   .     S
C612   H806    1.111   .     S
C612   C613    1.527   .     S
C612   H805    1.108   .     S
C613   H809    1.111   .     S
C613   H808    1.109   .     S
C613   H807    1.110   .     S
C614   C647    1.424   .     S
C614   O983    1.277   .     A
C614   O972    1.276   .     A
C615   H811    1.109   .     S
C615   O1024   1.426   .     S
C615   C616    1.542   .     S
C615   H810    1.111   .     S
C616   C617    1.527   .     S
C616   H813    1.111   .     S
C616   H812    1.106   1_554 S
C617   H817    1.110   .     S
C617   H816    1.111   .     S
C617   H815    1.111   .     S
C618   H819    1.105   .     S
C618   O1025   1.411   .     S
C618   H818    1.105   .     S
C618   C619    1.532   .     S
C619   H821    1.110   .     S
C619   H820    1.112   .     S
C619   C620    1.526   .     S
C620   H823    1.110   .     S
C620   H822    1.111   .     S
C620   H824    1.110   .     S
C621   H827    1.114   .     S
C621   C622    1.534   .     S
C621   H826    1.111   .     S
C621   O1027   1.417   .     S
C622   H828    1.107   .     S
C622   C623    1.526   .     S
C622   H829    1.107   1_554 S
C623   H832    1.109   .     S
C623   H830    1.106   .     S
C623   H831    1.110   1_554 S
C624   O1028   1.415   .     S
C624   H834    1.111   .     S
C624   H833    1.112   .     S
C624   C626    1.531   .     S
C625   C646    1.428   .     S
C625   O979    1.278   .     A
C625   O973    1.278   .     A
C626   H838    1.109   .     S
C626   H835    1.110   .     S
C626   C627    1.529   .     S
C627   H841    1.111   .     S
C627   H839    1.109   .     S
C627   H840    1.110   .     S
C628   C629    1.531   .     S
C628   O1029   1.419   .     S
C628   H843    1.105   .     S
C628   H842    1.117   .     S
C629   H845    1.111   .     S
C629   H844    1.106   .     S
C629   C630    1.523   .     S
C630   H846    1.111   .     S
C630   H847    1.110   .     S
C630   H849    1.105   .     S
C631   O1030   1.416   .     S
C631   C632    1.531   .     S
C631   H850    1.113   .     S
C631   H851    1.111   1_556 S
C632   C633    1.529   .     S
C632   H852    1.110   .     S
C632   H853    1.110   .     S
C633   H855    1.107   .     S
C633   H854    1.110   .     S
C633   H856    1.111   .     S
C634   H857    1.111   .     S
C634   C635    1.523   .     S
C634   O1031   1.413   .     S
C634   H858    1.108   .     S
C635   H861    1.111   .     S
C635   H860    1.111   .     S
C635   C638    1.520   .     S
C636   C682    1.457   .     S
C636   O1004   1.271   .     A
C636   O1998   1.273   1_545 S
C637   O980    1.278   .     A
C637   C645    1.428   .     S
C637   O974    1.278   .     A
C638   H863    1.110   .     S
C638   H864    1.108   .     S
C638   H862    1.107   .     S
C639   O986    1.278   .     A
C639   C644    1.425   .     S
C639   O975    1.278   .     A
C640   O976    1.278   .     A
C640   O987    1.278   .     A
C640   C643    1.425   .     S
C641   O977    1.276   .     A
C641   C651    1.427   .     S
C641   O984    1.275   .     A
C642   O978    1.276   .     A
C642   O985    1.275   .     A
C642   C650    1.427   .     S
C643   C660    1.200   .     T
C644   C658    1.200   .     T
C645   C657    1.201   .     T
C646   C656    1.201   .     T
C647   C655    1.199   .     T
C648   O951    1.273   .     A
C648   C678    1.467   .     S
C648   O491    1.273   1_655 S
C649   C654    1.199   .     T
C650   C653    1.201   .     T
C651   C652    1.201   .     T
C657   C714    1.428   .     S
C659   O952    1.267   .     A
C659   C679    1.449   .     S
C661   O997    1.391   .     S
C661   C691    1.429   .     A
C661   C678    1.420   .     A
C662   O998    1.384   .     S
C662   C693    1.415   .     A
C662   C155    1.399   1_655 S
C663   C694    1.404   .     A
C663   O999    1.390   .     S
C663   C1728   1.410   1_545 S
C664   C1743   1.408   1_545 A
C664   C682    1.404   .     S
C664   O1000   1.389   .     S
C665   O1001   1.386   .     S
C666   O1002   1.389   .     S
C666   C679    1.394   .     A
C667   O1003   1.397   .     S
C667   C689    1.422   .     A
C667   C680    1.424   .     A
C668   O1005   1.390   .     S
C668   C690    1.419   .     A
C668   C1730   1.411   .     S
C669   C700    1.409   .     A
C669   O1006   1.389   .     S
C669   C1731   1.404   1_545 S
C670   C685    1.465   .     S
C670   O429    1.277   1_655 S
C670   O433    1.273   1_655 S
C671   C701    1.408   .     A
C671   O1007   1.385   .     S
C671   C1732   1.394   .     S
C672   C702    1.414   .     A
C672   C685    1.413   .     A
C672   O1008   1.387   .     S
C673   C704    1.413   .     A
C673   O1009   1.385   .     S
C674   C696    1.419   .     A
C674   C683    1.409   .     A
C674   O1010   1.389   .     S
C675   C697    1.413   .     A
C675   O1011   1.384   .     S
C675   C684    1.398   .     A
C676   O1012   1.387   .     S
C676   C698    1.403   .     A
C677   C699    1.411   .     A
C677   O1013   1.385   .     S
C677   C686    1.407   .     A
C678   C141    1.396   1_655 S
C680   C1711   1.410   .     S
C681   O958    1.275   .     A
C681   O954    1.273   .     A
C682   C1716   1.411   1_545 S
C683   C1717   1.404   .     S
C683   C1740   1.460   .     S
C684   C703    1.452   .     S
C684   C1719   1.394   1_545 S
C685   C152    1.409   1_655 S
C686   C157    1.463   1_655 S
C686   C149    1.407   1_655 S
C687   C705    1.417   .     A
C687   C713    1.418   .     A
C687   C141    1.405   1_655 S
C688   C715    1.403   .     A
C688   C706    1.408   .     A
C688   C142    1.405   1_655 S
C689   C707    1.417   .     A
C689   C716    1.419   .     A
C690   C708    1.419   .     A
C690   C1765   1.426   .     S
C691   C718    1.438   .     A
C691   C705    1.429   .     A
C692   C1731   1.460   1_545 S
C692   O955    1.266   .     S
C692   O959    1.277   .     S
C693   C706    1.419   .     A
C693   C195    1.412   1_655 S
C694   C720    1.409   .     A
C694   C1755   1.404   1_545 S
C695   C1712   1.408   .     A
C695   C708    1.418   .     A
C695   C721    1.415   .     A
C696   C722    1.422   .     A
C696   C709    1.424   .     A
C697   C723    1.409   .     A
C697   C710    1.417   .     S
C698   C724    1.412   .     A
C699   C712    1.413   .     A
C700   C1757   1.418   1_545 S
C701   C1758   1.411   .     A
C702   C711    1.415   .     A
C703   O961    1.271   .     A
C703   O956    1.268   .     A
C705   C706    1.413   .     A
C707   C708    1.408   .     A
C707   C1742   1.404   .     S
C709   C1748   1.418   .     S
C709   C1758   1.413   1_556 S
C710   C1749   1.411   1_545 A
C710   C1757   1.413   1_544 S
C711   C174    1.409   1_655 S
C711   C712    1.398   1_556 S
C712   C180    1.413   1_655 S
C712   C711    1.398   1_554 S
C713   O1014   1.387   .     S
C713   C195    1.398   1_655 S
C714   O990    1.279   .     A
C714   O962    1.278   .     A
C715   C718    1.412   .     A
C715   O1016   1.391   .     S
C716   O1017   1.384   .     S
C716   C721    1.402   .     A
C717   O1018   1.385   .     S
C717   C720    1.425   .     A
C717   C1738   1.426   1_545 S
C718   O1019   1.388   .     S
C719   O1020   1.385   .     S
C720   O2069   1.391   1_545 S
C721   O1022   1.387   .     S
C722   O1023   1.382   .     S
C722   C529    1.405   1_556 S
C723   O1024   1.388   .     S
C723   C528    1.402   1_554 S
C724   O1025   1.390   .     S
C724   C531    1.422   1_556 S
H727   C54     1.118   1_655 S
H730   C56     1.111   1_655 S
H766   C1644   1.112   1_545 S
H772   C74     1.111   1_655 S
H790   C1654   1.111   .     S
H798   C1657   1.111   .     S
H812   C616    1.106   1_556 S
H829   C622    1.107   1_556 S
H831   C623    1.110   1_556 S
H851   C631    1.111   1_554 S
H924   C43     1.111   1_655 S
O949   Zn1036  1.939   .     S
O949   Zn1033  1.939   .     S
O949   Zn2088  1.937   1_545 S
O949   Zn1044  1.932   .     S
O950   Zn1035  1.945   .     S
O950   C1684   1.273   .     S
O951   Zn1038  1.947   .     S
O952   Zn1037  1.947   .     S
O953   Zn1047  1.946   .     S
O954   Zn1046  1.946   .     S
O955   Zn1041  1.943   .     S
O956   Zn1033  1.943   .     S
O957   Zn1043  1.945   .     S
O958   Zn1042  1.945   .     S
O959   Zn1045  1.947   .     S
O960   Zn1039  1.937   .     S
O960   Zn1041  1.939   .     S
O960   Zn1045  1.932   .     S
O960   Zn2083  1.939   1_545 S
O961   Zn1044  1.947   .     S
O962   Zn1036  1.922   .     S
O963   Zn1035  1.922   .     S
O964   Zn1038  1.919   .     S
O965   Zn1037  1.919   .     S
O966   Zn1040  1.920   .     S
O967   Zn1039  1.920   .     S
O968   Zn1034  1.917   .     S
O969   Zn1048  1.917   .     S
O970   Zn1035  1.916   .     S
O971   Zn1042  1.939   .     S
O971   Zn1034  1.939   .     S
O971   Zn1046  1.937   .     S
O972   Zn1036  1.916   .     S
O973   Zn1048  1.921   .     S
O974   Zn1034  1.921   .     S
O975   Zn1039  1.918   .     S
O976   Zn1040  1.918   .     S
O977   Zn1037  1.922   .     S
O978   Zn1038  1.922   .     S
O979   Zn519   1.922   1_655 S
O980   Zn1042  1.922   .     S
O981   Zn2093  1.919   .     S
O982   Zn1043  1.939   .     S
O982   Zn1047  1.937   .     S
O982   Zn1037  1.932   .     S
O983   Zn1044  1.919   .     S
O984   Zn1047  1.920   .     S
O985   Zn522   1.920   1_655 S
O986   Zn1041  1.917   .     S
O987   Zn2081  1.917   .     S
O988   Zn518   1.916   1_655 S
O989   Zn1043  1.916   .     S
O990   Zn1033  1.921   .     S
O991   Zn2089  1.921   .     S
O992   Zn1046  1.918   .     S
O993   Zn1040  1.946   .     S
O994   Zn523   1.918   1_655 S
O995   Zn2092  1.922   .     S
O996   Zn1045  1.922   .     S
O997   C8      1.430   1_655 S
O1004  Zn1039  1.946   .     S
O1015  Zn1034  1.943   .     S
O1018  C1643   1.412   1_545 S
O1019  C74     1.422   1_655 S
O1021  C1768   1.391   .     S
O1021  C1653   1.409   .     S
O1022  C1656   1.415   .     S
O1026  Zn1048  1.943   .     S
O1026  C135    1.270   1_655 S
O1032  Zn1036  1.945   .     S
O1032  C1573   1.282   1_545 S
Zn1033 O2035   1.917   1_545 S
Zn1035 O2008   1.939   .     S
Zn1038 O447    1.932   1_655 S
Zn1040 O1997   1.937   .     S
Zn1041 O2039   1.921   1_545 S
Zn1044 O2043   1.922   1_545 S
Zn1045 O2029   1.919   1_545 S
Zn1048 O458    1.939   1_655 S
C1049  O1517   1.266   .     A
C1049  C1204   1.463   .     S
C1049  O508    1.282   1_565 S
C1050  C1180   1.428   .     S
C1050  O1487   1.278   .     A
C1050  O1515   1.278   .     A
C1051  C1223   1.417   .     A
C1051  O1551   1.385   .     S
C1051  C1054   1.414   1_554 S
C1052  O1552   1.385   .     S
C1052  C1224   1.417   .     A
C1052  C1247   1.402   1_556 S
C1053  O1553   1.388   .     S
C1053  C1225   1.404   .     A
C1053  C1246   1.405   1_554 S
C1054  C1226   1.417   .     A
C1054  O1554   1.387   .     S
C1054  C1051   1.414   1_556 S
C1055  C1228   1.421   .     A
C1055  O1555   1.384   .     S
C1055  C1248   1.422   1_554 S
C1056  H1249   1.111   .     S
C1056  H1360   1.108   .     S
C1056  C1057   1.555   .     S
C1056  O2045   1.430   1_455 S
C1057  C1058   1.526   .     S
C1057  H1407   1.108   .     S
C1057  H1396   1.108   .     S
C1058  H1440   1.111   .     S
C1058  H1429   1.110   .     S
C1058  H1418   1.110   .     S
C1059  H1451   1.111   .     S
C1059  H1462   1.117   .     S
C1059  O1522   1.415   .     S
C1059  C1060   1.531   .     S
C1060  H1250   1.111   .     S
C1060  H1261   1.111   .     S
C1060  C1062   1.525   .     S
C1061  O1512   1.275   .     A
C1061  O1488   1.277   .     A
C1061  C1179   1.424   .     S
C1062  H1283   1.111   .     S
C1062  H1272   1.110   .     S
C1062  H1294   1.108   .     S
C1063  O1523   1.426   .     S
C1063  H1305   1.111   .     S
C1063  H1316   1.117   .     S
C1063  C1064   1.532   .     S
C1064  H1338   1.110   .     S
C1064  C1065   1.526   .     S
C1064  H1327   1.109   .     S
C1065  H1372   1.111   .     S
C1065  H1361   1.111   .     S
C1065  H1349   1.111   .     S
C1066  H1389   1.107   .     S
C1066  C1067   1.550   .     S
C1066  O1524   1.427   .     S
C1066  H1383   1.109   .     S
C1067  C1068   1.524   .     S
C1067  H1391   1.111   .     S
C1067  H1390   1.109   .     S
C1068  H1393   1.108   .     S
C1068  H1392   1.110   .     S
C1068  H1394   1.111   .     S
C1069  C1070   1.529   .     S
C1069  O1525   1.418   .     S
C1069  H1395   1.111   .     S
C1069  H1397   1.118   .     S
C1070  C1071   1.522   .     S
C1070  H1399   1.112   .     S
C1070  H1398   1.107   .     S
C1071  H1402   1.111   .     S
C1071  H1400   1.108   .     S
C1071  H1401   1.110   .     S
C1072  C1178   1.424   .     S
C1072  O1489   1.277   .     A
C1072  O1513   1.275   .     A
C1073  C1074   1.533   .     S
C1073  H1404   1.118   .     S
C1073  O1526   1.416   .     S
C1073  H1403   1.109   .     S
C1074  H1405   1.109   .     S
C1074  H1406   1.111   .     S
C1074  C1075   1.520   .     S
C1075  H1409   1.110   .     S
C1075  H1408   1.105   .     S
C1075  H1410   1.106   .     S
C1076  H1411   1.110   .     S
C1076  O1527   1.432   .     S
C1076  C1077   1.561   .     S
C1076  H1412   1.105   .     S
C1077  H1414   1.109   .     S
C1077  C1078   1.526   .     S
C1077  H1413   1.102   .     S
C1078  H1415   1.106   .     S
C1078  H1417   1.111   .     S
C1078  H1416   1.111   .     S
C1079  C1080   1.552   .     S
C1079  O1529   1.429   .     S
C1079  H1420   1.105   .     S
C1079  H1419   1.105   .     S
C1080  H1422   1.110   .     S
C1080  C1081   1.524   .     S
C1080  H1421   1.110   .     S
C1081  H1425   1.108   .     S
C1081  H1423   1.111   .     S
C1081  H1424   1.110   .     S
C1082  H1427   1.107   .     S
C1082  H1426   1.107   .     S
C1082  C1084   1.553   .     S
C1082  O1530   1.432   .     S
C1083  C1177   1.427   .     S
C1083  O1490   1.275   .     A
C1083  O1519   1.276   .     A
C1084  C1085   1.526   .     S
C1084  H1428   1.110   .     S
C1084  H1430   1.111   .     S
C1085  H1432   1.111   .     S
C1085  H1431   1.111   .     S
C1085  H1433   1.111   .     S
C1086  O1531   1.419   .     S
C1086  H1434   1.108   .     S
C1086  C1087   1.530   .     S
C1086  H1435   1.119   .     S
C1087  C1088   1.526   .     S
C1087  H1437   1.106   .     S
C1087  H1436   1.105   .     S
C1088  H1441   1.107   .     S
C1088  H1439   1.110   .     S
C1088  H1438   1.108   .     S
C1089  H1443   1.108   .     S
C1089  C1090   1.553   .     S
C1089  H1442   1.106   .     S
C1089  O1532   1.434   .     S
C1090  H1444   1.110   .     S
C1090  C1615   1.526   .     S
C1090  H1969   1.111   .     S
C1091  H1446   1.111   .     S
C1091  H1447   1.111   .     S
C1091  C1614   1.526   1_455 S
C1091  H1972   1.111   1_455 S
C1092  H1450   1.108   .     S
C1092  H1449   1.110   .     S
C1092  C1093   1.557   .     S
C1092  O1533   1.433   .     S
C1093  C1095   1.522   .     S
C1093  H1453   1.111   .     S
C1093  H1452   1.109   .     S
C1094  O1491   1.275   .     A
C1094  O1520   1.276   .     A
C1094  C1176   1.427   .     S
C1095  H1455   1.110   .     S
C1095  H1454   1.111   .     S
C1095  H1456   1.110   .     S
C1096  H1458   1.116   .     S
C1096  O1534   1.421   .     S
C1096  H1457   1.111   .     S
C1096  C1097   1.534   .     S
C1097  H1460   1.112   .     S
C1097  C1098   1.525   .     S
C1097  H1459   1.110   .     S
C1098  H1463   1.111   .     S
C1098  H1461   1.110   .     S
C1098  H1464   1.110   .     S
C1099  H1465   1.114   .     S
C1099  C1100   1.530   .     S
C1099  H1466   1.114   .     S
C1099  O1535   1.410   .     S
C1100  H1468   1.110   .     S
C1100  C1101   1.528   .     S
C1100  H1467   1.112   .     S
C1101  H1469   1.111   .     S
C1101  H1471   1.110   .     S
C1101  H1470   1.110   .     S
C1102  H1472   1.111   .     S
C1102  C1103   1.531   .     S
C1102  O1536   1.424   .     S
C1102  H1775   1.118   1_455 S
C1103  C1104   1.527   .     S
C1103  H1252   1.110   .     S
C1103  H1253   1.111   .     S
C1104  H1255   1.110   .     S
C1104  H1256   1.111   .     S
C1104  H1778   1.111   1_455 S
C1105  O1492   1.278   .     A
C1105  O1516   1.278   .     A
C1105  C1184   1.425   .     S
C1106  H1257   1.109   .     S
C1106  C1107   1.554   .     S
C1106  O1537   1.429   .     S
C1106  H1258   1.108   .     S
C1107  C1108   1.523   .     S
C1107  H1259   1.109   .     S
C1107  H1260   1.111   .     S
C1108  H1262   1.111   .     S
C1108  H1264   1.107   .     S
C1108  H1263   1.110   .     S
C1109  H1265   1.111   .     S
C1109  O1538   1.421   .     S
C1109  C1110   1.528   .     S
C1109  H1266   1.117   .     S
C1110  H1267   1.109   .     S
C1110  C1111   1.527   .     S
C1110  H1268   1.111   .     S
C1111  H1270   1.110   .     S
C1111  H1271   1.111   .     S
C1111  H1269   1.111   .     S
C1112  H1273   1.107   .     S
C1112  O1540   1.420   .     S
C1112  C1113   1.529   .     S
C1112  H1274   1.104   .     S
C1113  H1275   1.106   .     S
C1113  H1276   1.111   .     S
C1113  C1114   1.524   .     S
C1114  H1279   1.109   .     S
C1114  H1277   1.111   .     S
C1114  H1278   1.110   .     S
C1115  H1280   1.108   .     S
C1115  C1117   1.515   .     S
C1115  H1281   1.113   .     S
C1115  O1541   1.419   .     S
C1116  C1182   1.424   .     S
C1116  O1493   1.278   .     A
C1116  O1518   1.278   .     A
C1117  H1284   1.110   .     S
C1117  C1118   1.532   .     S
C1117  H1282   1.108   .     S
C1118  H1285   1.111   .     S
C1118  H1286   1.108   .     S
C1118  H1287   1.111   .     S
C1119  C1120   1.542   .     S
C1119  H1289   1.107   .     S
C1119  H1288   1.101   .     S
C1119  O494    1.412   1_565 S
C1120  C1121   1.524   .     S
C1120  H1291   1.109   .     S
C1120  H242    1.112   1_565 S
C1121  H1293   1.107   .     S
C1121  H1295   1.108   .     S
C1121  H1292   1.108   .     S
C1122  H1297   1.092   .     S
C1122  C1123   1.537   .     S
C1122  H1820   1.111   1_455 S
C1122  O2067   1.422   1_455 S
C1123  H1298   1.107   .     S
C1123  H1299   1.104   .     S
C1123  C1124   1.535   .     S
C1124  H1300   1.105   .     S
C1124  H1302   1.111   .     S
C1124  H1301   1.106   .     S
C1125  H1304   1.115   .     S
C1125  H1303   1.111   .     S
C1125  C1126   1.527   .     S
C1125  O1544   1.419   .     S
C1126  H1307   1.110   .     S
C1126  C1128   1.526   .     S
C1126  H1306   1.105   .     S
C1127  C1173   1.424   .     S
C1127  O1494   1.275   .     A
C1127  O1505   1.277   .     A
C1128  H1310   1.110   .     S
C1128  H1308   1.111   .     S
C1128  H1309   1.108   .     S
C1129  H1311   1.101   .     S
C1129  C1130   1.531   .     S
C1129  H1312   1.096   .     S
C1130  H1313   1.111   .     S
C1130  C1131   1.527   .     S
C1131  H1318   1.108   .     S
C1131  H1317   1.110   .     S
C1131  H1315   1.110   .     S
C1132  H1320   1.112   .     S
C1132  H1319   1.113   .     S
C1132  C1133   1.530   .     S
C1133  C1134   1.526   .     S
C1133  H1321   1.110   .     S
C1134  H1323   1.109   .     S
C1134  H1325   1.108   .     S
C1134  H1324   1.107   .     S
C1135  H1328   1.114   .     S
C1135  H1326   1.116   .     S
C1135  C1136   1.527   .     S
C1135  O1547   1.414   .     S
C1136  H1330   1.111   .     S
C1136  C1137   1.527   .     S
C1136  H1329   1.108   .     S
C1137  H1333   1.111   .     S
C1137  H1332   1.109   .     S
C1137  H1331   1.110   .     S
C1138  C1171   1.424   .     S
C1138  O1507   1.277   .     A
C1138  O1496   1.276   .     A
C1139  H1335   1.109   .     S
C1139  O1548   1.426   .     S
C1139  C1140   1.542   .     S
C1139  H1334   1.111   .     S
C1140  C1141   1.527   .     S
C1140  H1337   1.111   .     S
C1140  H1336   1.106   1_554 S
C1141  H1341   1.110   .     S
C1141  H1340   1.111   .     S
C1141  H1339   1.111   .     S
C1142  H1343   1.105   .     S
C1142  O1549   1.411   .     S
C1142  H1342   1.105   .     S
C1142  C1143   1.532   .     S
C1143  H1345   1.110   .     S
C1143  H1344   1.112   .     S
C1143  C1144   1.526   .     S
C1144  H1347   1.110   .     S
C1144  H1346   1.111   .     S
C1144  H1348   1.110   .     S
C1145  H1351   1.114   .     S
C1145  C1146   1.534   .     S
C1145  H1350   1.111   .     S
C1145  O1551   1.417   .     S
C1146  H1352   1.107   .     S
C1146  C1147   1.526   .     S
C1146  H1353   1.107   1_554 S
C1147  H1356   1.109   .     S
C1147  H1354   1.106   .     S
C1147  H1355   1.110   1_554 S
C1148  O1552   1.415   .     S
C1148  H1358   1.111   .     S
C1148  H1357   1.112   .     S
C1148  C1150   1.531   .     S
C1149  C1170   1.428   .     S
C1149  O1503   1.278   .     A
C1149  O1497   1.278   .     A
C1150  H1362   1.109   .     S
C1150  H1359   1.110   .     S
C1150  C1151   1.529   .     S
C1151  H1365   1.111   .     S
C1151  H1363   1.109   .     S
C1151  H1364   1.110   .     S
C1152  C1153   1.531   .     S
C1152  O1553   1.419   .     S
C1152  H1367   1.105   .     S
C1152  H1366   1.117   .     S
C1153  H1369   1.111   .     S
C1153  H1368   1.106   .     S
C1153  C1154   1.523   .     S
C1154  H1370   1.111   .     S
C1154  H1371   1.110   .     S
C1154  H1373   1.105   .     S
C1155  O1554   1.416   .     S
C1155  C1156   1.531   .     S
C1155  H1374   1.113   .     S
C1155  H1375   1.111   1_556 S
C1156  C1157   1.529   .     S
C1156  H1376   1.110   .     S
C1156  H1377   1.110   .     S
C1157  H1379   1.107   .     S
C1157  H1378   1.110   .     S
C1157  H1380   1.111   .     S
C1158  H1381   1.111   .     S
C1158  C1159   1.523   .     S
C1158  O1555   1.413   .     S
C1158  H1382   1.108   .     S
C1159  H1385   1.111   .     S
C1159  H1384   1.111   .     S
C1159  C1162   1.520   .     S
C1160  C1206   1.457   .     S
C1160  O1528   1.271   .     A
C1161  O1504   1.278   .     A
C1161  C1169   1.428   .     S
C1161  O1498   1.278   .     A
C1162  H1387   1.110   .     S
C1162  H1388   1.108   .     S
C1162  H1386   1.107   .     S
C1163  O1510   1.278   .     A
C1163  C1168   1.425   .     S
C1163  O1499   1.278   .     A
C1164  O1500   1.278   .     A
C1164  O1511   1.278   .     A
C1164  C1167   1.425   .     S
C1165  O1501   1.276   .     A
C1165  C1175   1.427   .     S
C1165  O1508   1.275   .     A
C1166  O1502   1.276   .     A
C1166  O1509   1.275   .     A
C1166  C1174   1.427   .     S
C1167  C1184   1.200   .     T
C1168  C1182   1.200   .     T
C1169  C1181   1.201   .     T
C1170  C1180   1.201   .     T
C1171  C1179   1.199   .     T
C1172  O1475   1.273   .     A
C1172  C1202   1.467   .     S
C1172  O2063   1.273   .     S
C1173  C1178   1.199   .     T
C1174  C1177   1.201   .     T
C1175  C1176   1.201   .     T
C1181  C1238   1.428   .     S
C1183  O1476   1.267   .     A
C1183  C1203   1.449   .     S
C1183  O2074   1.270   1_455 S
C1185  O1521   1.391   .     S
C1185  C1215   1.429   .     A
C1185  C1202   1.420   .     A
C1186  O1522   1.384   .     S
C1186  C1217   1.415   .     A
C1186  C1727   1.399   .     S
C1187  C1218   1.404   .     A
C1187  O1523   1.390   .     S
C1188  C1206   1.404   .     S
C1188  O1524   1.389   .     S
C1189  O1525   1.386   .     S
C1189  C1726   1.396   1_455 S
C1189  C1735   1.405   1_455 S
C1190  O1526   1.389   .     S
C1190  C1203   1.394   .     A
C1190  C1736   1.405   1_455 S
C1191  O1527   1.397   .     S
C1191  C1213   1.422   .     A
C1191  C1204   1.424   .     A
C1192  O1529   1.390   .     S
C1192  C1214   1.419   .     A
C1192  C158    1.411   1_565 S
C1193  C1224   1.409   .     A
C1193  O1530   1.389   .     S
C1194  C1209   1.465   .     S
C1194  O2001   1.277   .     S
C1194  O2005   1.273   .     S
C1195  C1225   1.408   .     A
C1195  O1531   1.385   .     S
C1195  C160    1.394   1_565 S
C1196  C1226   1.414   .     A
C1196  C1209   1.413   .     A
C1196  O1532   1.387   .     S
C1197  C1228   1.413   .     A
C1197  O1533   1.385   .     S
C1197  C1734   1.407   1_455 S
C1198  C1220   1.419   .     A
C1198  C1207   1.409   .     A
C1198  O1534   1.389   .     S
C1199  C1221   1.413   .     A
C1199  O1535   1.384   .     S
C1199  C1208   1.398   .     A
C1200  O1536   1.387   .     S
C1200  C1222   1.403   .     A
C1200  C1733   1.409   1_455 S
C1201  C1223   1.411   .     A
C1201  O1537   1.385   .     S
C1201  C1210   1.407   .     A
C1202  C1713   1.396   .     S
C1203  C1710   1.399   1_455 S
C1204  C139    1.410   1_565 S
C1205  O1482   1.275   .     A
C1205  O1478   1.273   .     A
C1205  C1734   1.463   1_455 S
C1207  C145    1.404   1_565 S
C1207  C168    1.460   1_565 S
C1208  C1227   1.452   .     S
C1209  C1724   1.409   .     S
C1210  C1729   1.463   .     S
C1210  C1721   1.407   .     S
C1211  C1229   1.417   .     A
C1211  C1237   1.418   .     A
C1211  C1713   1.405   .     S
C1212  C1239   1.403   .     A
C1212  C1230   1.408   .     A
C1212  C1714   1.405   .     S
C1213  C1231   1.417   .     A
C1213  C1240   1.419   .     A
C1214  C1232   1.419   .     A
C1214  C193    1.426   1_565 S
C1215  C1242   1.438   .     A
C1215  C1229   1.429   .     A
C1216  O1479   1.266   .     S
C1216  O1483   1.277   .     S
C1217  C1230   1.419   .     A
C1217  C1767   1.412   .     S
C1218  C1244   1.409   .     A
C1219  C140    1.408   1_565 A
C1219  C1232   1.418   .     A
C1219  C1245   1.415   .     A
C1220  C1246   1.422   .     A
C1220  C1233   1.424   .     A
C1221  C1247   1.409   .     A
C1221  C1234   1.417   .     S
C1222  C1248   1.412   .     A
C1222  C1759   1.409   1_455 S
C1223  C1236   1.413   .     A
C1225  C186    1.411   1_565 A
C1226  C1235   1.415   .     A
C1227  O1485   1.271   .     A
C1227  O1480   1.268   .     A
C1228  C1760   1.413   1_455 S
C1229  C1230   1.413   .     A
C1231  C1232   1.408   .     A
C1231  C170    1.404   1_565 S
C1233  C176    1.418   1_565 S
C1233  C186    1.413   1_566 S
C1234  C185    1.413   1_554 S
C1235  C1746   1.409   .     S
C1235  C1236   1.398   1_556 S
C1236  C1752   1.413   .     S
C1236  C1235   1.398   1_554 S
C1237  O1538   1.387   .     S
C1237  C1767   1.398   .     S
C1238  O1514   1.279   .     A
C1238  O1486   1.278   .     A
C1239  C1242   1.412   .     A
C1239  O1540   1.391   .     S
C1240  O1541   1.384   .     S
C1240  C1245   1.402   .     A
C1241  O1542   1.385   .     S
C1241  C1244   1.425   .     A
C1242  O1543   1.388   .     S
C1243  O1544   1.385   .     S
C1243  C1741   1.412   1_455 S
C1243  C1761   1.398   1_455 S
C1245  O1546   1.387   .     S
C1246  O1547   1.382   .     S
C1246  C1053   1.405   1_556 S
C1247  O1548   1.388   .     S
C1247  C1052   1.402   1_554 S
C1248  O1549   1.390   .     S
C1248  C1055   1.422   1_556 S
H1251  C1626   1.118   .     S
H1254  C1628   1.111   .     S
H1296  C1646   1.111   .     S
H1314  C82     1.111   1_565 S
H1322  C85     1.111   1_565 S
H1336  C1140   1.106   1_556 S
H1353  C1146   1.107   1_556 S
H1355  C1147   1.110   1_556 S
H1375  C1155   1.111   1_554 S
H1445  C1614   1.111   1_455 S
H1448  C1615   1.111   .     S
O1473  Zn1560  1.939   .     S
O1473  Zn1557  1.939   .     S
O1473  Zn1568  1.932   .     S
O1474  Zn1559  1.945   .     S
O1474  C112    1.273   1_565 S
O1475  Zn1562  1.947   .     S
O1476  Zn1561  1.947   .     S
O1477  Zn1571  1.946   .     S
O1477  C1718   1.277   1_455 S
O1478  Zn1570  1.946   .     S
O1479  Zn1565  1.943   .     S
O1480  Zn1557  1.943   .     S
O1481  Zn1567  1.945   .     S
O1481  C1718   1.273   1_455 S
O1482  Zn1566  1.945   .     S
O1483  Zn1569  1.947   .     S
O1484  Zn1563  1.937   .     S
O1484  Zn1565  1.939   .     S
O1484  Zn1569  1.932   .     S
O1485  Zn1568  1.947   .     S
O1486  Zn1560  1.922   .     S
O1487  Zn1559  1.922   .     S
O1488  Zn1562  1.919   .     S
O1489  Zn1561  1.919   .     S
O1490  Zn1564  1.920   .     S
O1491  Zn1563  1.920   .     S
O1492  Zn1558  1.917   .     S
O1493  Zn1572  1.917   .     S
O1494  Zn1559  1.916   .     S
O1495  Zn1566  1.939   .     S
O1495  Zn1558  1.939   .     S
O1495  Zn2086  1.932   1_455 S
O1495  Zn1570  1.937   .     S
O1496  Zn1560  1.916   .     S
O1497  Zn1572  1.921   .     S
O1498  Zn1558  1.921   .     S
O1499  Zn1563  1.918   .     S
O1500  Zn1564  1.918   .     S
O1501  Zn1561  1.922   .     S
O1502  Zn1562  1.922   .     S
O1503  Zn2091  1.922   .     S
O1504  Zn1566  1.922   .     S
O1505  Zn521   1.919   1_565 S
O1506  Zn1567  1.939   .     S
O1506  Zn1571  1.937   .     S
O1506  Zn1561  1.932   .     S
O1506  Zn2096  1.939   1_455 S
O1507  Zn1568  1.919   .     S
O1508  Zn1571  1.920   .     S
O1509  Zn2094  1.920   .     S
O1510  Zn1565  1.917   .     S
O1511  Zn509   1.917   1_565 S
O1512  Zn2090  1.916   .     S
O1513  Zn1567  1.916   .     S
O1514  Zn1557  1.921   .     S
O1515  Zn517   1.921   1_565 S
O1516  Zn1570  1.918   .     S
O1517  Zn1564  1.946   .     S
O1518  Zn2095  1.918   .     S
O1519  Zn520   1.922   1_565 S
O1520  Zn1569  1.922   .     S
O1521  C1580   1.430   .     S
O1528  Zn1563  1.946   .     S
O1539  Zn1558  1.943   .     S
O1539  C1696   1.273   1_455 S
O1543  C1646   1.422   .     S
O1545  C196    1.391   1_565 S
O1545  C81     1.409   1_565 S
O1546  C84     1.415   1_565 S
O1550  Zn1572  1.943   .     S
O1550  C1707   1.270   .     S
O1556  Zn1560  1.945   .     S
Zn1559 O436    1.939   1_565 S
Zn1562 O2019   1.932   .     S
Zn1564 O425    1.937   1_565 S
Zn1566 O2036   1.916   1_455 S
Zn1567 O2027   1.922   1_455 S
Zn1570 O2033   1.920   1_455 S
Zn1571 O2042   1.918   1_455 S
Zn1572 O2030   1.939   .     S
C1573  O2041   1.266   .     A
C1573  C1728   1.463   .     S
C1573  O1032   1.282   1_565 S
C1574  C1704   1.428   .     S
C1574  O2011   1.278   .     A
C1574  O2039   1.278   .     A
C1575  C1747   1.417   .     A
C1575  O2075   1.385   .     S
C1575  C1578   1.414   1_554 S
C1576  O2076   1.385   .     S
C1576  C1748   1.417   .     A
C1576  C1771   1.402   1_556 S
C1577  O2077   1.388   .     S
C1577  C1749   1.404   .     A
C1577  C1770   1.405   1_554 S
C1578  C1750   1.417   .     A
C1578  O2078   1.387   .     S
C1578  C1575   1.414   1_556 S
C1579  C1752   1.421   .     A
C1579  O2079   1.384   .     S
C1579  C1772   1.422   1_554 S
C1580  H1773   1.111   .     S
C1580  H1884   1.108   .     S
C1580  C1581   1.555   .     S
C1581  C1582   1.526   .     S
C1581  H1931   1.108   .     S
C1581  H1920   1.108   .     S
C1582  H1964   1.111   .     S
C1582  H1953   1.110   .     S
C1582  H1942   1.110   .     S
C1583  H1975   1.111   .     S
C1583  H1986   1.117   .     S
C1583  O2046   1.415   .     S
C1583  C1584   1.531   .     S
C1584  H1774   1.111   .     S
C1584  H1785   1.111   .     S
C1584  C1586   1.525   .     S
C1585  O2036   1.275   .     A
C1585  O2012   1.277   .     A
C1585  C1703   1.424   .     S
C1586  H1807   1.111   .     S
C1586  H1796   1.110   .     S
C1586  H1818   1.108   .     S
C1587  O2047   1.426   .     S
C1587  H1829   1.111   .     S
C1587  H1840   1.117   .     S
C1587  C1588   1.532   .     S
C1588  H1862   1.110   .     S
C1588  C1589   1.526   .     S
C1588  H1851   1.109   .     S
C1589  H1896   1.111   .     S
C1589  H1885   1.111   .     S
C1589  H1873   1.111   .     S
C1590  H1913   1.107   .     S
C1590  C1591   1.550   .     S
C1590  O2048   1.427   .     S
C1590  H1907   1.109   .     S
C1591  C1592   1.524   .     S
C1591  H1915   1.111   .     S
C1591  H1914   1.109   .     S
C1592  H1917   1.108   .     S
C1592  H1916   1.110   .     S
C1592  H1918   1.111   .     S
C1593  C1594   1.529   .     S
C1593  O2049   1.418   .     S
C1593  H1919   1.111   .     S
C1593  H1921   1.118   .     S
C1594  C1595   1.522   .     S
C1594  H1923   1.112   .     S
C1594  H1922   1.107   .     S
C1595  H1926   1.111   .     S
C1595  H1924   1.108   .     S
C1595  H1925   1.110   .     S
C1596  C1702   1.424   .     S
C1596  O2013   1.277   .     A
C1596  O2037   1.275   .     A
C1597  C1598   1.533   .     S
C1597  H1928   1.118   .     S
C1597  O2050   1.416   .     S
C1597  H1927   1.109   .     S
C1598  H1929   1.109   .     S
C1598  H1930   1.111   .     S
C1598  C1599   1.520   .     S
C1599  H1933   1.110   .     S
C1599  H1932   1.105   .     S
C1599  H1934   1.106   .     S
C1600  H1935   1.110   .     S
C1600  O2051   1.432   .     S
C1600  C1601   1.561   .     S
C1600  H1936   1.105   .     S
C1601  H1938   1.109   .     S
C1601  C1602   1.526   .     S
C1601  H1937   1.102   .     S
C1602  H1939   1.106   .     S
C1602  H1941   1.111   .     S
C1602  H1940   1.111   .     S
C1603  C1604   1.552   .     S
C1603  O2053   1.429   .     S
C1603  H1944   1.105   .     S
C1603  H1943   1.105   .     S
C1604  H1946   1.110   .     S
C1604  C1605   1.524   .     S
C1604  H1945   1.110   .     S
C1605  H1949   1.108   .     S
C1605  H1947   1.111   .     S
C1605  H1948   1.110   .     S
C1606  H1951   1.107   .     S
C1606  H1950   1.107   .     S
C1606  C1608   1.553   .     S
C1606  O2054   1.432   .     S
C1607  C1701   1.427   .     S
C1607  O2014   1.275   .     A
C1607  O2043   1.276   .     A
C1608  C1609   1.526   .     S
C1608  H1952   1.110   .     S
C1608  H1954   1.111   .     S
C1609  H1956   1.111   .     S
C1609  H1955   1.111   .     S
C1609  H1957   1.111   .     S
C1610  O2055   1.419   .     S
C1610  H1958   1.108   .     S
C1610  C1611   1.530   .     S
C1610  H1959   1.119   .     S
C1611  C1612   1.526   .     S
C1611  H1961   1.106   .     S
C1611  H1960   1.105   .     S
C1612  H1965   1.107   .     S
C1612  H1963   1.110   .     S
C1612  H1962   1.108   .     S
C1613  H1967   1.108   .     S
C1613  C1614   1.553   .     S
C1613  H1966   1.106   .     S
C1613  O2056   1.434   .     S
C1614  H1968   1.110   .     S
C1614  C1091   1.526   1_655 S
C1614  H1445   1.111   1_655 S
C1615  H1970   1.111   .     S
C1615  H1971   1.111   .     S
C1616  H1974   1.108   .     S
C1616  H1973   1.110   .     S
C1616  C1617   1.557   .     S
C1616  O2057   1.433   .     S
C1617  C1619   1.522   .     S
C1617  H1977   1.111   .     S
C1617  H1976   1.109   .     S
C1618  O2015   1.275   .     A
C1618  O2044   1.276   .     A
C1618  C1700   1.427   .     S
C1619  H1979   1.110   .     S
C1619  H1978   1.111   .     S
C1619  H1980   1.110   .     S
C1620  H1982   1.116   .     S
C1620  O2058   1.421   .     S
C1620  H1981   1.111   .     S
C1620  C1621   1.534   .     S
C1621  H1984   1.112   .     S
C1621  C1622   1.525   .     S
C1621  H1983   1.110   .     S
C1622  H1987   1.111   .     S
C1622  H1985   1.110   .     S
C1622  H1988   1.110   .     S
C1623  H1989   1.114   .     S
C1623  C1624   1.530   .     S
C1623  H1990   1.114   .     S
C1623  O2059   1.410   .     S
C1624  H1992   1.110   .     S
C1624  C1625   1.528   .     S
C1624  H1991   1.112   .     S
C1625  H1993   1.111   .     S
C1625  H1995   1.110   .     S
C1625  H1994   1.110   .     S
C1626  H1996   1.111   .     S
C1626  C1627   1.531   .     S
C1626  O2060   1.424   .     S
C1627  C1628   1.527   .     S
C1627  H1776   1.110   .     S
C1627  H1777   1.111   .     S
C1628  H1779   1.110   .     S
C1628  H1780   1.111   .     S
C1629  O2016   1.278   .     A
C1629  O2040   1.278   .     A
C1629  C1708   1.425   .     S
C1630  H1781   1.109   .     S
C1630  C1631   1.554   .     S
C1630  O2061   1.429   .     S
C1630  H1782   1.108   .     S
C1631  C1632   1.523   .     S
C1631  H1783   1.109   .     S
C1631  H1784   1.111   .     S
C1632  H1786   1.111   .     S
C1632  H1788   1.107   .     S
C1632  H1787   1.110   .     S
C1633  H1789   1.111   .     S
C1633  O2062   1.421   .     S
C1633  C1634   1.528   .     S
C1633  H1790   1.117   .     S
C1634  H1791   1.109   .     S
C1634  C1635   1.527   .     S
C1634  H1792   1.111   .     S
C1635  H1794   1.110   .     S
C1635  H1795   1.111   .     S
C1635  H1793   1.111   .     S
C1636  H1797   1.107   .     S
C1636  O2064   1.420   .     S
C1636  C1637   1.529   .     S
C1636  H1798   1.104   .     S
C1637  H1799   1.106   .     S
C1637  H1800   1.111   .     S
C1637  C1638   1.524   .     S
C1638  H1803   1.109   .     S
C1638  H1801   1.111   .     S
C1638  H1802   1.110   .     S
C1639  H1804   1.108   .     S
C1639  C1641   1.515   .     S
C1639  H1805   1.113   .     S
C1639  O2065   1.419   .     S
C1640  C1706   1.424   .     S
C1640  O2017   1.278   .     A
C1640  O2042   1.278   .     A
C1641  H1808   1.110   .     S
C1641  C1642   1.532   .     S
C1641  H1806   1.108   .     S
C1642  H1809   1.111   .     S
C1642  H1810   1.108   .     S
C1642  H1811   1.111   .     S
C1643  C1644   1.542   .     S
C1643  H1813   1.107   .     S
C1643  H1812   1.101   .     S
C1643  O1018   1.412   1_565 S
C1644  C1645   1.524   .     S
C1644  H1815   1.109   .     S
C1644  H766    1.112   1_565 S
C1645  H1817   1.107   .     S
C1645  H1819   1.108   .     S
C1645  H1816   1.108   .     S
C1646  H1821   1.092   .     S
C1646  C1647   1.537   .     S
C1647  H1822   1.107   .     S
C1647  H1823   1.104   .     S
C1647  C1648   1.535   .     S
C1648  H1824   1.105   .     S
C1648  H1826   1.111   .     S
C1648  H1825   1.106   .     S
C1649  H1828   1.115   .     S
C1649  H1827   1.111   .     S
C1649  C1650   1.527   .     S
C1649  O2068   1.419   .     S
C1650  H1831   1.110   .     S
C1650  C1652   1.526   .     S
C1650  H1830   1.105   .     S
C1651  C1697   1.424   .     S
C1651  O2018   1.275   .     A
C1651  O2029   1.277   .     A
C1652  H1834   1.110   .     S
C1652  H1832   1.111   .     S
C1652  H1833   1.108   .     S
C1653  H1835   1.101   .     S
C1653  C1654   1.531   .     S
C1653  H1836   1.096   .     S
C1654  H1837   1.111   .     S
C1654  C1655   1.527   .     S
C1655  H1842   1.108   .     S
C1655  H1841   1.110   .     S
C1655  H1839   1.110   .     S
C1656  H1844   1.112   .     S
C1656  H1843   1.113   .     S
C1656  C1657   1.530   .     S
C1657  C1658   1.526   .     S
C1657  H1845   1.110   .     S
C1658  H1847   1.109   .     S
C1658  H1849   1.108   .     S
C1658  H1848   1.107   .     S
C1659  H1852   1.114   .     S
C1659  H1850   1.116   .     S
C1659  C1660   1.527   .     S
C1659  O2071   1.414   .     S
C1660  H1854   1.111   .     S
C1660  C1661   1.527   .     S
C1660  H1853   1.108   .     S
C1661  H1857   1.111   .     S
C1661  H1856   1.109   .     S
C1661  H1855   1.110   .     S
C1662  C1695   1.424   .     S
C1662  O2031   1.277   .     A
C1662  O2020   1.276   .     A
C1663  H1859   1.109   .     S
C1663  O2072   1.426   .     S
C1663  C1664   1.542   .     S
C1663  H1858   1.111   .     S
C1664  C1665   1.527   .     S
C1664  H1861   1.111   .     S
C1664  H1860   1.106   1_554 S
C1665  H1865   1.110   .     S
C1665  H1864   1.111   .     S
C1665  H1863   1.111   .     S
C1666  H1867   1.105   .     S
C1666  O2073   1.411   .     S
C1666  H1866   1.105   .     S
C1666  C1667   1.532   .     S
C1667  H1869   1.110   .     S
C1667  H1868   1.112   .     S
C1667  C1668   1.526   .     S
C1668  H1871   1.110   .     S
C1668  H1870   1.111   .     S
C1668  H1872   1.110   .     S
C1669  H1875   1.114   .     S
C1669  C1670   1.534   .     S
C1669  H1874   1.111   .     S
C1669  O2075   1.417   .     S
C1670  H1876   1.107   .     S
C1670  C1671   1.526   .     S
C1670  H1877   1.107   1_554 S
C1671  H1880   1.109   .     S
C1671  H1878   1.106   .     S
C1671  H1879   1.110   1_554 S
C1672  O2076   1.415   .     S
C1672  H1882   1.111   .     S
C1672  H1881   1.112   .     S
C1672  C1674   1.531   .     S
C1673  C1694   1.428   .     S
C1673  O2027   1.278   .     A
C1673  O2021   1.278   .     A
C1674  H1886   1.109   .     S
C1674  H1883   1.110   .     S
C1674  C1675   1.529   .     S
C1675  H1889   1.111   .     S
C1675  H1887   1.109   .     S
C1675  H1888   1.110   .     S
C1676  C1677   1.531   .     S
C1676  O2077   1.419   .     S
C1676  H1891   1.105   .     S
C1676  H1890   1.117   .     S
C1677  H1893   1.111   .     S
C1677  H1892   1.106   .     S
C1677  C1678   1.523   .     S
C1678  H1894   1.111   .     S
C1678  H1895   1.110   .     S
C1678  H1897   1.105   .     S
C1679  O2078   1.416   .     S
C1679  C1680   1.531   .     S
C1679  H1898   1.113   .     S
C1679  H1899   1.111   1_556 S
C1680  C1681   1.529   .     S
C1680  H1900   1.110   .     S
C1680  H1901   1.110   .     S
C1681  H1903   1.107   .     S
C1681  H1902   1.110   .     S
C1681  H1904   1.111   .     S
C1682  H1905   1.111   .     S
C1682  C1683   1.523   .     S
C1682  O2079   1.413   .     S
C1682  H1906   1.108   .     S
C1683  H1909   1.111   .     S
C1683  H1908   1.111   .     S
C1683  C1686   1.520   .     S
C1684  C1730   1.457   .     S
C1684  O2052   1.271   .     A
C1685  O2028   1.278   .     A
C1685  C1693   1.428   .     S
C1685  O2022   1.278   .     A
C1686  H1911   1.110   .     S
C1686  H1912   1.108   .     S
C1686  H1910   1.107   .     S
C1687  O2034   1.278   .     A
C1687  C1692   1.425   .     S
C1687  O2023   1.278   .     A
C1688  O2024   1.278   .     A
C1688  O2035   1.278   .     A
C1688  C1691   1.425   .     S
C1689  O2025   1.276   .     A
C1689  C1699   1.427   .     S
C1689  O2032   1.275   .     A
C1690  O2026   1.276   .     A
C1690  O2033   1.275   .     A
C1690  C1698   1.427   .     S
C1691  C1708   1.200   .     T
C1692  C1706   1.200   .     T
C1693  C1705   1.201   .     T
C1694  C1704   1.201   .     T
C1695  C1703   1.199   .     T
C1696  O1999   1.273   .     A
C1696  C1726   1.467   .     S
C1696  O1539   1.273   1_655 S
C1697  C1702   1.199   .     T
C1698  C1701   1.201   .     T
C1699  C1700   1.201   .     T
C1705  C1762   1.428   .     S
C1707  O2000   1.267   .     A
C1707  C1727   1.449   .     S
C1709  O2045   1.391   .     S
C1709  C1739   1.429   .     A
C1709  C1726   1.420   .     A
C1710  O2046   1.384   .     S
C1710  C1741   1.415   .     A
C1710  C1203   1.399   1_655 S
C1711  C1742   1.404   .     A
C1711  O2047   1.390   .     S
C1712  C1730   1.404   .     S
C1712  O2048   1.389   .     S
C1713  O2049   1.386   .     S
C1714  O2050   1.389   .     S
C1714  C1727   1.394   .     A
C1715  O2051   1.397   .     S
C1715  C1737   1.422   .     A
C1715  C1728   1.424   .     A
C1716  O2053   1.390   .     S
C1716  C1738   1.419   .     A
C1716  C682    1.411   1_565 S
C1717  C1748   1.409   .     A
C1717  O2054   1.389   .     S
C1718  C1733   1.465   .     S
C1718  O1477   1.277   1_655 S
C1718  O1481   1.273   1_655 S
C1719  C1749   1.408   .     A
C1719  O2055   1.385   .     S
C1719  C684    1.394   1_565 S
C1720  C1750   1.414   .     A
C1720  C1733   1.413   .     A
C1720  O2056   1.387   .     S
C1721  C1752   1.413   .     A
C1721  O2057   1.385   .     S
C1722  C1744   1.419   .     A
C1722  C1731   1.409   .     A
C1722  O2058   1.389   .     S
C1723  C1745   1.413   .     A
C1723  O2059   1.384   .     S
C1723  C1732   1.398   .     A
C1724  O2060   1.387   .     S
C1724  C1746   1.403   .     A
C1725  C1747   1.411   .     A
C1725  O2061   1.385   .     S
C1725  C1734   1.407   .     A
C1726  C1189   1.396   1_655 S
C1728  C663    1.410   1_565 S
C1729  O2006   1.275   .     A
C1729  O2002   1.273   .     A
C1731  C669    1.404   1_565 S
C1731  C692    1.460   1_565 S
C1732  C1751   1.452   .     S
C1733  C1200   1.409   1_655 S
C1734  C1205   1.463   1_655 S
C1734  C1197   1.407   1_655 S
C1735  C1753   1.417   .     A
C1735  C1761   1.418   .     A
C1735  C1189   1.405   1_655 S
C1736  C1763   1.403   .     A
C1736  C1754   1.408   .     A
C1736  C1190   1.405   1_655 S
C1737  C1755   1.417   .     A
C1737  C1764   1.419   .     A
C1738  C1756   1.419   .     A
C1738  C717    1.426   1_565 S
C1739  C1766   1.438   .     A
C1739  C1753   1.429   .     A
C1740  O2003   1.266   .     S
C1740  O2007   1.277   .     S
C1741  C1754   1.419   .     A
C1741  C1243   1.412   1_655 S
C1742  C1768   1.409   .     A
C1743  C664    1.408   1_565 A
C1743  C1756   1.418   .     A
C1743  C1769   1.415   .     A
C1744  C1770   1.422   .     A
C1744  C1757   1.424   .     A
C1745  C1771   1.409   .     A
C1745  C1758   1.417   .     S
C1746  C1772   1.412   .     A
C1747  C1760   1.413   .     A
C1749  C710    1.411   1_565 A
C1750  C1759   1.415   .     A
C1751  O2009   1.271   .     A
C1751  O2004   1.268   .     A
C1753  C1754   1.413   .     A
C1755  C1756   1.408   .     A
C1755  C694    1.404   1_565 S
C1757  C700    1.418   1_565 S
C1757  C710    1.413   1_566 S
C1758  C709    1.413   1_554 S
C1759  C1222   1.409   1_655 S
C1759  C1760   1.398   1_556 S
C1760  C1228   1.413   1_655 S
C1760  C1759   1.398   1_554 S
C1761  O2062   1.387   .     S
C1761  C1243   1.398   1_655 S
C1762  O2038   1.279   .     A
C1762  O2010   1.278   .     A
C1763  C1766   1.412   .     A
C1763  O2064   1.391   .     S
C1764  O2065   1.384   .     S
C1764  C1769   1.402   .     A
C1765  O2066   1.385   .     S
C1765  C1768   1.425   .     A
C1766  O2067   1.388   .     S
C1767  O2068   1.385   .     S
C1769  O2070   1.387   .     S
C1770  O2071   1.382   .     S
C1770  C1577   1.405   1_556 S
C1771  O2072   1.388   .     S
C1771  C1576   1.402   1_554 S
C1772  O2073   1.390   .     S
C1772  C1579   1.422   1_556 S
H1775  C1102   1.118   1_655 S
H1778  C1104   1.111   1_655 S
H1820  C1122   1.111   1_655 S
H1838  C606    1.111   1_565 S
H1846  C609    1.111   1_565 S
H1860  C1664   1.106   1_556 S
H1877  C1670   1.107   1_556 S
H1879  C1671   1.110   1_556 S
H1899  C1679   1.111   1_554 S
H1972  C1091   1.111   1_655 S
O1997  Zn2084  1.939   .     S
O1997  Zn2081  1.939   .     S
O1997  Zn2092  1.932   .     S
O1998  Zn2083  1.945   .     S
O1998  C636    1.273   1_565 S
O1999  Zn2086  1.947   .     S
O2000  Zn2085  1.947   .     S
O2001  Zn2095  1.946   .     S
O2002  Zn2094  1.946   .     S
O2003  Zn2089  1.943   .     S
O2004  Zn2081  1.943   .     S
O2005  Zn2091  1.945   .     S
O2006  Zn2090  1.945   .     S
O2007  Zn2093  1.947   .     S
O2008  Zn2087  1.937   .     S
O2008  Zn2089  1.939   .     S
O2008  Zn2093  1.932   .     S
O2009  Zn2092  1.947   .     S
O2010  Zn2084  1.922   .     S
O2011  Zn2083  1.922   .     S
O2012  Zn2086  1.919   .     S
O2013  Zn2085  1.919   .     S
O2014  Zn2088  1.920   .     S
O2015  Zn2087  1.920   .     S
O2016  Zn2082  1.917   .     S
O2017  Zn2096  1.917   .     S
O2018  Zn2083  1.916   .     S
O2019  Zn2090  1.939   .     S
O2019  Zn2082  1.939   .     S
O2019  Zn2094  1.937   .     S
O2020  Zn2084  1.916   .     S
O2021  Zn2096  1.921   .     S
O2022  Zn2082  1.921   .     S
O2023  Zn2087  1.918   .     S
O2024  Zn2088  1.918   .     S
O2025  Zn2085  1.922   .     S
O2026  Zn2086  1.922   .     S
O2027  Zn1567  1.922   1_655 S
O2028  Zn2090  1.922   .     S
O2029  Zn1045  1.919   1_565 S
O2030  Zn2091  1.939   .     S
O2030  Zn2095  1.937   .     S
O2030  Zn2085  1.932   .     S
O2031  Zn2092  1.919   .     S
O2032  Zn2095  1.920   .     S
O2033  Zn1570  1.920   1_655 S
O2034  Zn2089  1.917   .     S
O2035  Zn1033  1.917   1_565 S
O2036  Zn1566  1.916   1_655 S
O2037  Zn2091  1.916   .     S
O2038  Zn2081  1.921   .     S
O2039  Zn1041  1.921   1_565 S
O2040  Zn2094  1.918   .     S
O2041  Zn2088  1.946   .     S
O2042  Zn1571  1.918   1_655 S
O2043  Zn1044  1.922   1_565 S
O2044  Zn2093  1.922   .     S
O2045  C1056   1.430   1_655 S
O2052  Zn2087  1.946   .     S
O2063  Zn2082  1.943   .     S
O2067  C1122   1.422   1_655 S
O2069  C720    1.391   1_565 S
O2069  C605    1.409   1_565 S
O2070  C608    1.415   1_565 S
O2074  Zn2096  1.943   .     S
O2074  C1183   1.270   1_655 S
O2080  Zn2084  1.945   .     S
Zn2083 O960    1.939   1_565 S
Zn2086 O1495   1.932   1_655 S
Zn2088 O949    1.937   1_565 S
Zn2096 O1506   1.939   1_655 S
