data_str_m1_o10_o18_pcu_sym.157
_audit_creation_date              2020-01-03
_audit_creation_method            'Materials Studio'
_symmetry_space_group_name_H-M    'P1'
_symmetry_Int_Tables_number       1
_symmetry_cell_setting            triclinic
loop_
_symmetry_equiv_pos_as_xyz
  x,y,z
_cell_length_a                    32.3926
_cell_length_b                    32.6257
_cell_length_c                    35.8233
_cell_angle_alpha                 98.0758
_cell_angle_beta                  73.1604
_cell_angle_gamma                 98.4510
loop_
_atom_site_label
_atom_site_type_symbol
_atom_site_fract_x
_atom_site_fract_y
_atom_site_fract_z
_atom_site_U_iso_or_equiv
_atom_site_adp_type
_atom_site_occupancy
C1     C     0.05249   0.15984   0.25890   0.00000  Uiso   1.00
C2     C     0.22803   0.16936   0.46235   0.00000  Uiso   1.00
C3     C     0.25128   0.15133   0.48169   0.00000  Uiso   1.00
C4     C     0.28105   0.17353   0.24121   0.00000  Uiso   1.00
C5     C     0.23335   0.14609   0.02169   0.00000  Uiso   1.00
C6     C     0.19373   0.16262   0.04256   0.00000  Uiso   1.00
C7     C     0.25447   0.12534   0.04157   0.00000  Uiso   1.00
C8     C     0.23841   0.12324   0.08162   0.00000  Uiso   1.00
C9     C     0.17520   0.15439   0.08190   0.00000  Uiso   1.00
C10    C     0.32712   0.17600   0.23759   0.00000  Uiso   1.00
C11    C     0.00707   0.15760   0.26233   0.00000  Uiso   1.00
C12    C     0.10767   0.22526   0.42173   0.00000  Uiso   1.00
C13    C     0.18219   0.32267   0.23981   0.00000  Uiso   1.00
C14    C     0.15063   0.01233   0.26194   0.00000  Uiso   1.00
C15    C     0.15547   0.05639   0.25920   0.00000  Uiso   1.00
C16    C     0.17737   0.27783   0.24201   0.00000  Uiso   1.00
C17    C     0.18815   0.14550   0.14416   0.00000  Uiso   1.00
C18    C     0.14530   0.18745   0.35654   0.00000  Uiso   1.00
C19    C     0.13815   0.19731   0.39997   0.00000  Uiso   1.00
C20    C     0.19885   0.13776   0.10179   0.00000  Uiso   1.00
C21    C     0.10284   0.23569   0.46173   0.00000  Uiso   1.00
C22    C     0.22212   0.00816   0.21240   0.00000  Uiso   1.00
C23    C     0.16265   0.17971   0.42023   0.00000  Uiso   1.00
C24    C     0.21981   0.02442   0.17888   0.00000  Uiso   1.00
C25    C     0.25765   0.04058   0.15253   0.00000  Uiso   1.00
C26    C     0.29793   0.04115   0.15965   0.00000  Uiso   1.00
C27    C     0.30047   0.02513   0.19300   0.00000  Uiso   1.00
C28    C     0.26273   0.00851   0.21927   0.00000  Uiso   1.00
C29    C     0.07634   0.32860   0.27754   0.00000  Uiso   1.00
C30    C     0.04936   0.02877   0.30328   0.00000  Uiso   1.00
C31    C     0.00616   0.02746   0.29390   0.00000  Uiso   1.00
C32    C     0.29278   0.13557   0.45865   0.00000  Uiso   1.00
C33    C     0.33206   0.15214   0.46703   0.00000  Uiso   1.00
C34    C     0.16012   0.19429   0.46035   0.00000  Uiso   1.00
C35    C     0.03693   0.13435   0.44731   0.00000  Uiso   1.00
C36    C     0.03645   0.10097   0.41826   0.00000  Uiso   1.00
C37    C     0.33088   0.08477   0.40952   0.00000  Uiso   1.00
C38    C     0.29250   0.10179   0.42980   0.00000  Uiso   1.00
C39    C     0.07790   0.24292   0.40508   0.00000  Uiso   1.00
C40    C     0.07936   0.28631   0.40630   0.00000  Uiso   1.00
C41    C     0.05019   0.30344   0.39252   0.00000  Uiso   1.00
C42    C     0.01920   0.27741   0.37746   0.00000  Uiso   1.00
C43    C     0.01715   0.23420   0.37646   0.00000  Uiso   1.00
C44    C     0.04612   0.21698   0.39047   0.00000  Uiso   1.00
C45    C     0.12788   0.22020   0.48105   0.00000  Uiso   1.00
C46    C     0.18159   0.13976   0.40320   0.00000  Uiso   1.00
C47    C     0.22230   0.13892   0.37499   0.00000  Uiso   1.00
C48    C     0.23762   0.10097   0.35765   0.00000  Uiso   1.00
C49    C     0.21317   0.06353   0.36886   0.00000  Uiso   1.00
C50    C     0.17349   0.06403   0.39770   0.00000  Uiso   1.00
C51    C     0.15777   0.10192   0.41485   0.00000  Uiso   1.00
C52    C     0.13647   0.23204   0.08426   0.00000  Uiso   1.00
C53    C     0.09466   0.23234   0.11047   0.00000  Uiso   1.00
C54    C     0.08927   0.24913   0.14947   0.00000  Uiso   1.00
C55    C     0.12546   0.26558   0.16266   0.00000  Uiso   1.00
C56    C     0.18674   0.18194   0.48145   0.00000  Uiso   1.00
C57    C     0.16709   0.26562   0.13680   0.00000  Uiso   1.00
C58    C     0.17262   0.24950   0.09764   0.00000  Uiso   1.00
C59    C     0.17348   0.18566   0.02308   0.00000  Uiso   1.00
C60    C     0.14229   0.21379   0.04289   0.00000  Uiso   1.00
C61    C     0.12038   0.23067   0.02138   0.00000  Uiso   1.00
H62    H     0.09714   0.25251   0.03636   0.00000  Uiso   1.00
H63    H     0.25576   0.05218   0.12636   0.00000  Uiso   1.00
H64    H     0.32719   0.05371   0.13919   0.00000  Uiso   1.00
H65    H     0.33174   0.02530   0.19828   0.00000  Uiso   1.00
H66    H     0.26509   0.32926   0.24490   0.00000  Uiso   1.00
H67    H     0.05715   0.29766   0.28213   0.00000  Uiso   1.00
H68    H     0.08231   0.33250   0.24585   0.00000  Uiso   1.00
H69    H     0.04309   0.02364   0.33442   0.00000  Uiso   1.00
H70    H     0.06753   0.06015   0.29902   0.00000  Uiso   1.00
H71    H     0.01179   0.03417   0.26319   0.00000  Uiso   1.00
H72    H     0.32045   0.05142   0.31377   0.00000  Uiso   1.00
H73    H     0.28445   0.11215   0.02693   0.00000  Uiso   1.00
H74    H     0.32045   0.32977   0.29817   0.00000  Uiso   1.00
H75    H     0.33283   0.17804   0.48942   0.00000  Uiso   1.00
H76    H     0.06686   0.14651   0.45450   0.00000  Uiso   1.00
H77    H     0.06609   0.08750   0.40270   0.00000  Uiso   1.00
H78    H     0.33013   0.05852   0.38760   0.00000  Uiso   1.00
H79    H     0.26231   0.08796   0.42388   0.00000  Uiso   1.00
H80    H     0.10295   0.30682   0.41819   0.00000  Uiso   1.00
H81    H     0.05149   0.00357   0.39379   0.00000  Uiso   1.00
H82    H     0.33000   0.29073   0.36673   0.00000  Uiso   1.00
H83    H     0.32641   0.21404   0.36490   0.00000  Uiso   1.00
H84    H     0.01699   0.19276   0.21475   0.00000  Uiso   1.00
H85    H     0.04424   0.18350   0.38929   0.00000  Uiso   1.00
H86    H     0.24140   0.16771   0.36567   0.00000  Uiso   1.00
H87    H     0.26844   0.10064   0.33555   0.00000  Uiso   1.00
H88    H     0.22516   0.03416   0.35545   0.00000  Uiso   1.00
H89    H     0.15482   0.03504   0.40666   0.00000  Uiso   1.00
H90    H     0.12684   0.10175   0.43696   0.00000  Uiso   1.00
H91    H     0.06634   0.21915   0.10080   0.00000  Uiso   1.00
H92    H     0.05705   0.24922   0.16951   0.00000  Uiso   1.00
H93    H     0.12117   0.27831   0.19290   0.00000  Uiso   1.00
H94    H     0.19516   0.27799   0.14702   0.00000  Uiso   1.00
H95    H     0.31794   0.14094   0.28555   0.00000  Uiso   1.00
H96    H     0.20507   0.25002   0.07789   0.00000  Uiso   1.00
H97    H     0.14322   0.16218   0.09816   0.00000  Uiso   1.00
H98    H     0.25752   0.11138   0.09708   0.00000  Uiso   1.00
H99    H     0.07841   0.25581   0.47824   0.00000  Uiso   1.00
H100   H     0.24390   0.17591   0.43268   0.00000  Uiso   1.00
H101   H     0.18886   0.02384   0.17280   0.00000  Uiso   1.00
O102   O     0.16667   0.16667   0.25000   0.00000  Uiso   1.00
O103   O     0.15693   0.12393   0.16625   0.00000  Uiso   1.00
O104   O     0.12687   0.20646   0.33749   0.00000  Uiso   1.00
O105   O     0.21088   0.17493   0.15877   0.00000  Uiso   1.00
O106   O     0.17198   0.16135   0.33749   0.00000  Uiso   1.00
O107   O     0.11456   0.32853   0.28918   0.00000  Uiso   1.00
O108   O     0.17849   0.08101   0.27820   0.00000  Uiso   1.00
O109   O     0.14581   0.26136   0.26767   0.00000  Uiso   1.00
O110   O     0.07452   0.13251   0.23607   0.00000  Uiso   1.00
O111   O     0.26785   0.19179   0.21805   0.00000  Uiso   1.00
O112   O     0.06990   0.18960   0.27820   0.00000  Uiso   1.00
O113   O     0.25440   0.15277   0.26767   0.00000  Uiso   1.00
O114   O     0.13800   0.06903   0.23607   0.00000  Uiso   1.00
O115   O     0.20437   0.25527   0.21805   0.00000  Uiso   1.00
Zn116  Zn    0.19244   0.14090   0.28277   0.00000  Uiso   1.00
Zn117  Zn    0.13459   0.12378   0.22257   0.00000  Uiso   1.00
Zn118  Zn    0.21166   0.19664   0.21188   0.00000  Uiso   1.00
Zn119  Zn    0.12798   0.20535   0.28277   0.00000  Uiso   1.00
C120   C     0.38582   0.15984   0.25890   0.00000  Uiso   1.00
C121   C     0.56137   0.16936   0.46235   0.00000  Uiso   1.00
C122   C     0.58462   0.15133   0.48169   0.00000  Uiso   1.00
C123   C     0.61438   0.17353   0.24121   0.00000  Uiso   1.00
C124   C     0.56668   0.14609   0.02169   0.00000  Uiso   1.00
C125   C     0.52707   0.16262   0.04256   0.00000  Uiso   1.00
C126   C     0.58780   0.12534   0.04157   0.00000  Uiso   1.00
C127   C     0.57174   0.12324   0.08162   0.00000  Uiso   1.00
C128   C     0.50854   0.15439   0.08190   0.00000  Uiso   1.00
C129   C     0.66046   0.17600   0.23759   0.00000  Uiso   1.00
C130   C     0.34041   0.15760   0.26233   0.00000  Uiso   1.00
C131   C     0.44100   0.22526   0.42173   0.00000  Uiso   1.00
C132   C     0.51552   0.32267   0.23981   0.00000  Uiso   1.00
C133   C     0.48396   0.01233   0.26194   0.00000  Uiso   1.00
C134   C     0.48880   0.05639   0.25920   0.00000  Uiso   1.00
C135   C     0.51070   0.27783   0.24201   0.00000  Uiso   1.00
C136   C     0.52148   0.14550   0.14416   0.00000  Uiso   1.00
C137   C     0.47863   0.18745   0.35654   0.00000  Uiso   1.00
C138   C     0.47148   0.19731   0.39997   0.00000  Uiso   1.00
C139   C     0.53218   0.13776   0.10179   0.00000  Uiso   1.00
C140   C     0.43617   0.23569   0.46173   0.00000  Uiso   1.00
C141   C     0.55545   0.00816   0.21240   0.00000  Uiso   1.00
C142   C     0.49598   0.17971   0.42023   0.00000  Uiso   1.00
C143   C     0.55314   0.02442   0.17888   0.00000  Uiso   1.00
C144   C     0.59099   0.04058   0.15253   0.00000  Uiso   1.00
C145   C     0.63127   0.04115   0.15965   0.00000  Uiso   1.00
C146   C     0.63380   0.02513   0.19300   0.00000  Uiso   1.00
C147   C     0.59606   0.00851   0.21927   0.00000  Uiso   1.00
C148   C     0.40968   0.32860   0.27754   0.00000  Uiso   1.00
C149   C     0.38270   0.02877   0.30328   0.00000  Uiso   1.00
C150   C     0.33949   0.02746   0.29390   0.00000  Uiso   1.00
C151   C     0.62612   0.13557   0.45865   0.00000  Uiso   1.00
C152   C     0.66539   0.15214   0.46703   0.00000  Uiso   1.00
C153   C     0.49345   0.19429   0.46035   0.00000  Uiso   1.00
C154   C     0.37026   0.13435   0.44731   0.00000  Uiso   1.00
C155   C     0.36978   0.10097   0.41826   0.00000  Uiso   1.00
C156   C     0.66421   0.08477   0.40952   0.00000  Uiso   1.00
C157   C     0.62583   0.10179   0.42980   0.00000  Uiso   1.00
C158   C     0.41123   0.24292   0.40508   0.00000  Uiso   1.00
C159   C     0.41270   0.28631   0.40630   0.00000  Uiso   1.00
C160   C     0.38352   0.30344   0.39252   0.00000  Uiso   1.00
C161   C     0.35253   0.27741   0.37746   0.00000  Uiso   1.00
C162   C     0.35049   0.23420   0.37646   0.00000  Uiso   1.00
C163   C     0.37945   0.21698   0.39047   0.00000  Uiso   1.00
C164   C     0.46121   0.22020   0.48105   0.00000  Uiso   1.00
C165   C     0.51492   0.13976   0.40320   0.00000  Uiso   1.00
C166   C     0.55563   0.13892   0.37499   0.00000  Uiso   1.00
C167   C     0.57095   0.10097   0.35765   0.00000  Uiso   1.00
C168   C     0.54651   0.06353   0.36886   0.00000  Uiso   1.00
C169   C     0.50683   0.06403   0.39770   0.00000  Uiso   1.00
C170   C     0.49110   0.10192   0.41485   0.00000  Uiso   1.00
C171   C     0.46980   0.23204   0.08426   0.00000  Uiso   1.00
C172   C     0.42799   0.23234   0.11047   0.00000  Uiso   1.00
C173   C     0.42261   0.24913   0.14947   0.00000  Uiso   1.00
C174   C     0.45879   0.26558   0.16266   0.00000  Uiso   1.00
C175   C     0.52007   0.18194   0.48145   0.00000  Uiso   1.00
C176   C     0.50042   0.26562   0.13680   0.00000  Uiso   1.00
C177   C     0.50595   0.24950   0.09764   0.00000  Uiso   1.00
C178   C     0.50682   0.18566   0.02308   0.00000  Uiso   1.00
C179   C     0.47562   0.21379   0.04289   0.00000  Uiso   1.00
C180   C     0.45371   0.23067   0.02138   0.00000  Uiso   1.00
H181   H     0.43047   0.25251   0.03636   0.00000  Uiso   1.00
H182   H     0.58910   0.05218   0.12636   0.00000  Uiso   1.00
H183   H     0.66053   0.05371   0.13919   0.00000  Uiso   1.00
H184   H     0.66507   0.02530   0.19828   0.00000  Uiso   1.00
H185   H     0.59842   0.32926   0.24490   0.00000  Uiso   1.00
H186   H     0.39049   0.29766   0.28213   0.00000  Uiso   1.00
H187   H     0.41564   0.33250   0.24585   0.00000  Uiso   1.00
H188   H     0.37642   0.02364   0.33442   0.00000  Uiso   1.00
H189   H     0.40086   0.06015   0.29902   0.00000  Uiso   1.00
H190   H     0.34513   0.03417   0.26319   0.00000  Uiso   1.00
H191   H     0.65379   0.05142   0.31377   0.00000  Uiso   1.00
H192   H     0.61778   0.11215   0.02693   0.00000  Uiso   1.00
H193   H     0.65378   0.32977   0.29817   0.00000  Uiso   1.00
H194   H     0.66616   0.17804   0.48942   0.00000  Uiso   1.00
H195   H     0.40019   0.14651   0.45450   0.00000  Uiso   1.00
H196   H     0.39943   0.08750   0.40270   0.00000  Uiso   1.00
H197   H     0.66346   0.05852   0.38760   0.00000  Uiso   1.00
H198   H     0.59564   0.08796   0.42388   0.00000  Uiso   1.00
H199   H     0.43629   0.30682   0.41819   0.00000  Uiso   1.00
H200   H     0.38483   0.00357   0.39379   0.00000  Uiso   1.00
H201   H     0.66334   0.29073   0.36673   0.00000  Uiso   1.00
H202   H     0.65974   0.21404   0.36490   0.00000  Uiso   1.00
H203   H     0.35032   0.19276   0.21475   0.00000  Uiso   1.00
H204   H     0.37757   0.18350   0.38929   0.00000  Uiso   1.00
H205   H     0.57473   0.16771   0.36567   0.00000  Uiso   1.00
H206   H     0.60177   0.10064   0.33555   0.00000  Uiso   1.00
H207   H     0.55849   0.03416   0.35545   0.00000  Uiso   1.00
H208   H     0.48815   0.03504   0.40666   0.00000  Uiso   1.00
H209   H     0.46018   0.10175   0.43696   0.00000  Uiso   1.00
H210   H     0.39967   0.21915   0.10080   0.00000  Uiso   1.00
H211   H     0.39038   0.24922   0.16951   0.00000  Uiso   1.00
H212   H     0.45450   0.27831   0.19290   0.00000  Uiso   1.00
H213   H     0.52849   0.27799   0.14702   0.00000  Uiso   1.00
H214   H     0.65128   0.14094   0.28555   0.00000  Uiso   1.00
H215   H     0.53841   0.25002   0.07789   0.00000  Uiso   1.00
H216   H     0.47655   0.16218   0.09816   0.00000  Uiso   1.00
H217   H     0.59085   0.11138   0.09708   0.00000  Uiso   1.00
H218   H     0.41175   0.25581   0.47824   0.00000  Uiso   1.00
H219   H     0.57723   0.17591   0.43268   0.00000  Uiso   1.00
H220   H     0.52219   0.02384   0.17280   0.00000  Uiso   1.00
O221   O     0.50000   0.16667   0.25000   0.00000  Uiso   1.00
O222   O     0.49027   0.12393   0.16625   0.00000  Uiso   1.00
O223   O     0.46020   0.20646   0.33749   0.00000  Uiso   1.00
O224   O     0.54421   0.17493   0.15877   0.00000  Uiso   1.00
O225   O     0.50532   0.16135   0.33749   0.00000  Uiso   1.00
O226   O     0.44789   0.32853   0.28918   0.00000  Uiso   1.00
O227   O     0.51182   0.08101   0.27820   0.00000  Uiso   1.00
O228   O     0.47914   0.26136   0.26767   0.00000  Uiso   1.00
O229   O     0.40785   0.13251   0.23607   0.00000  Uiso   1.00
O230   O     0.60119   0.19179   0.21805   0.00000  Uiso   1.00
O231   O     0.40323   0.18960   0.27820   0.00000  Uiso   1.00
O232   O     0.58773   0.15277   0.26767   0.00000  Uiso   1.00
O233   O     0.47133   0.06903   0.23607   0.00000  Uiso   1.00
O234   O     0.53771   0.25527   0.21805   0.00000  Uiso   1.00
Zn235  Zn    0.52577   0.14090   0.28277   0.00000  Uiso   1.00
Zn236  Zn    0.46792   0.12378   0.22257   0.00000  Uiso   1.00
Zn237  Zn    0.54500   0.19664   0.21188   0.00000  Uiso   1.00
Zn238  Zn    0.46131   0.20535   0.28277   0.00000  Uiso   1.00
C239   C     0.71916   0.15984   0.25890   0.00000  Uiso   1.00
C240   C     0.89470   0.16936   0.46235   0.00000  Uiso   1.00
C241   C     0.91795   0.15133   0.48169   0.00000  Uiso   1.00
C242   C     0.94771   0.17353   0.24121   0.00000  Uiso   1.00
C243   C     0.90001   0.14609   0.02169   0.00000  Uiso   1.00
C244   C     0.86040   0.16262   0.04256   0.00000  Uiso   1.00
C245   C     0.92113   0.12534   0.04157   0.00000  Uiso   1.00
C246   C     0.90507   0.12324   0.08162   0.00000  Uiso   1.00
C247   C     0.84187   0.15439   0.08190   0.00000  Uiso   1.00
C248   C     0.99379   0.17600   0.23759   0.00000  Uiso   1.00
C249   C     0.67374   0.15760   0.26233   0.00000  Uiso   1.00
C250   C     0.77434   0.22526   0.42173   0.00000  Uiso   1.00
C251   C     0.84885   0.32267   0.23981   0.00000  Uiso   1.00
C252   C     0.81730   0.01233   0.26194   0.00000  Uiso   1.00
C253   C     0.82213   0.05639   0.25920   0.00000  Uiso   1.00
C254   C     0.84403   0.27783   0.24201   0.00000  Uiso   1.00
C255   C     0.85482   0.14550   0.14416   0.00000  Uiso   1.00
C256   C     0.81196   0.18745   0.35654   0.00000  Uiso   1.00
C257   C     0.80481   0.19731   0.39997   0.00000  Uiso   1.00
C258   C     0.86551   0.13776   0.10179   0.00000  Uiso   1.00
C259   C     0.76950   0.23569   0.46173   0.00000  Uiso   1.00
C260   C     0.88878   0.00816   0.21240   0.00000  Uiso   1.00
C261   C     0.82931   0.17971   0.42023   0.00000  Uiso   1.00
C262   C     0.88648   0.02442   0.17888   0.00000  Uiso   1.00
C263   C     0.92432   0.04058   0.15253   0.00000  Uiso   1.00
C264   C     0.96460   0.04115   0.15965   0.00000  Uiso   1.00
C265   C     0.96714   0.02513   0.19300   0.00000  Uiso   1.00
C266   C     0.92939   0.00851   0.21927   0.00000  Uiso   1.00
C267   C     0.74301   0.32860   0.27754   0.00000  Uiso   1.00
C268   C     0.71603   0.02877   0.30328   0.00000  Uiso   1.00
C269   C     0.67282   0.02746   0.29390   0.00000  Uiso   1.00
C270   C     0.95945   0.13557   0.45865   0.00000  Uiso   1.00
C271   C     0.99873   0.15214   0.46703   0.00000  Uiso   1.00
C272   C     0.82679   0.19429   0.46035   0.00000  Uiso   1.00
C273   C     0.70359   0.13435   0.44731   0.00000  Uiso   1.00
C274   C     0.70312   0.10097   0.41826   0.00000  Uiso   1.00
C275   C     0.99754   0.08477   0.40952   0.00000  Uiso   1.00
C276   C     0.95916   0.10179   0.42980   0.00000  Uiso   1.00
C277   C     0.74456   0.24292   0.40508   0.00000  Uiso   1.00
C278   C     0.74603   0.28631   0.40630   0.00000  Uiso   1.00
C279   C     0.71685   0.30344   0.39252   0.00000  Uiso   1.00
C280   C     0.68587   0.27741   0.37746   0.00000  Uiso   1.00
C281   C     0.68382   0.23420   0.37646   0.00000  Uiso   1.00
C282   C     0.71279   0.21698   0.39047   0.00000  Uiso   1.00
C283   C     0.79455   0.22020   0.48105   0.00000  Uiso   1.00
C284   C     0.84826   0.13976   0.40320   0.00000  Uiso   1.00
C285   C     0.88897   0.13892   0.37499   0.00000  Uiso   1.00
C286   C     0.90429   0.10097   0.35765   0.00000  Uiso   1.00
C287   C     0.87984   0.06353   0.36886   0.00000  Uiso   1.00
C288   C     0.84016   0.06403   0.39770   0.00000  Uiso   1.00
C289   C     0.82443   0.10192   0.41485   0.00000  Uiso   1.00
C290   C     0.80314   0.23204   0.08426   0.00000  Uiso   1.00
C291   C     0.76133   0.23234   0.11047   0.00000  Uiso   1.00
C292   C     0.75594   0.24913   0.14947   0.00000  Uiso   1.00
C293   C     0.79213   0.26558   0.16266   0.00000  Uiso   1.00
C294   C     0.85340   0.18194   0.48145   0.00000  Uiso   1.00
C295   C     0.83375   0.26562   0.13680   0.00000  Uiso   1.00
C296   C     0.83929   0.24950   0.09764   0.00000  Uiso   1.00
C297   C     0.84015   0.18566   0.02308   0.00000  Uiso   1.00
C298   C     0.80895   0.21379   0.04289   0.00000  Uiso   1.00
C299   C     0.78705   0.23067   0.02138   0.00000  Uiso   1.00
H300   H     0.76381   0.25251   0.03636   0.00000  Uiso   1.00
H301   H     0.92243   0.05218   0.12636   0.00000  Uiso   1.00
H302   H     0.99386   0.05371   0.13919   0.00000  Uiso   1.00
H303   H     0.99840   0.02530   0.19828   0.00000  Uiso   1.00
H304   H     0.93176   0.32926   0.24490   0.00000  Uiso   1.00
H305   H     0.72382   0.29766   0.28213   0.00000  Uiso   1.00
H306   H     0.74897   0.33250   0.24585   0.00000  Uiso   1.00
H307   H     0.70975   0.02364   0.33442   0.00000  Uiso   1.00
H308   H     0.73419   0.06015   0.29902   0.00000  Uiso   1.00
H309   H     0.67846   0.03417   0.26319   0.00000  Uiso   1.00
H310   H     0.98712   0.05142   0.31377   0.00000  Uiso   1.00
H311   H     0.95111   0.11215   0.02693   0.00000  Uiso   1.00
H312   H     0.98712   0.32977   0.29817   0.00000  Uiso   1.00
H313   H     0.99950   0.17804   0.48942   0.00000  Uiso   1.00
H314   H     0.73353   0.14651   0.45450   0.00000  Uiso   1.00
H315   H     0.73276   0.08750   0.40270   0.00000  Uiso   1.00
H316   H     0.99679   0.05852   0.38760   0.00000  Uiso   1.00
H317   H     0.92898   0.08796   0.42388   0.00000  Uiso   1.00
H318   H     0.76962   0.30682   0.41819   0.00000  Uiso   1.00
H319   H     0.71816   0.00357   0.39379   0.00000  Uiso   1.00
H320   H     0.99667   0.29073   0.36673   0.00000  Uiso   1.00
H321   H     0.99308   0.21404   0.36490   0.00000  Uiso   1.00
H322   H     0.68366   0.19276   0.21475   0.00000  Uiso   1.00
H323   H     0.71090   0.18350   0.38929   0.00000  Uiso   1.00
H324   H     0.90807   0.16771   0.36567   0.00000  Uiso   1.00
H325   H     0.93510   0.10064   0.33555   0.00000  Uiso   1.00
H326   H     0.89183   0.03416   0.35545   0.00000  Uiso   1.00
H327   H     0.82148   0.03504   0.40666   0.00000  Uiso   1.00
H328   H     0.79351   0.10175   0.43696   0.00000  Uiso   1.00
H329   H     0.73300   0.21915   0.10080   0.00000  Uiso   1.00
H330   H     0.72372   0.24922   0.16951   0.00000  Uiso   1.00
H331   H     0.78784   0.27831   0.19290   0.00000  Uiso   1.00
H332   H     0.86182   0.27799   0.14702   0.00000  Uiso   1.00
H333   H     0.98461   0.14094   0.28555   0.00000  Uiso   1.00
H334   H     0.87174   0.25002   0.07789   0.00000  Uiso   1.00
H335   H     0.80989   0.16218   0.09816   0.00000  Uiso   1.00
H336   H     0.92419   0.11138   0.09708   0.00000  Uiso   1.00
H337   H     0.74508   0.25581   0.47824   0.00000  Uiso   1.00
H338   H     0.91057   0.17591   0.43268   0.00000  Uiso   1.00
H339   H     0.85552   0.02384   0.17280   0.00000  Uiso   1.00
O340   O     0.83333   0.16667   0.25000   0.00000  Uiso   1.00
O341   O     0.82360   0.12393   0.16625   0.00000  Uiso   1.00
O342   O     0.79354   0.20646   0.33749   0.00000  Uiso   1.00
O343   O     0.87755   0.17493   0.15877   0.00000  Uiso   1.00
O344   O     0.83865   0.16135   0.33749   0.00000  Uiso   1.00
O345   O     0.78122   0.32853   0.28918   0.00000  Uiso   1.00
O346   O     0.84515   0.08101   0.27820   0.00000  Uiso   1.00
O347   O     0.81247   0.26136   0.26767   0.00000  Uiso   1.00
O348   O     0.74119   0.13251   0.23607   0.00000  Uiso   1.00
O349   O     0.93452   0.19179   0.21805   0.00000  Uiso   1.00
O350   O     0.73656   0.18960   0.27820   0.00000  Uiso   1.00
O351   O     0.92106   0.15277   0.26767   0.00000  Uiso   1.00
O352   O     0.80467   0.06903   0.23607   0.00000  Uiso   1.00
O353   O     0.87104   0.25527   0.21805   0.00000  Uiso   1.00
Zn354  Zn    0.85910   0.14090   0.28277   0.00000  Uiso   1.00
Zn355  Zn    0.80125   0.12378   0.22257   0.00000  Uiso   1.00
Zn356  Zn    0.87833   0.19664   0.21188   0.00000  Uiso   1.00
Zn357  Zn    0.79465   0.20535   0.28277   0.00000  Uiso   1.00
C358   C     0.05249   0.49317   0.25890   0.00000  Uiso   1.00
C359   C     0.22803   0.50270   0.46235   0.00000  Uiso   1.00
C360   C     0.25128   0.48467   0.48169   0.00000  Uiso   1.00
C361   C     0.28105   0.50686   0.24121   0.00000  Uiso   1.00
C362   C     0.23335   0.47943   0.02169   0.00000  Uiso   1.00
C363   C     0.19373   0.49595   0.04256   0.00000  Uiso   1.00
C364   C     0.25447   0.45867   0.04157   0.00000  Uiso   1.00
C365   C     0.23841   0.45657   0.08162   0.00000  Uiso   1.00
C366   C     0.17520   0.48772   0.08190   0.00000  Uiso   1.00
C367   C     0.32712   0.50933   0.23759   0.00000  Uiso   1.00
C368   C     0.00707   0.49093   0.26233   0.00000  Uiso   1.00
C369   C     0.10767   0.55859   0.42173   0.00000  Uiso   1.00
C370   C     0.18219   0.65600   0.23981   0.00000  Uiso   1.00
C371   C     0.15063   0.34566   0.26194   0.00000  Uiso   1.00
C372   C     0.15547   0.38972   0.25920   0.00000  Uiso   1.00
C373   C     0.17737   0.61116   0.24201   0.00000  Uiso   1.00
C374   C     0.18815   0.47883   0.14416   0.00000  Uiso   1.00
C375   C     0.14530   0.52078   0.35654   0.00000  Uiso   1.00
C376   C     0.13815   0.53064   0.39997   0.00000  Uiso   1.00
C377   C     0.19885   0.47110   0.10179   0.00000  Uiso   1.00
C378   C     0.10284   0.56902   0.46173   0.00000  Uiso   1.00
C379   C     0.22212   0.34149   0.21240   0.00000  Uiso   1.00
C380   C     0.16265   0.51305   0.42023   0.00000  Uiso   1.00
C381   C     0.21981   0.35775   0.17888   0.00000  Uiso   1.00
C382   C     0.25765   0.37391   0.15253   0.00000  Uiso   1.00
C383   C     0.29793   0.37448   0.15965   0.00000  Uiso   1.00
C384   C     0.30047   0.35846   0.19300   0.00000  Uiso   1.00
C385   C     0.26273   0.34184   0.21927   0.00000  Uiso   1.00
C386   C     0.07634   0.66194   0.27754   0.00000  Uiso   1.00
C387   C     0.04936   0.36210   0.30328   0.00000  Uiso   1.00
C388   C     0.00616   0.36080   0.29390   0.00000  Uiso   1.00
C389   C     0.29278   0.46890   0.45865   0.00000  Uiso   1.00
C390   C     0.33206   0.48547   0.46703   0.00000  Uiso   1.00
C391   C     0.16012   0.52763   0.46035   0.00000  Uiso   1.00
C392   C     0.03693   0.46768   0.44731   0.00000  Uiso   1.00
C393   C     0.03645   0.43430   0.41826   0.00000  Uiso   1.00
C394   C     0.33088   0.41810   0.40952   0.00000  Uiso   1.00
C395   C     0.29250   0.43513   0.42980   0.00000  Uiso   1.00
C396   C     0.07790   0.57625   0.40508   0.00000  Uiso   1.00
C397   C     0.07936   0.61965   0.40630   0.00000  Uiso   1.00
C398   C     0.05019   0.63677   0.39252   0.00000  Uiso   1.00
C399   C     0.01920   0.61075   0.37746   0.00000  Uiso   1.00
C400   C     0.01715   0.56754   0.37646   0.00000  Uiso   1.00
C401   C     0.04612   0.55031   0.39047   0.00000  Uiso   1.00
C402   C     0.12788   0.55353   0.48105   0.00000  Uiso   1.00
C403   C     0.18159   0.47310   0.40320   0.00000  Uiso   1.00
C404   C     0.22230   0.47226   0.37499   0.00000  Uiso   1.00
C405   C     0.23762   0.43430   0.35765   0.00000  Uiso   1.00
C406   C     0.21317   0.39686   0.36886   0.00000  Uiso   1.00
C407   C     0.17349   0.39737   0.39770   0.00000  Uiso   1.00
C408   C     0.15777   0.43525   0.41485   0.00000  Uiso   1.00
C409   C     0.13647   0.56537   0.08426   0.00000  Uiso   1.00
C410   C     0.09466   0.56568   0.11047   0.00000  Uiso   1.00
C411   C     0.08927   0.58246   0.14947   0.00000  Uiso   1.00
C412   C     0.12546   0.59892   0.16266   0.00000  Uiso   1.00
C413   C     0.18674   0.51527   0.48145   0.00000  Uiso   1.00
C414   C     0.16709   0.59895   0.13680   0.00000  Uiso   1.00
C415   C     0.17262   0.58283   0.09764   0.00000  Uiso   1.00
C416   C     0.17348   0.51899   0.02308   0.00000  Uiso   1.00
C417   C     0.14229   0.54713   0.04289   0.00000  Uiso   1.00
C418   C     0.12038   0.56401   0.02138   0.00000  Uiso   1.00
H419   H     0.09714   0.58584   0.03636   0.00000  Uiso   1.00
H420   H     0.25576   0.38552   0.12636   0.00000  Uiso   1.00
H421   H     0.32719   0.38705   0.13919   0.00000  Uiso   1.00
H422   H     0.33174   0.35864   0.19828   0.00000  Uiso   1.00
H423   H     0.26509   0.66260   0.24490   0.00000  Uiso   1.00
H424   H     0.05715   0.63100   0.28213   0.00000  Uiso   1.00
H425   H     0.08231   0.66583   0.24585   0.00000  Uiso   1.00
H426   H     0.04309   0.35697   0.33442   0.00000  Uiso   1.00
H427   H     0.06753   0.39348   0.29902   0.00000  Uiso   1.00
H428   H     0.01179   0.36750   0.26319   0.00000  Uiso   1.00
H429   H     0.32045   0.38475   0.31377   0.00000  Uiso   1.00
H430   H     0.28445   0.44548   0.02693   0.00000  Uiso   1.00
H431   H     0.32045   0.66310   0.29817   0.00000  Uiso   1.00
H432   H     0.33283   0.51137   0.48942   0.00000  Uiso   1.00
H433   H     0.06686   0.47985   0.45450   0.00000  Uiso   1.00
H434   H     0.06609   0.42083   0.40270   0.00000  Uiso   1.00
H435   H     0.33013   0.39186   0.38760   0.00000  Uiso   1.00
H436   H     0.26231   0.42129   0.42388   0.00000  Uiso   1.00
H437   H     0.10295   0.64015   0.41819   0.00000  Uiso   1.00
H438   H     0.05149   0.33690   0.39379   0.00000  Uiso   1.00
H439   H     0.33000   0.62406   0.36673   0.00000  Uiso   1.00
H440   H     0.32641   0.54737   0.36490   0.00000  Uiso   1.00
H441   H     0.01699   0.52609   0.21475   0.00000  Uiso   1.00
H442   H     0.04424   0.51683   0.38929   0.00000  Uiso   1.00
H443   H     0.24140   0.50105   0.36567   0.00000  Uiso   1.00
H444   H     0.26844   0.43397   0.33555   0.00000  Uiso   1.00
H445   H     0.22516   0.36749   0.35545   0.00000  Uiso   1.00
H446   H     0.15482   0.36837   0.40666   0.00000  Uiso   1.00
H447   H     0.12684   0.43509   0.43696   0.00000  Uiso   1.00
H448   H     0.06634   0.55248   0.10080   0.00000  Uiso   1.00
H449   H     0.05705   0.58256   0.16951   0.00000  Uiso   1.00
H450   H     0.12117   0.61165   0.19290   0.00000  Uiso   1.00
H451   H     0.19516   0.61132   0.14702   0.00000  Uiso   1.00
H452   H     0.31794   0.47427   0.28555   0.00000  Uiso   1.00
H453   H     0.20507   0.58335   0.07789   0.00000  Uiso   1.00
H454   H     0.14322   0.49552   0.09816   0.00000  Uiso   1.00
H455   H     0.25752   0.44471   0.09708   0.00000  Uiso   1.00
H456   H     0.07841   0.58914   0.47824   0.00000  Uiso   1.00
H457   H     0.24390   0.50924   0.43268   0.00000  Uiso   1.00
H458   H     0.18886   0.35717   0.17280   0.00000  Uiso   1.00
O459   O     0.16667   0.50000   0.25000   0.00000  Uiso   1.00
O460   O     0.15693   0.45726   0.16625   0.00000  Uiso   1.00
O461   O     0.12687   0.53979   0.33749   0.00000  Uiso   1.00
O462   O     0.21088   0.50826   0.15877   0.00000  Uiso   1.00
O463   O     0.17198   0.49468   0.33749   0.00000  Uiso   1.00
O464   O     0.11456   0.66186   0.28918   0.00000  Uiso   1.00
O465   O     0.17849   0.41434   0.27820   0.00000  Uiso   1.00
O466   O     0.14581   0.59469   0.26767   0.00000  Uiso   1.00
O467   O     0.07452   0.46584   0.23607   0.00000  Uiso   1.00
O468   O     0.26785   0.52512   0.21805   0.00000  Uiso   1.00
O469   O     0.06990   0.52293   0.27820   0.00000  Uiso   1.00
O470   O     0.25440   0.48610   0.26767   0.00000  Uiso   1.00
O471   O     0.13800   0.40236   0.23607   0.00000  Uiso   1.00
O472   O     0.20437   0.58860   0.21805   0.00000  Uiso   1.00
Zn473  Zn    0.19244   0.47423   0.28277   0.00000  Uiso   1.00
Zn474  Zn    0.13459   0.45711   0.22257   0.00000  Uiso   1.00
Zn475  Zn    0.21166   0.52997   0.21188   0.00000  Uiso   1.00
Zn476  Zn    0.12798   0.53868   0.28277   0.00000  Uiso   1.00
C477   C     0.38582   0.49317   0.25890   0.00000  Uiso   1.00
C478   C     0.56137   0.50270   0.46235   0.00000  Uiso   1.00
C479   C     0.58462   0.48467   0.48169   0.00000  Uiso   1.00
C480   C     0.61438   0.50686   0.24121   0.00000  Uiso   1.00
C481   C     0.56668   0.47943   0.02169   0.00000  Uiso   1.00
C482   C     0.52707   0.49595   0.04256   0.00000  Uiso   1.00
C483   C     0.58780   0.45867   0.04157   0.00000  Uiso   1.00
C484   C     0.57174   0.45657   0.08162   0.00000  Uiso   1.00
C485   C     0.50854   0.48772   0.08190   0.00000  Uiso   1.00
C486   C     0.66046   0.50933   0.23759   0.00000  Uiso   1.00
C487   C     0.34041   0.49093   0.26233   0.00000  Uiso   1.00
C488   C     0.44100   0.55859   0.42173   0.00000  Uiso   1.00
C489   C     0.51552   0.65600   0.23981   0.00000  Uiso   1.00
C490   C     0.48396   0.34566   0.26194   0.00000  Uiso   1.00
C491   C     0.48880   0.38972   0.25920   0.00000  Uiso   1.00
C492   C     0.51070   0.61116   0.24201   0.00000  Uiso   1.00
C493   C     0.52148   0.47883   0.14416   0.00000  Uiso   1.00
C494   C     0.47863   0.52078   0.35654   0.00000  Uiso   1.00
C495   C     0.47148   0.53064   0.39997   0.00000  Uiso   1.00
C496   C     0.53218   0.47110   0.10179   0.00000  Uiso   1.00
C497   C     0.43617   0.56902   0.46173   0.00000  Uiso   1.00
C498   C     0.55545   0.34149   0.21240   0.00000  Uiso   1.00
C499   C     0.49598   0.51305   0.42023   0.00000  Uiso   1.00
C500   C     0.55314   0.35775   0.17888   0.00000  Uiso   1.00
C501   C     0.59099   0.37391   0.15253   0.00000  Uiso   1.00
C502   C     0.63127   0.37448   0.15965   0.00000  Uiso   1.00
C503   C     0.63380   0.35846   0.19300   0.00000  Uiso   1.00
C504   C     0.59606   0.34184   0.21927   0.00000  Uiso   1.00
C505   C     0.40968   0.66194   0.27754   0.00000  Uiso   1.00
C506   C     0.38270   0.36210   0.30328   0.00000  Uiso   1.00
C507   C     0.33949   0.36080   0.29390   0.00000  Uiso   1.00
C508   C     0.62612   0.46890   0.45865   0.00000  Uiso   1.00
C509   C     0.66539   0.48547   0.46703   0.00000  Uiso   1.00
C510   C     0.49345   0.52763   0.46035   0.00000  Uiso   1.00
C511   C     0.37026   0.46768   0.44731   0.00000  Uiso   1.00
C512   C     0.36978   0.43430   0.41826   0.00000  Uiso   1.00
C513   C     0.66421   0.41810   0.40952   0.00000  Uiso   1.00
C514   C     0.62583   0.43513   0.42980   0.00000  Uiso   1.00
C515   C     0.41123   0.57625   0.40508   0.00000  Uiso   1.00
C516   C     0.41270   0.61965   0.40630   0.00000  Uiso   1.00
C517   C     0.38352   0.63677   0.39252   0.00000  Uiso   1.00
C518   C     0.35253   0.61075   0.37746   0.00000  Uiso   1.00
C519   C     0.35049   0.56754   0.37646   0.00000  Uiso   1.00
C520   C     0.37945   0.55031   0.39047   0.00000  Uiso   1.00
C521   C     0.46121   0.55353   0.48105   0.00000  Uiso   1.00
C522   C     0.51492   0.47310   0.40320   0.00000  Uiso   1.00
C523   C     0.55563   0.47226   0.37499   0.00000  Uiso   1.00
C524   C     0.57095   0.43430   0.35765   0.00000  Uiso   1.00
C525   C     0.54651   0.39686   0.36886   0.00000  Uiso   1.00
C526   C     0.50683   0.39737   0.39770   0.00000  Uiso   1.00
C527   C     0.49110   0.43525   0.41485   0.00000  Uiso   1.00
C528   C     0.46980   0.56537   0.08426   0.00000  Uiso   1.00
C529   C     0.42799   0.56568   0.11047   0.00000  Uiso   1.00
C530   C     0.42261   0.58246   0.14947   0.00000  Uiso   1.00
C531   C     0.45879   0.59892   0.16266   0.00000  Uiso   1.00
C532   C     0.52007   0.51527   0.48145   0.00000  Uiso   1.00
C533   C     0.50042   0.59895   0.13680   0.00000  Uiso   1.00
C534   C     0.50595   0.58283   0.09764   0.00000  Uiso   1.00
C535   C     0.50682   0.51899   0.02308   0.00000  Uiso   1.00
C536   C     0.47562   0.54713   0.04289   0.00000  Uiso   1.00
C537   C     0.45371   0.56401   0.02138   0.00000  Uiso   1.00
H538   H     0.43047   0.58584   0.03636   0.00000  Uiso   1.00
H539   H     0.58910   0.38552   0.12636   0.00000  Uiso   1.00
H540   H     0.66053   0.38705   0.13919   0.00000  Uiso   1.00
H541   H     0.66507   0.35864   0.19828   0.00000  Uiso   1.00
H542   H     0.59842   0.66260   0.24490   0.00000  Uiso   1.00
H543   H     0.39049   0.63100   0.28213   0.00000  Uiso   1.00
H544   H     0.41564   0.66583   0.24585   0.00000  Uiso   1.00
H545   H     0.37642   0.35697   0.33442   0.00000  Uiso   1.00
H546   H     0.40086   0.39348   0.29902   0.00000  Uiso   1.00
H547   H     0.34513   0.36750   0.26319   0.00000  Uiso   1.00
H548   H     0.65379   0.38475   0.31377   0.00000  Uiso   1.00
H549   H     0.61778   0.44548   0.02693   0.00000  Uiso   1.00
H550   H     0.65378   0.66310   0.29817   0.00000  Uiso   1.00
H551   H     0.66616   0.51137   0.48942   0.00000  Uiso   1.00
H552   H     0.40019   0.47985   0.45450   0.00000  Uiso   1.00
H553   H     0.39943   0.42083   0.40270   0.00000  Uiso   1.00
H554   H     0.66346   0.39186   0.38760   0.00000  Uiso   1.00
H555   H     0.59564   0.42129   0.42388   0.00000  Uiso   1.00
H556   H     0.43629   0.64015   0.41819   0.00000  Uiso   1.00
H557   H     0.38483   0.33690   0.39379   0.00000  Uiso   1.00
H558   H     0.66334   0.62406   0.36673   0.00000  Uiso   1.00
H559   H     0.65974   0.54737   0.36490   0.00000  Uiso   1.00
H560   H     0.35032   0.52609   0.21475   0.00000  Uiso   1.00
H561   H     0.37757   0.51683   0.38929   0.00000  Uiso   1.00
H562   H     0.57473   0.50105   0.36567   0.00000  Uiso   1.00
H563   H     0.60177   0.43397   0.33555   0.00000  Uiso   1.00
H564   H     0.55849   0.36749   0.35545   0.00000  Uiso   1.00
H565   H     0.48815   0.36837   0.40666   0.00000  Uiso   1.00
H566   H     0.46018   0.43509   0.43696   0.00000  Uiso   1.00
H567   H     0.39967   0.55248   0.10080   0.00000  Uiso   1.00
H568   H     0.39038   0.58256   0.16951   0.00000  Uiso   1.00
H569   H     0.45450   0.61165   0.19290   0.00000  Uiso   1.00
H570   H     0.52849   0.61132   0.14702   0.00000  Uiso   1.00
H571   H     0.65128   0.47427   0.28555   0.00000  Uiso   1.00
H572   H     0.53841   0.58335   0.07789   0.00000  Uiso   1.00
H573   H     0.47655   0.49552   0.09816   0.00000  Uiso   1.00
H574   H     0.59085   0.44471   0.09708   0.00000  Uiso   1.00
H575   H     0.41175   0.58914   0.47824   0.00000  Uiso   1.00
H576   H     0.57723   0.50924   0.43268   0.00000  Uiso   1.00
H577   H     0.52219   0.35717   0.17280   0.00000  Uiso   1.00
O578   O     0.50000   0.50000   0.25000   0.00000  Uiso   1.00
O579   O     0.49027   0.45726   0.16625   0.00000  Uiso   1.00
O580   O     0.46020   0.53979   0.33749   0.00000  Uiso   1.00
O581   O     0.54421   0.50826   0.15877   0.00000  Uiso   1.00
O582   O     0.50532   0.49468   0.33749   0.00000  Uiso   1.00
O583   O     0.44789   0.66186   0.28918   0.00000  Uiso   1.00
O584   O     0.51182   0.41434   0.27820   0.00000  Uiso   1.00
O585   O     0.47914   0.59469   0.26767   0.00000  Uiso   1.00
O586   O     0.40785   0.46584   0.23607   0.00000  Uiso   1.00
O587   O     0.60119   0.52512   0.21805   0.00000  Uiso   1.00
O588   O     0.40323   0.52293   0.27820   0.00000  Uiso   1.00
O589   O     0.58773   0.48610   0.26767   0.00000  Uiso   1.00
O590   O     0.47133   0.40236   0.23607   0.00000  Uiso   1.00
O591   O     0.53771   0.58860   0.21805   0.00000  Uiso   1.00
Zn592  Zn    0.52577   0.47423   0.28277   0.00000  Uiso   1.00
Zn593  Zn    0.46792   0.45711   0.22257   0.00000  Uiso   1.00
Zn594  Zn    0.54500   0.52997   0.21188   0.00000  Uiso   1.00
Zn595  Zn    0.46131   0.53868   0.28277   0.00000  Uiso   1.00
C596   C     0.71916   0.49317   0.25890   0.00000  Uiso   1.00
C597   C     0.89470   0.50270   0.46235   0.00000  Uiso   1.00
C598   C     0.91795   0.48467   0.48169   0.00000  Uiso   1.00
C599   C     0.94771   0.50686   0.24121   0.00000  Uiso   1.00
C600   C     0.90001   0.47943   0.02169   0.00000  Uiso   1.00
C601   C     0.86040   0.49595   0.04256   0.00000  Uiso   1.00
C602   C     0.92113   0.45867   0.04157   0.00000  Uiso   1.00
C603   C     0.90507   0.45657   0.08162   0.00000  Uiso   1.00
C604   C     0.84187   0.48772   0.08190   0.00000  Uiso   1.00
C605   C     0.99379   0.50933   0.23759   0.00000  Uiso   1.00
C606   C     0.67374   0.49093   0.26233   0.00000  Uiso   1.00
C607   C     0.77434   0.55859   0.42173   0.00000  Uiso   1.00
C608   C     0.84885   0.65600   0.23981   0.00000  Uiso   1.00
C609   C     0.81730   0.34566   0.26194   0.00000  Uiso   1.00
C610   C     0.82213   0.38972   0.25920   0.00000  Uiso   1.00
C611   C     0.84403   0.61116   0.24201   0.00000  Uiso   1.00
C612   C     0.85482   0.47883   0.14416   0.00000  Uiso   1.00
C613   C     0.81196   0.52078   0.35654   0.00000  Uiso   1.00
C614   C     0.80481   0.53064   0.39997   0.00000  Uiso   1.00
C615   C     0.86551   0.47110   0.10179   0.00000  Uiso   1.00
C616   C     0.76950   0.56902   0.46173   0.00000  Uiso   1.00
C617   C     0.88878   0.34149   0.21240   0.00000  Uiso   1.00
C618   C     0.82931   0.51305   0.42023   0.00000  Uiso   1.00
C619   C     0.88648   0.35775   0.17888   0.00000  Uiso   1.00
C620   C     0.92432   0.37391   0.15253   0.00000  Uiso   1.00
C621   C     0.96460   0.37448   0.15965   0.00000  Uiso   1.00
C622   C     0.96714   0.35846   0.19300   0.00000  Uiso   1.00
C623   C     0.92939   0.34184   0.21927   0.00000  Uiso   1.00
C624   C     0.74301   0.66194   0.27754   0.00000  Uiso   1.00
C625   C     0.71603   0.36210   0.30328   0.00000  Uiso   1.00
C626   C     0.67282   0.36080   0.29390   0.00000  Uiso   1.00
C627   C     0.95945   0.46890   0.45865   0.00000  Uiso   1.00
C628   C     0.99873   0.48547   0.46703   0.00000  Uiso   1.00
C629   C     0.82679   0.52763   0.46035   0.00000  Uiso   1.00
C630   C     0.70359   0.46768   0.44731   0.00000  Uiso   1.00
C631   C     0.70312   0.43430   0.41826   0.00000  Uiso   1.00
C632   C     0.99754   0.41810   0.40952   0.00000  Uiso   1.00
C633   C     0.95916   0.43513   0.42980   0.00000  Uiso   1.00
C634   C     0.74456   0.57625   0.40508   0.00000  Uiso   1.00
C635   C     0.74603   0.61965   0.40630   0.00000  Uiso   1.00
C636   C     0.71685   0.63677   0.39252   0.00000  Uiso   1.00
C637   C     0.68587   0.61075   0.37746   0.00000  Uiso   1.00
C638   C     0.68382   0.56754   0.37646   0.00000  Uiso   1.00
C639   C     0.71279   0.55031   0.39047   0.00000  Uiso   1.00
C640   C     0.79455   0.55353   0.48105   0.00000  Uiso   1.00
C641   C     0.84826   0.47310   0.40320   0.00000  Uiso   1.00
C642   C     0.88897   0.47226   0.37499   0.00000  Uiso   1.00
C643   C     0.90429   0.43430   0.35765   0.00000  Uiso   1.00
C644   C     0.87984   0.39686   0.36886   0.00000  Uiso   1.00
C645   C     0.84016   0.39737   0.39770   0.00000  Uiso   1.00
C646   C     0.82443   0.43525   0.41485   0.00000  Uiso   1.00
C647   C     0.80314   0.56537   0.08426   0.00000  Uiso   1.00
C648   C     0.76133   0.56568   0.11047   0.00000  Uiso   1.00
C649   C     0.75594   0.58246   0.14947   0.00000  Uiso   1.00
C650   C     0.79213   0.59892   0.16266   0.00000  Uiso   1.00
C651   C     0.85340   0.51527   0.48145   0.00000  Uiso   1.00
C652   C     0.83375   0.59895   0.13680   0.00000  Uiso   1.00
C653   C     0.83929   0.58283   0.09764   0.00000  Uiso   1.00
C654   C     0.84015   0.51899   0.02308   0.00000  Uiso   1.00
C655   C     0.80895   0.54713   0.04289   0.00000  Uiso   1.00
C656   C     0.78705   0.56401   0.02138   0.00000  Uiso   1.00
H657   H     0.76381   0.58584   0.03636   0.00000  Uiso   1.00
H658   H     0.92243   0.38552   0.12636   0.00000  Uiso   1.00
H659   H     0.99386   0.38705   0.13919   0.00000  Uiso   1.00
H660   H     0.99840   0.35864   0.19828   0.00000  Uiso   1.00
H661   H     0.93176   0.66260   0.24490   0.00000  Uiso   1.00
H662   H     0.72382   0.63100   0.28213   0.00000  Uiso   1.00
H663   H     0.74897   0.66583   0.24585   0.00000  Uiso   1.00
H664   H     0.70975   0.35697   0.33442   0.00000  Uiso   1.00
H665   H     0.73419   0.39348   0.29902   0.00000  Uiso   1.00
H666   H     0.67846   0.36750   0.26319   0.00000  Uiso   1.00
H667   H     0.98712   0.38475   0.31377   0.00000  Uiso   1.00
H668   H     0.95111   0.44548   0.02693   0.00000  Uiso   1.00
H669   H     0.98712   0.66310   0.29817   0.00000  Uiso   1.00
H670   H     0.99950   0.51137   0.48942   0.00000  Uiso   1.00
H671   H     0.73353   0.47985   0.45450   0.00000  Uiso   1.00
H672   H     0.73276   0.42083   0.40270   0.00000  Uiso   1.00
H673   H     0.99679   0.39186   0.38760   0.00000  Uiso   1.00
H674   H     0.92898   0.42129   0.42388   0.00000  Uiso   1.00
H675   H     0.76962   0.64015   0.41819   0.00000  Uiso   1.00
H676   H     0.71816   0.33690   0.39379   0.00000  Uiso   1.00
H677   H     0.99667   0.62406   0.36673   0.00000  Uiso   1.00
H678   H     0.99308   0.54737   0.36490   0.00000  Uiso   1.00
H679   H     0.68366   0.52609   0.21475   0.00000  Uiso   1.00
H680   H     0.71090   0.51683   0.38929   0.00000  Uiso   1.00
H681   H     0.90807   0.50105   0.36567   0.00000  Uiso   1.00
H682   H     0.93510   0.43397   0.33555   0.00000  Uiso   1.00
H683   H     0.89183   0.36749   0.35545   0.00000  Uiso   1.00
H684   H     0.82148   0.36837   0.40666   0.00000  Uiso   1.00
H685   H     0.79351   0.43509   0.43696   0.00000  Uiso   1.00
H686   H     0.73300   0.55248   0.10080   0.00000  Uiso   1.00
H687   H     0.72372   0.58256   0.16951   0.00000  Uiso   1.00
H688   H     0.78784   0.61165   0.19290   0.00000  Uiso   1.00
H689   H     0.86182   0.61132   0.14702   0.00000  Uiso   1.00
H690   H     0.98461   0.47427   0.28555   0.00000  Uiso   1.00
H691   H     0.87174   0.58335   0.07789   0.00000  Uiso   1.00
H692   H     0.80989   0.49552   0.09816   0.00000  Uiso   1.00
H693   H     0.92419   0.44471   0.09708   0.00000  Uiso   1.00
H694   H     0.74508   0.58914   0.47824   0.00000  Uiso   1.00
H695   H     0.91057   0.50924   0.43268   0.00000  Uiso   1.00
H696   H     0.85552   0.35717   0.17280   0.00000  Uiso   1.00
O697   O     0.83333   0.50000   0.25000   0.00000  Uiso   1.00
O698   O     0.82360   0.45726   0.16625   0.00000  Uiso   1.00
O699   O     0.79354   0.53979   0.33749   0.00000  Uiso   1.00
O700   O     0.87755   0.50826   0.15877   0.00000  Uiso   1.00
O701   O     0.83865   0.49468   0.33749   0.00000  Uiso   1.00
O702   O     0.78122   0.66186   0.28918   0.00000  Uiso   1.00
O703   O     0.84515   0.41434   0.27820   0.00000  Uiso   1.00
O704   O     0.81247   0.59469   0.26767   0.00000  Uiso   1.00
O705   O     0.74119   0.46584   0.23607   0.00000  Uiso   1.00
O706   O     0.93452   0.52512   0.21805   0.00000  Uiso   1.00
O707   O     0.73656   0.52293   0.27820   0.00000  Uiso   1.00
O708   O     0.92106   0.48610   0.26767   0.00000  Uiso   1.00
O709   O     0.80467   0.40236   0.23607   0.00000  Uiso   1.00
O710   O     0.87104   0.58860   0.21805   0.00000  Uiso   1.00
Zn711  Zn    0.85910   0.47423   0.28277   0.00000  Uiso   1.00
Zn712  Zn    0.80125   0.45711   0.22257   0.00000  Uiso   1.00
Zn713  Zn    0.87833   0.52997   0.21188   0.00000  Uiso   1.00
Zn714  Zn    0.79465   0.53868   0.28277   0.00000  Uiso   1.00
C715   C     0.05249   0.82650   0.25890   0.00000  Uiso   1.00
C716   C     0.22803   0.83603   0.46235   0.00000  Uiso   1.00
C717   C     0.25128   0.81800   0.48169   0.00000  Uiso   1.00
C718   C     0.28105   0.84019   0.24121   0.00000  Uiso   1.00
C719   C     0.23335   0.81276   0.02169   0.00000  Uiso   1.00
C720   C     0.19373   0.82928   0.04256   0.00000  Uiso   1.00
C721   C     0.25447   0.79201   0.04157   0.00000  Uiso   1.00
C722   C     0.23841   0.78991   0.08162   0.00000  Uiso   1.00
C723   C     0.17520   0.82105   0.08190   0.00000  Uiso   1.00
C724   C     0.32712   0.84266   0.23759   0.00000  Uiso   1.00
C725   C     0.00707   0.82426   0.26233   0.00000  Uiso   1.00
C726   C     0.10767   0.89192   0.42173   0.00000  Uiso   1.00
C727   C     0.18219   0.98933   0.23981   0.00000  Uiso   1.00
C728   C     0.15063   0.67900   0.26194   0.00000  Uiso   1.00
C729   C     0.15547   0.72305   0.25920   0.00000  Uiso   1.00
C730   C     0.17737   0.94449   0.24201   0.00000  Uiso   1.00
C731   C     0.18815   0.81216   0.14416   0.00000  Uiso   1.00
C732   C     0.14530   0.85411   0.35654   0.00000  Uiso   1.00
C733   C     0.13815   0.86398   0.39997   0.00000  Uiso   1.00
C734   C     0.19885   0.80443   0.10179   0.00000  Uiso   1.00
C735   C     0.10284   0.90236   0.46173   0.00000  Uiso   1.00
C736   C     0.22212   0.67482   0.21240   0.00000  Uiso   1.00
C737   C     0.16265   0.84638   0.42023   0.00000  Uiso   1.00
C738   C     0.21981   0.69109   0.17888   0.00000  Uiso   1.00
C739   C     0.25765   0.70724   0.15253   0.00000  Uiso   1.00
C740   C     0.29793   0.70781   0.15965   0.00000  Uiso   1.00
C741   C     0.30047   0.69180   0.19300   0.00000  Uiso   1.00
C742   C     0.26273   0.67517   0.21927   0.00000  Uiso   1.00
C743   C     0.07634   0.99527   0.27754   0.00000  Uiso   1.00
C744   C     0.04936   0.69544   0.30328   0.00000  Uiso   1.00
C745   C     0.00616   0.69413   0.29390   0.00000  Uiso   1.00
C746   C     0.29278   0.80223   0.45865   0.00000  Uiso   1.00
C747   C     0.33206   0.81880   0.46703   0.00000  Uiso   1.00
C748   C     0.16012   0.86096   0.46035   0.00000  Uiso   1.00
C749   C     0.03693   0.80101   0.44731   0.00000  Uiso   1.00
C750   C     0.03645   0.76764   0.41826   0.00000  Uiso   1.00
C751   C     0.33088   0.75143   0.40952   0.00000  Uiso   1.00
C752   C     0.29250   0.76846   0.42980   0.00000  Uiso   1.00
C753   C     0.07790   0.90958   0.40508   0.00000  Uiso   1.00
C754   C     0.07936   0.95298   0.40630   0.00000  Uiso   1.00
C755   C     0.05019   0.97010   0.39252   0.00000  Uiso   1.00
C756   C     0.01920   0.94408   0.37746   0.00000  Uiso   1.00
C757   C     0.01715   0.90087   0.37646   0.00000  Uiso   1.00
C758   C     0.04612   0.88364   0.39047   0.00000  Uiso   1.00
C759   C     0.12788   0.88687   0.48105   0.00000  Uiso   1.00
C760   C     0.18159   0.80643   0.40320   0.00000  Uiso   1.00
C761   C     0.22230   0.80559   0.37499   0.00000  Uiso   1.00
C762   C     0.23762   0.76764   0.35765   0.00000  Uiso   1.00
C763   C     0.21317   0.73020   0.36886   0.00000  Uiso   1.00
C764   C     0.17349   0.73070   0.39770   0.00000  Uiso   1.00
C765   C     0.15777   0.76859   0.41485   0.00000  Uiso   1.00
C766   C     0.13647   0.89871   0.08426   0.00000  Uiso   1.00
C767   C     0.09466   0.89901   0.11047   0.00000  Uiso   1.00
C768   C     0.08927   0.91579   0.14947   0.00000  Uiso   1.00
C769   C     0.12546   0.93225   0.16266   0.00000  Uiso   1.00
C770   C     0.18674   0.84860   0.48145   0.00000  Uiso   1.00
C771   C     0.16709   0.93229   0.13680   0.00000  Uiso   1.00
C772   C     0.17262   0.91617   0.09764   0.00000  Uiso   1.00
C773   C     0.17348   0.85233   0.02308   0.00000  Uiso   1.00
C774   C     0.14229   0.88046   0.04289   0.00000  Uiso   1.00
C775   C     0.12038   0.89734   0.02138   0.00000  Uiso   1.00
H776   H     0.09714   0.91918   0.03636   0.00000  Uiso   1.00
H777   H     0.25576   0.71885   0.12636   0.00000  Uiso   1.00
H778   H     0.32719   0.72038   0.13919   0.00000  Uiso   1.00
H779   H     0.33174   0.69197   0.19828   0.00000  Uiso   1.00
H780   H     0.26509   0.99593   0.24490   0.00000  Uiso   1.00
H781   H     0.05715   0.96433   0.28213   0.00000  Uiso   1.00
H782   H     0.08231   0.99916   0.24585   0.00000  Uiso   1.00
H783   H     0.04309   0.69030   0.33442   0.00000  Uiso   1.00
H784   H     0.06753   0.72682   0.29902   0.00000  Uiso   1.00
H785   H     0.01179   0.70084   0.26319   0.00000  Uiso   1.00
H786   H     0.32045   0.71808   0.31377   0.00000  Uiso   1.00
H787   H     0.28445   0.77881   0.02693   0.00000  Uiso   1.00
H788   H     0.32045   0.99643   0.29817   0.00000  Uiso   1.00
H789   H     0.33283   0.84471   0.48942   0.00000  Uiso   1.00
H790   H     0.06686   0.81318   0.45450   0.00000  Uiso   1.00
H791   H     0.06609   0.75417   0.40270   0.00000  Uiso   1.00
H792   H     0.33013   0.72519   0.38760   0.00000  Uiso   1.00
H793   H     0.26231   0.75462   0.42388   0.00000  Uiso   1.00
H794   H     0.10295   0.97349   0.41819   0.00000  Uiso   1.00
H795   H     0.05149   0.67024   0.39379   0.00000  Uiso   1.00
H796   H     0.33000   0.95740   0.36673   0.00000  Uiso   1.00
H797   H     0.32641   0.88070   0.36490   0.00000  Uiso   1.00
H798   H     0.01699   0.85943   0.21475   0.00000  Uiso   1.00
H799   H     0.04424   0.85017   0.38929   0.00000  Uiso   1.00
H800   H     0.24140   0.83438   0.36567   0.00000  Uiso   1.00
H801   H     0.26844   0.76731   0.33555   0.00000  Uiso   1.00
H802   H     0.22516   0.70083   0.35545   0.00000  Uiso   1.00
H803   H     0.15482   0.70171   0.40666   0.00000  Uiso   1.00
H804   H     0.12684   0.76842   0.43696   0.00000  Uiso   1.00
H805   H     0.06634   0.88581   0.10080   0.00000  Uiso   1.00
H806   H     0.05705   0.91589   0.16951   0.00000  Uiso   1.00
H807   H     0.12117   0.94498   0.19290   0.00000  Uiso   1.00
H808   H     0.19516   0.94466   0.14702   0.00000  Uiso   1.00
H809   H     0.31794   0.80760   0.28555   0.00000  Uiso   1.00
H810   H     0.20507   0.91669   0.07789   0.00000  Uiso   1.00
H811   H     0.14322   0.82885   0.09816   0.00000  Uiso   1.00
H812   H     0.25752   0.77804   0.09708   0.00000  Uiso   1.00
H813   H     0.07841   0.92247   0.47824   0.00000  Uiso   1.00
H814   H     0.24390   0.84257   0.43268   0.00000  Uiso   1.00
H815   H     0.18886   0.69050   0.17280   0.00000  Uiso   1.00
O816   O     0.16667   0.83333   0.25000   0.00000  Uiso   1.00
O817   O     0.15693   0.79060   0.16625   0.00000  Uiso   1.00
O818   O     0.12687   0.87313   0.33749   0.00000  Uiso   1.00
O819   O     0.21088   0.84159   0.15877   0.00000  Uiso   1.00
O820   O     0.17198   0.82802   0.33749   0.00000  Uiso   1.00
O821   O     0.11456   0.99519   0.28918   0.00000  Uiso   1.00
O822   O     0.17849   0.74768   0.27820   0.00000  Uiso   1.00
O823   O     0.14581   0.92803   0.26767   0.00000  Uiso   1.00
O824   O     0.07452   0.79917   0.23607   0.00000  Uiso   1.00
O825   O     0.26785   0.85845   0.21805   0.00000  Uiso   1.00
O826   O     0.06990   0.85627   0.27820   0.00000  Uiso   1.00
O827   O     0.25440   0.81944   0.26767   0.00000  Uiso   1.00
O828   O     0.13800   0.73570   0.23607   0.00000  Uiso   1.00
O829   O     0.20437   0.92193   0.21805   0.00000  Uiso   1.00
Zn830  Zn    0.19244   0.80756   0.28277   0.00000  Uiso   1.00
Zn831  Zn    0.13459   0.79044   0.22257   0.00000  Uiso   1.00
Zn832  Zn    0.21166   0.86331   0.21188   0.00000  Uiso   1.00
Zn833  Zn    0.12798   0.87202   0.28277   0.00000  Uiso   1.00
C834   C     0.38582   0.82650   0.25890   0.00000  Uiso   1.00
C835   C     0.56137   0.83603   0.46235   0.00000  Uiso   1.00
C836   C     0.58462   0.81800   0.48169   0.00000  Uiso   1.00
C837   C     0.61438   0.84019   0.24121   0.00000  Uiso   1.00
C838   C     0.56668   0.81276   0.02169   0.00000  Uiso   1.00
C839   C     0.52707   0.82928   0.04256   0.00000  Uiso   1.00
C840   C     0.58780   0.79201   0.04157   0.00000  Uiso   1.00
C841   C     0.57174   0.78991   0.08162   0.00000  Uiso   1.00
C842   C     0.50854   0.82105   0.08190   0.00000  Uiso   1.00
C843   C     0.66046   0.84266   0.23759   0.00000  Uiso   1.00
C844   C     0.34041   0.82426   0.26233   0.00000  Uiso   1.00
C845   C     0.44100   0.89192   0.42173   0.00000  Uiso   1.00
C846   C     0.51552   0.98933   0.23981   0.00000  Uiso   1.00
C847   C     0.48396   0.67900   0.26194   0.00000  Uiso   1.00
C848   C     0.48880   0.72305   0.25920   0.00000  Uiso   1.00
C849   C     0.51070   0.94449   0.24201   0.00000  Uiso   1.00
C850   C     0.52148   0.81216   0.14416   0.00000  Uiso   1.00
C851   C     0.47863   0.85411   0.35654   0.00000  Uiso   1.00
C852   C     0.47148   0.86398   0.39997   0.00000  Uiso   1.00
C853   C     0.53218   0.80443   0.10179   0.00000  Uiso   1.00
C854   C     0.43617   0.90236   0.46173   0.00000  Uiso   1.00
C855   C     0.55545   0.67482   0.21240   0.00000  Uiso   1.00
C856   C     0.49598   0.84638   0.42023   0.00000  Uiso   1.00
C857   C     0.55314   0.69109   0.17888   0.00000  Uiso   1.00
C858   C     0.59099   0.70724   0.15253   0.00000  Uiso   1.00
C859   C     0.63127   0.70781   0.15965   0.00000  Uiso   1.00
C860   C     0.63380   0.69180   0.19300   0.00000  Uiso   1.00
C861   C     0.59606   0.67517   0.21927   0.00000  Uiso   1.00
C862   C     0.40968   0.99527   0.27754   0.00000  Uiso   1.00
C863   C     0.38270   0.69544   0.30328   0.00000  Uiso   1.00
C864   C     0.33949   0.69413   0.29390   0.00000  Uiso   1.00
C865   C     0.62612   0.80223   0.45865   0.00000  Uiso   1.00
C866   C     0.66539   0.81880   0.46703   0.00000  Uiso   1.00
C867   C     0.49345   0.86096   0.46035   0.00000  Uiso   1.00
C868   C     0.37026   0.80101   0.44731   0.00000  Uiso   1.00
C869   C     0.36978   0.76764   0.41826   0.00000  Uiso   1.00
C870   C     0.66421   0.75143   0.40952   0.00000  Uiso   1.00
C871   C     0.62583   0.76846   0.42980   0.00000  Uiso   1.00
C872   C     0.41123   0.90958   0.40508   0.00000  Uiso   1.00
C873   C     0.41270   0.95298   0.40630   0.00000  Uiso   1.00
C874   C     0.38352   0.97010   0.39252   0.00000  Uiso   1.00
C875   C     0.35253   0.94408   0.37746   0.00000  Uiso   1.00
C876   C     0.35049   0.90087   0.37646   0.00000  Uiso   1.00
C877   C     0.37945   0.88364   0.39047   0.00000  Uiso   1.00
C878   C     0.46121   0.88687   0.48105   0.00000  Uiso   1.00
C879   C     0.51492   0.80643   0.40320   0.00000  Uiso   1.00
C880   C     0.55563   0.80559   0.37499   0.00000  Uiso   1.00
C881   C     0.57095   0.76764   0.35765   0.00000  Uiso   1.00
C882   C     0.54651   0.73020   0.36886   0.00000  Uiso   1.00
C883   C     0.50683   0.73070   0.39770   0.00000  Uiso   1.00
C884   C     0.49110   0.76859   0.41485   0.00000  Uiso   1.00
C885   C     0.46980   0.89871   0.08426   0.00000  Uiso   1.00
C886   C     0.42799   0.89901   0.11047   0.00000  Uiso   1.00
C887   C     0.42261   0.91579   0.14947   0.00000  Uiso   1.00
C888   C     0.45879   0.93225   0.16266   0.00000  Uiso   1.00
C889   C     0.52007   0.84860   0.48145   0.00000  Uiso   1.00
C890   C     0.50042   0.93229   0.13680   0.00000  Uiso   1.00
C891   C     0.50595   0.91617   0.09764   0.00000  Uiso   1.00
C892   C     0.50682   0.85233   0.02308   0.00000  Uiso   1.00
C893   C     0.47562   0.88046   0.04289   0.00000  Uiso   1.00
C894   C     0.45371   0.89734   0.02138   0.00000  Uiso   1.00
H895   H     0.43047   0.91918   0.03636   0.00000  Uiso   1.00
H896   H     0.58910   0.71885   0.12636   0.00000  Uiso   1.00
H897   H     0.66053   0.72038   0.13919   0.00000  Uiso   1.00
H898   H     0.66507   0.69197   0.19828   0.00000  Uiso   1.00
H899   H     0.59842   0.99593   0.24490   0.00000  Uiso   1.00
H900   H     0.39049   0.96433   0.28213   0.00000  Uiso   1.00
H901   H     0.41564   0.99916   0.24585   0.00000  Uiso   1.00
H902   H     0.37642   0.69030   0.33442   0.00000  Uiso   1.00
H903   H     0.40086   0.72682   0.29902   0.00000  Uiso   1.00
H904   H     0.34513   0.70084   0.26319   0.00000  Uiso   1.00
H905   H     0.65379   0.71808   0.31377   0.00000  Uiso   1.00
H906   H     0.61778   0.77881   0.02693   0.00000  Uiso   1.00
H907   H     0.65378   0.99643   0.29817   0.00000  Uiso   1.00
H908   H     0.66616   0.84471   0.48942   0.00000  Uiso   1.00
H909   H     0.40019   0.81318   0.45450   0.00000  Uiso   1.00
H910   H     0.39943   0.75417   0.40270   0.00000  Uiso   1.00
H911   H     0.66346   0.72519   0.38760   0.00000  Uiso   1.00
H912   H     0.59564   0.75462   0.42388   0.00000  Uiso   1.00
H913   H     0.43629   0.97349   0.41819   0.00000  Uiso   1.00
H914   H     0.38483   0.67024   0.39379   0.00000  Uiso   1.00
H915   H     0.66334   0.95740   0.36673   0.00000  Uiso   1.00
H916   H     0.65974   0.88070   0.36490   0.00000  Uiso   1.00
H917   H     0.35032   0.85943   0.21475   0.00000  Uiso   1.00
H918   H     0.37757   0.85017   0.38929   0.00000  Uiso   1.00
H919   H     0.57473   0.83438   0.36567   0.00000  Uiso   1.00
H920   H     0.60177   0.76731   0.33555   0.00000  Uiso   1.00
H921   H     0.55849   0.70083   0.35545   0.00000  Uiso   1.00
H922   H     0.48815   0.70171   0.40666   0.00000  Uiso   1.00
H923   H     0.46018   0.76842   0.43696   0.00000  Uiso   1.00
H924   H     0.39967   0.88581   0.10080   0.00000  Uiso   1.00
H925   H     0.39038   0.91589   0.16951   0.00000  Uiso   1.00
H926   H     0.45450   0.94498   0.19290   0.00000  Uiso   1.00
H927   H     0.52849   0.94466   0.14702   0.00000  Uiso   1.00
H928   H     0.65128   0.80760   0.28555   0.00000  Uiso   1.00
H929   H     0.53841   0.91669   0.07789   0.00000  Uiso   1.00
H930   H     0.47655   0.82885   0.09816   0.00000  Uiso   1.00
H931   H     0.59085   0.77804   0.09708   0.00000  Uiso   1.00
H932   H     0.41175   0.92247   0.47824   0.00000  Uiso   1.00
H933   H     0.57723   0.84257   0.43268   0.00000  Uiso   1.00
H934   H     0.52219   0.69050   0.17280   0.00000  Uiso   1.00
O935   O     0.50000   0.83333   0.25000   0.00000  Uiso   1.00
O936   O     0.49027   0.79060   0.16625   0.00000  Uiso   1.00
O937   O     0.46020   0.87313   0.33749   0.00000  Uiso   1.00
O938   O     0.54421   0.84159   0.15877   0.00000  Uiso   1.00
O939   O     0.50532   0.82802   0.33749   0.00000  Uiso   1.00
O940   O     0.44789   0.99519   0.28918   0.00000  Uiso   1.00
O941   O     0.51182   0.74768   0.27820   0.00000  Uiso   1.00
O942   O     0.47914   0.92803   0.26767   0.00000  Uiso   1.00
O943   O     0.40785   0.79917   0.23607   0.00000  Uiso   1.00
O944   O     0.60119   0.85845   0.21805   0.00000  Uiso   1.00
O945   O     0.40323   0.85627   0.27820   0.00000  Uiso   1.00
O946   O     0.58773   0.81944   0.26767   0.00000  Uiso   1.00
O947   O     0.47133   0.73570   0.23607   0.00000  Uiso   1.00
O948   O     0.53771   0.92193   0.21805   0.00000  Uiso   1.00
Zn949  Zn    0.52577   0.80756   0.28277   0.00000  Uiso   1.00
Zn950  Zn    0.46792   0.79044   0.22257   0.00000  Uiso   1.00
Zn951  Zn    0.54500   0.86331   0.21188   0.00000  Uiso   1.00
Zn952  Zn    0.46131   0.87202   0.28277   0.00000  Uiso   1.00
C953   C     0.71916   0.82650   0.25890   0.00000  Uiso   1.00
C954   C     0.89470   0.83603   0.46235   0.00000  Uiso   1.00
C955   C     0.91795   0.81800   0.48169   0.00000  Uiso   1.00
C956   C     0.94771   0.84019   0.24121   0.00000  Uiso   1.00
C957   C     0.90001   0.81276   0.02169   0.00000  Uiso   1.00
C958   C     0.86040   0.82928   0.04256   0.00000  Uiso   1.00
C959   C     0.92113   0.79201   0.04157   0.00000  Uiso   1.00
C960   C     0.90507   0.78991   0.08162   0.00000  Uiso   1.00
C961   C     0.84187   0.82105   0.08190   0.00000  Uiso   1.00
C962   C     0.99379   0.84266   0.23759   0.00000  Uiso   1.00
C963   C     0.67374   0.82426   0.26233   0.00000  Uiso   1.00
C964   C     0.77434   0.89192   0.42173   0.00000  Uiso   1.00
C965   C     0.84885   0.98933   0.23981   0.00000  Uiso   1.00
C966   C     0.81730   0.67900   0.26194   0.00000  Uiso   1.00
C967   C     0.82213   0.72305   0.25920   0.00000  Uiso   1.00
C968   C     0.84403   0.94449   0.24201   0.00000  Uiso   1.00
C969   C     0.85482   0.81216   0.14416   0.00000  Uiso   1.00
C970   C     0.81196   0.85411   0.35654   0.00000  Uiso   1.00
C971   C     0.80481   0.86398   0.39997   0.00000  Uiso   1.00
C972   C     0.86551   0.80443   0.10179   0.00000  Uiso   1.00
C973   C     0.76950   0.90236   0.46173   0.00000  Uiso   1.00
C974   C     0.88878   0.67482   0.21240   0.00000  Uiso   1.00
C975   C     0.82931   0.84638   0.42023   0.00000  Uiso   1.00
C976   C     0.88648   0.69109   0.17888   0.00000  Uiso   1.00
C977   C     0.92432   0.70724   0.15253   0.00000  Uiso   1.00
C978   C     0.96460   0.70781   0.15965   0.00000  Uiso   1.00
C979   C     0.96714   0.69180   0.19300   0.00000  Uiso   1.00
C980   C     0.92939   0.67517   0.21927   0.00000  Uiso   1.00
C981   C     0.74301   0.99527   0.27754   0.00000  Uiso   1.00
C982   C     0.71603   0.69544   0.30328   0.00000  Uiso   1.00
C983   C     0.67282   0.69413   0.29390   0.00000  Uiso   1.00
C984   C     0.95945   0.80223   0.45865   0.00000  Uiso   1.00
C985   C     0.99873   0.81880   0.46703   0.00000  Uiso   1.00
C986   C     0.82679   0.86096   0.46035   0.00000  Uiso   1.00
C987   C     0.70359   0.80101   0.44731   0.00000  Uiso   1.00
C988   C     0.70312   0.76764   0.41826   0.00000  Uiso   1.00
C989   C     0.99754   0.75143   0.40952   0.00000  Uiso   1.00
C990   C     0.95916   0.76846   0.42980   0.00000  Uiso   1.00
C991   C     0.74456   0.90958   0.40508   0.00000  Uiso   1.00
C992   C     0.74603   0.95298   0.40630   0.00000  Uiso   1.00
C993   C     0.71685   0.97010   0.39252   0.00000  Uiso   1.00
C994   C     0.68587   0.94408   0.37746   0.00000  Uiso   1.00
C995   C     0.68382   0.90087   0.37646   0.00000  Uiso   1.00
C996   C     0.71279   0.88364   0.39047   0.00000  Uiso   1.00
C997   C     0.79455   0.88687   0.48105   0.00000  Uiso   1.00
C998   C     0.84826   0.80643   0.40320   0.00000  Uiso   1.00
C999   C     0.88897   0.80559   0.37499   0.00000  Uiso   1.00
C1000  C     0.90429   0.76764   0.35765   0.00000  Uiso   1.00
C1001  C     0.87984   0.73020   0.36886   0.00000  Uiso   1.00
C1002  C     0.84016   0.73070   0.39770   0.00000  Uiso   1.00
C1003  C     0.82443   0.76859   0.41485   0.00000  Uiso   1.00
C1004  C     0.80314   0.89871   0.08426   0.00000  Uiso   1.00
C1005  C     0.76133   0.89901   0.11047   0.00000  Uiso   1.00
C1006  C     0.75594   0.91579   0.14947   0.00000  Uiso   1.00
C1007  C     0.79213   0.93225   0.16266   0.00000  Uiso   1.00
C1008  C     0.85340   0.84860   0.48145   0.00000  Uiso   1.00
C1009  C     0.83375   0.93229   0.13680   0.00000  Uiso   1.00
C1010  C     0.83929   0.91617   0.09764   0.00000  Uiso   1.00
C1011  C     0.84015   0.85233   0.02308   0.00000  Uiso   1.00
C1012  C     0.80895   0.88046   0.04289   0.00000  Uiso   1.00
C1013  C     0.78705   0.89734   0.02138   0.00000  Uiso   1.00
H1014  H     0.76381   0.91918   0.03636   0.00000  Uiso   1.00
H1015  H     0.92243   0.71885   0.12636   0.00000  Uiso   1.00
H1016  H     0.99386   0.72038   0.13919   0.00000  Uiso   1.00
H1017  H     0.99840   0.69197   0.19828   0.00000  Uiso   1.00
H1018  H     0.93176   0.99593   0.24490   0.00000  Uiso   1.00
H1019  H     0.72382   0.96433   0.28213   0.00000  Uiso   1.00
H1020  H     0.74897   0.99916   0.24585   0.00000  Uiso   1.00
H1021  H     0.70975   0.69030   0.33442   0.00000  Uiso   1.00
H1022  H     0.73419   0.72682   0.29902   0.00000  Uiso   1.00
H1023  H     0.67846   0.70084   0.26319   0.00000  Uiso   1.00
H1024  H     0.98712   0.71808   0.31377   0.00000  Uiso   1.00
H1025  H     0.95111   0.77881   0.02693   0.00000  Uiso   1.00
H1026  H     0.98712   0.99643   0.29817   0.00000  Uiso   1.00
H1027  H     0.99950   0.84471   0.48942   0.00000  Uiso   1.00
H1028  H     0.73353   0.81318   0.45450   0.00000  Uiso   1.00
H1029  H     0.73276   0.75417   0.40270   0.00000  Uiso   1.00
H1030  H     0.99679   0.72519   0.38760   0.00000  Uiso   1.00
H1031  H     0.92898   0.75462   0.42388   0.00000  Uiso   1.00
H1032  H     0.76962   0.97349   0.41819   0.00000  Uiso   1.00
H1033  H     0.71816   0.67024   0.39379   0.00000  Uiso   1.00
H1034  H     0.99667   0.95740   0.36673   0.00000  Uiso   1.00
H1035  H     0.99308   0.88070   0.36490   0.00000  Uiso   1.00
H1036  H     0.68366   0.85943   0.21475   0.00000  Uiso   1.00
H1037  H     0.71090   0.85017   0.38929   0.00000  Uiso   1.00
H1038  H     0.90807   0.83438   0.36567   0.00000  Uiso   1.00
H1039  H     0.93510   0.76731   0.33555   0.00000  Uiso   1.00
H1040  H     0.89183   0.70083   0.35545   0.00000  Uiso   1.00
H1041  H     0.82148   0.70171   0.40666   0.00000  Uiso   1.00
H1042  H     0.79351   0.76842   0.43696   0.00000  Uiso   1.00
H1043  H     0.73300   0.88581   0.10080   0.00000  Uiso   1.00
H1044  H     0.72372   0.91589   0.16951   0.00000  Uiso   1.00
H1045  H     0.78784   0.94498   0.19290   0.00000  Uiso   1.00
H1046  H     0.86182   0.94466   0.14702   0.00000  Uiso   1.00
H1047  H     0.98461   0.80760   0.28555   0.00000  Uiso   1.00
H1048  H     0.87174   0.91669   0.07789   0.00000  Uiso   1.00
H1049  H     0.80989   0.82885   0.09816   0.00000  Uiso   1.00
H1050  H     0.92419   0.77804   0.09708   0.00000  Uiso   1.00
H1051  H     0.74508   0.92247   0.47824   0.00000  Uiso   1.00
H1052  H     0.91057   0.84257   0.43268   0.00000  Uiso   1.00
H1053  H     0.85552   0.69050   0.17280   0.00000  Uiso   1.00
O1054  O     0.83333   0.83333   0.25000   0.00000  Uiso   1.00
O1055  O     0.82360   0.79060   0.16625   0.00000  Uiso   1.00
O1056  O     0.79354   0.87313   0.33749   0.00000  Uiso   1.00
O1057  O     0.87755   0.84159   0.15877   0.00000  Uiso   1.00
O1058  O     0.83865   0.82802   0.33749   0.00000  Uiso   1.00
O1059  O     0.78122   0.99519   0.28918   0.00000  Uiso   1.00
O1060  O     0.84515   0.74768   0.27820   0.00000  Uiso   1.00
O1061  O     0.81247   0.92803   0.26767   0.00000  Uiso   1.00
O1062  O     0.74119   0.79917   0.23607   0.00000  Uiso   1.00
O1063  O     0.93452   0.85845   0.21805   0.00000  Uiso   1.00
O1064  O     0.73656   0.85627   0.27820   0.00000  Uiso   1.00
O1065  O     0.92106   0.81944   0.26767   0.00000  Uiso   1.00
O1066  O     0.80467   0.73570   0.23607   0.00000  Uiso   1.00
O1067  O     0.87104   0.92193   0.21805   0.00000  Uiso   1.00
Zn1068 Zn    0.85910   0.80756   0.28277   0.00000  Uiso   1.00
Zn1069 Zn    0.80125   0.79044   0.22257   0.00000  Uiso   1.00
Zn1070 Zn    0.87833   0.86331   0.21188   0.00000  Uiso   1.00
Zn1071 Zn    0.79465   0.87202   0.28277   0.00000  Uiso   1.00
C1072  C     0.05249   0.15984   0.75890   0.00000  Uiso   1.00
C1073  C     0.22803   0.16936   0.96235   0.00000  Uiso   1.00
C1074  C     0.25128   0.15133   0.98169   0.00000  Uiso   1.00
C1075  C     0.28105   0.17353   0.74121   0.00000  Uiso   1.00
C1076  C     0.23335   0.14609   0.52169   0.00000  Uiso   1.00
C1077  C     0.19373   0.16262   0.54256   0.00000  Uiso   1.00
C1078  C     0.25447   0.12534   0.54157   0.00000  Uiso   1.00
C1079  C     0.23841   0.12324   0.58162   0.00000  Uiso   1.00
C1080  C     0.17520   0.15439   0.58190   0.00000  Uiso   1.00
C1081  C     0.32712   0.17600   0.73759   0.00000  Uiso   1.00
C1082  C     0.00707   0.15760   0.76233   0.00000  Uiso   1.00
C1083  C     0.10767   0.22526   0.92173   0.00000  Uiso   1.00
C1084  C     0.18219   0.32267   0.73981   0.00000  Uiso   1.00
C1085  C     0.15063   0.01233   0.76194   0.00000  Uiso   1.00
C1086  C     0.15547   0.05639   0.75920   0.00000  Uiso   1.00
C1087  C     0.17737   0.27783   0.74201   0.00000  Uiso   1.00
C1088  C     0.18815   0.14550   0.64416   0.00000  Uiso   1.00
C1089  C     0.14530   0.18745   0.85654   0.00000  Uiso   1.00
C1090  C     0.13815   0.19731   0.89997   0.00000  Uiso   1.00
C1091  C     0.19885   0.13776   0.60179   0.00000  Uiso   1.00
C1092  C     0.10284   0.23569   0.96173   0.00000  Uiso   1.00
C1093  C     0.22212   0.00816   0.71240   0.00000  Uiso   1.00
C1094  C     0.16265   0.17971   0.92023   0.00000  Uiso   1.00
C1095  C     0.21981   0.02442   0.67888   0.00000  Uiso   1.00
C1096  C     0.25765   0.04058   0.65253   0.00000  Uiso   1.00
C1097  C     0.29793   0.04115   0.65965   0.00000  Uiso   1.00
C1098  C     0.30047   0.02513   0.69300   0.00000  Uiso   1.00
C1099  C     0.26273   0.00851   0.71927   0.00000  Uiso   1.00
C1100  C     0.07634   0.32860   0.77754   0.00000  Uiso   1.00
C1101  C     0.04936   0.02877   0.80328   0.00000  Uiso   1.00
C1102  C     0.00616   0.02746   0.79390   0.00000  Uiso   1.00
C1103  C     0.29278   0.13557   0.95865   0.00000  Uiso   1.00
C1104  C     0.33206   0.15214   0.96703   0.00000  Uiso   1.00
C1105  C     0.16012   0.19429   0.96035   0.00000  Uiso   1.00
C1106  C     0.03693   0.13435   0.94731   0.00000  Uiso   1.00
C1107  C     0.03645   0.10097   0.91826   0.00000  Uiso   1.00
C1108  C     0.33088   0.08477   0.90952   0.00000  Uiso   1.00
C1109  C     0.29250   0.10179   0.92980   0.00000  Uiso   1.00
C1110  C     0.07790   0.24292   0.90508   0.00000  Uiso   1.00
C1111  C     0.07936   0.28631   0.90630   0.00000  Uiso   1.00
C1112  C     0.05019   0.30344   0.89252   0.00000  Uiso   1.00
C1113  C     0.01920   0.27741   0.87746   0.00000  Uiso   1.00
C1114  C     0.01715   0.23420   0.87646   0.00000  Uiso   1.00
C1115  C     0.04612   0.21698   0.89047   0.00000  Uiso   1.00
C1116  C     0.12788   0.22020   0.98105   0.00000  Uiso   1.00
C1117  C     0.18159   0.13976   0.90320   0.00000  Uiso   1.00
C1118  C     0.22230   0.13892   0.87499   0.00000  Uiso   1.00
C1119  C     0.23762   0.10097   0.85765   0.00000  Uiso   1.00
C1120  C     0.21317   0.06353   0.86886   0.00000  Uiso   1.00
C1121  C     0.17349   0.06403   0.89770   0.00000  Uiso   1.00
C1122  C     0.15777   0.10192   0.91485   0.00000  Uiso   1.00
C1123  C     0.13647   0.23204   0.58426   0.00000  Uiso   1.00
C1124  C     0.09466   0.23234   0.61047   0.00000  Uiso   1.00
C1125  C     0.08927   0.24913   0.64947   0.00000  Uiso   1.00
C1126  C     0.12546   0.26558   0.66266   0.00000  Uiso   1.00
C1127  C     0.18674   0.18194   0.98145   0.00000  Uiso   1.00
C1128  C     0.16709   0.26562   0.63680   0.00000  Uiso   1.00
C1129  C     0.17262   0.24950   0.59764   0.00000  Uiso   1.00
C1130  C     0.17348   0.18566   0.52308   0.00000  Uiso   1.00
C1131  C     0.14229   0.21379   0.54289   0.00000  Uiso   1.00
C1132  C     0.12038   0.23067   0.52138   0.00000  Uiso   1.00
H1133  H     0.09714   0.25251   0.53636   0.00000  Uiso   1.00
H1134  H     0.25576   0.05218   0.62636   0.00000  Uiso   1.00
H1135  H     0.32719   0.05371   0.63919   0.00000  Uiso   1.00
H1136  H     0.33174   0.02530   0.69828   0.00000  Uiso   1.00
H1137  H     0.26509   0.32926   0.74490   0.00000  Uiso   1.00
H1138  H     0.05715   0.29766   0.78213   0.00000  Uiso   1.00
H1139  H     0.08231   0.33250   0.74585   0.00000  Uiso   1.00
H1140  H     0.04309   0.02364   0.83442   0.00000  Uiso   1.00
H1141  H     0.06753   0.06015   0.79902   0.00000  Uiso   1.00
H1142  H     0.01179   0.03417   0.76319   0.00000  Uiso   1.00
H1143  H     0.32045   0.05142   0.81377   0.00000  Uiso   1.00
H1144  H     0.28445   0.11215   0.52693   0.00000  Uiso   1.00
H1145  H     0.32045   0.32977   0.79817   0.00000  Uiso   1.00
H1146  H     0.33283   0.17804   0.98942   0.00000  Uiso   1.00
H1147  H     0.06686   0.14651   0.95450   0.00000  Uiso   1.00
H1148  H     0.06609   0.08750   0.90270   0.00000  Uiso   1.00
H1149  H     0.33013   0.05852   0.88760   0.00000  Uiso   1.00
H1150  H     0.26231   0.08796   0.92388   0.00000  Uiso   1.00
H1151  H     0.10295   0.30682   0.91819   0.00000  Uiso   1.00
H1152  H     0.05149   0.00357   0.89379   0.00000  Uiso   1.00
H1153  H     0.33000   0.29073   0.86673   0.00000  Uiso   1.00
H1154  H     0.32641   0.21404   0.86490   0.00000  Uiso   1.00
H1155  H     0.01699   0.19276   0.71475   0.00000  Uiso   1.00
H1156  H     0.04424   0.18350   0.88929   0.00000  Uiso   1.00
H1157  H     0.24140   0.16771   0.86567   0.00000  Uiso   1.00
H1158  H     0.26844   0.10064   0.83555   0.00000  Uiso   1.00
H1159  H     0.22516   0.03416   0.85545   0.00000  Uiso   1.00
H1160  H     0.15482   0.03504   0.90666   0.00000  Uiso   1.00
H1161  H     0.12684   0.10175   0.93696   0.00000  Uiso   1.00
H1162  H     0.06634   0.21915   0.60080   0.00000  Uiso   1.00
H1163  H     0.05705   0.24922   0.66951   0.00000  Uiso   1.00
H1164  H     0.12117   0.27831   0.69290   0.00000  Uiso   1.00
H1165  H     0.19516   0.27799   0.64702   0.00000  Uiso   1.00
H1166  H     0.31794   0.14094   0.78555   0.00000  Uiso   1.00
H1167  H     0.20507   0.25002   0.57789   0.00000  Uiso   1.00
H1168  H     0.14322   0.16218   0.59816   0.00000  Uiso   1.00
H1169  H     0.25752   0.11138   0.59708   0.00000  Uiso   1.00
H1170  H     0.07841   0.25581   0.97824   0.00000  Uiso   1.00
H1171  H     0.24390   0.17591   0.93268   0.00000  Uiso   1.00
H1172  H     0.18886   0.02384   0.67280   0.00000  Uiso   1.00
O1173  O     0.16667   0.16667   0.75000   0.00000  Uiso   1.00
O1174  O     0.15693   0.12393   0.66625   0.00000  Uiso   1.00
O1175  O     0.12687   0.20646   0.83749   0.00000  Uiso   1.00
O1176  O     0.21088   0.17493   0.65877   0.00000  Uiso   1.00
O1177  O     0.17198   0.16135   0.83749   0.00000  Uiso   1.00
O1178  O     0.11456   0.32853   0.78918   0.00000  Uiso   1.00
O1179  O     0.17849   0.08101   0.77820   0.00000  Uiso   1.00
O1180  O     0.14581   0.26136   0.76767   0.00000  Uiso   1.00
O1181  O     0.07452   0.13251   0.73607   0.00000  Uiso   1.00
O1182  O     0.26785   0.19179   0.71805   0.00000  Uiso   1.00
O1183  O     0.06990   0.18960   0.77820   0.00000  Uiso   1.00
O1184  O     0.25440   0.15277   0.76767   0.00000  Uiso   1.00
O1185  O     0.13800   0.06903   0.73607   0.00000  Uiso   1.00
O1186  O     0.20437   0.25527   0.71805   0.00000  Uiso   1.00
Zn1187 Zn    0.19244   0.14090   0.78277   0.00000  Uiso   1.00
Zn1188 Zn    0.13459   0.12378   0.72257   0.00000  Uiso   1.00
Zn1189 Zn    0.21166   0.19664   0.71188   0.00000  Uiso   1.00
Zn1190 Zn    0.12798   0.20535   0.78277   0.00000  Uiso   1.00
C1191  C     0.38582   0.15984   0.75890   0.00000  Uiso   1.00
C1192  C     0.56137   0.16936   0.96235   0.00000  Uiso   1.00
C1193  C     0.58462   0.15133   0.98169   0.00000  Uiso   1.00
C1194  C     0.61438   0.17353   0.74121   0.00000  Uiso   1.00
C1195  C     0.56668   0.14609   0.52169   0.00000  Uiso   1.00
C1196  C     0.52707   0.16262   0.54256   0.00000  Uiso   1.00
C1197  C     0.58780   0.12534   0.54157   0.00000  Uiso   1.00
C1198  C     0.57174   0.12324   0.58162   0.00000  Uiso   1.00
C1199  C     0.50854   0.15439   0.58190   0.00000  Uiso   1.00
C1200  C     0.66046   0.17600   0.73759   0.00000  Uiso   1.00
C1201  C     0.34041   0.15760   0.76233   0.00000  Uiso   1.00
C1202  C     0.44100   0.22526   0.92173   0.00000  Uiso   1.00
C1203  C     0.51552   0.32267   0.73981   0.00000  Uiso   1.00
C1204  C     0.48396   0.01233   0.76194   0.00000  Uiso   1.00
C1205  C     0.48880   0.05639   0.75920   0.00000  Uiso   1.00
C1206  C     0.51070   0.27783   0.74201   0.00000  Uiso   1.00
C1207  C     0.52148   0.14550   0.64416   0.00000  Uiso   1.00
C1208  C     0.47863   0.18745   0.85654   0.00000  Uiso   1.00
C1209  C     0.47148   0.19731   0.89997   0.00000  Uiso   1.00
C1210  C     0.53218   0.13776   0.60179   0.00000  Uiso   1.00
C1211  C     0.43617   0.23569   0.96173   0.00000  Uiso   1.00
C1212  C     0.55545   0.00816   0.71240   0.00000  Uiso   1.00
C1213  C     0.49598   0.17971   0.92023   0.00000  Uiso   1.00
C1214  C     0.55314   0.02442   0.67888   0.00000  Uiso   1.00
C1215  C     0.59099   0.04058   0.65253   0.00000  Uiso   1.00
C1216  C     0.63127   0.04115   0.65965   0.00000  Uiso   1.00
C1217  C     0.63380   0.02513   0.69300   0.00000  Uiso   1.00
C1218  C     0.59606   0.00851   0.71927   0.00000  Uiso   1.00
C1219  C     0.40968   0.32860   0.77754   0.00000  Uiso   1.00
C1220  C     0.38270   0.02877   0.80328   0.00000  Uiso   1.00
C1221  C     0.33949   0.02746   0.79390   0.00000  Uiso   1.00
C1222  C     0.62612   0.13557   0.95865   0.00000  Uiso   1.00
C1223  C     0.66539   0.15214   0.96703   0.00000  Uiso   1.00
C1224  C     0.49345   0.19429   0.96035   0.00000  Uiso   1.00
C1225  C     0.37026   0.13435   0.94731   0.00000  Uiso   1.00
C1226  C     0.36978   0.10097   0.91826   0.00000  Uiso   1.00
C1227  C     0.66421   0.08477   0.90952   0.00000  Uiso   1.00
C1228  C     0.62583   0.10179   0.92980   0.00000  Uiso   1.00
C1229  C     0.41123   0.24292   0.90508   0.00000  Uiso   1.00
C1230  C     0.41270   0.28631   0.90630   0.00000  Uiso   1.00
C1231  C     0.38352   0.30344   0.89252   0.00000  Uiso   1.00
C1232  C     0.35253   0.27741   0.87746   0.00000  Uiso   1.00
C1233  C     0.35049   0.23420   0.87646   0.00000  Uiso   1.00
C1234  C     0.37945   0.21698   0.89047   0.00000  Uiso   1.00
C1235  C     0.46121   0.22020   0.98105   0.00000  Uiso   1.00
C1236  C     0.51492   0.13976   0.90320   0.00000  Uiso   1.00
C1237  C     0.55563   0.13892   0.87499   0.00000  Uiso   1.00
C1238  C     0.57095   0.10097   0.85765   0.00000  Uiso   1.00
C1239  C     0.54651   0.06353   0.86886   0.00000  Uiso   1.00
C1240  C     0.50683   0.06403   0.89770   0.00000  Uiso   1.00
C1241  C     0.49110   0.10192   0.91485   0.00000  Uiso   1.00
C1242  C     0.46980   0.23204   0.58426   0.00000  Uiso   1.00
C1243  C     0.42799   0.23234   0.61047   0.00000  Uiso   1.00
C1244  C     0.42261   0.24913   0.64947   0.00000  Uiso   1.00
C1245  C     0.45879   0.26558   0.66266   0.00000  Uiso   1.00
C1246  C     0.52007   0.18194   0.98145   0.00000  Uiso   1.00
C1247  C     0.50042   0.26562   0.63680   0.00000  Uiso   1.00
C1248  C     0.50595   0.24950   0.59764   0.00000  Uiso   1.00
C1249  C     0.50682   0.18566   0.52308   0.00000  Uiso   1.00
C1250  C     0.47562   0.21379   0.54289   0.00000  Uiso   1.00
C1251  C     0.45371   0.23067   0.52138   0.00000  Uiso   1.00
H1252  H     0.43047   0.25251   0.53636   0.00000  Uiso   1.00
H1253  H     0.58910   0.05218   0.62636   0.00000  Uiso   1.00
H1254  H     0.66053   0.05371   0.63919   0.00000  Uiso   1.00
H1255  H     0.66507   0.02530   0.69828   0.00000  Uiso   1.00
H1256  H     0.59842   0.32926   0.74490   0.00000  Uiso   1.00
H1257  H     0.39049   0.29766   0.78213   0.00000  Uiso   1.00
H1258  H     0.41564   0.33250   0.74585   0.00000  Uiso   1.00
H1259  H     0.37642   0.02364   0.83442   0.00000  Uiso   1.00
H1260  H     0.40086   0.06015   0.79902   0.00000  Uiso   1.00
H1261  H     0.34513   0.03417   0.76319   0.00000  Uiso   1.00
H1262  H     0.65379   0.05142   0.81377   0.00000  Uiso   1.00
H1263  H     0.61778   0.11215   0.52693   0.00000  Uiso   1.00
H1264  H     0.65378   0.32977   0.79817   0.00000  Uiso   1.00
H1265  H     0.66616   0.17804   0.98942   0.00000  Uiso   1.00
H1266  H     0.40019   0.14651   0.95450   0.00000  Uiso   1.00
H1267  H     0.39943   0.08750   0.90270   0.00000  Uiso   1.00
H1268  H     0.66346   0.05852   0.88760   0.00000  Uiso   1.00
H1269  H     0.59564   0.08796   0.92388   0.00000  Uiso   1.00
H1270  H     0.43629   0.30682   0.91819   0.00000  Uiso   1.00
H1271  H     0.38483   0.00357   0.89379   0.00000  Uiso   1.00
H1272  H     0.66334   0.29073   0.86673   0.00000  Uiso   1.00
H1273  H     0.65974   0.21404   0.86490   0.00000  Uiso   1.00
H1274  H     0.35032   0.19276   0.71475   0.00000  Uiso   1.00
H1275  H     0.37757   0.18350   0.88929   0.00000  Uiso   1.00
H1276  H     0.57473   0.16771   0.86567   0.00000  Uiso   1.00
H1277  H     0.60177   0.10064   0.83555   0.00000  Uiso   1.00
H1278  H     0.55849   0.03416   0.85545   0.00000  Uiso   1.00
H1279  H     0.48815   0.03504   0.90666   0.00000  Uiso   1.00
H1280  H     0.46018   0.10175   0.93696   0.00000  Uiso   1.00
H1281  H     0.39967   0.21915   0.60080   0.00000  Uiso   1.00
H1282  H     0.39038   0.24922   0.66951   0.00000  Uiso   1.00
H1283  H     0.45450   0.27831   0.69290   0.00000  Uiso   1.00
H1284  H     0.52849   0.27799   0.64702   0.00000  Uiso   1.00
H1285  H     0.65128   0.14094   0.78555   0.00000  Uiso   1.00
H1286  H     0.53841   0.25002   0.57789   0.00000  Uiso   1.00
H1287  H     0.47655   0.16218   0.59816   0.00000  Uiso   1.00
H1288  H     0.59085   0.11138   0.59708   0.00000  Uiso   1.00
H1289  H     0.41175   0.25581   0.97824   0.00000  Uiso   1.00
H1290  H     0.57723   0.17591   0.93268   0.00000  Uiso   1.00
H1291  H     0.52219   0.02384   0.67280   0.00000  Uiso   1.00
O1292  O     0.50000   0.16667   0.75000   0.00000  Uiso   1.00
O1293  O     0.49027   0.12393   0.66625   0.00000  Uiso   1.00
O1294  O     0.46020   0.20646   0.83749   0.00000  Uiso   1.00
O1295  O     0.54421   0.17493   0.65877   0.00000  Uiso   1.00
O1296  O     0.50532   0.16135   0.83749   0.00000  Uiso   1.00
O1297  O     0.44789   0.32853   0.78918   0.00000  Uiso   1.00
O1298  O     0.51182   0.08101   0.77820   0.00000  Uiso   1.00
O1299  O     0.47914   0.26136   0.76767   0.00000  Uiso   1.00
O1300  O     0.40785   0.13251   0.73607   0.00000  Uiso   1.00
O1301  O     0.60119   0.19179   0.71805   0.00000  Uiso   1.00
O1302  O     0.40323   0.18960   0.77820   0.00000  Uiso   1.00
O1303  O     0.58773   0.15277   0.76767   0.00000  Uiso   1.00
O1304  O     0.47133   0.06903   0.73607   0.00000  Uiso   1.00
O1305  O     0.53771   0.25527   0.71805   0.00000  Uiso   1.00
Zn1306 Zn    0.52577   0.14090   0.78277   0.00000  Uiso   1.00
Zn1307 Zn    0.46792   0.12378   0.72257   0.00000  Uiso   1.00
Zn1308 Zn    0.54500   0.19664   0.71188   0.00000  Uiso   1.00
Zn1309 Zn    0.46131   0.20535   0.78277   0.00000  Uiso   1.00
C1310  C     0.71916   0.15984   0.75890   0.00000  Uiso   1.00
C1311  C     0.89470   0.16936   0.96235   0.00000  Uiso   1.00
C1312  C     0.91795   0.15133   0.98169   0.00000  Uiso   1.00
C1313  C     0.94771   0.17353   0.74121   0.00000  Uiso   1.00
C1314  C     0.90001   0.14609   0.52169   0.00000  Uiso   1.00
C1315  C     0.86040   0.16262   0.54256   0.00000  Uiso   1.00
C1316  C     0.92113   0.12534   0.54157   0.00000  Uiso   1.00
C1317  C     0.90507   0.12324   0.58162   0.00000  Uiso   1.00
C1318  C     0.84187   0.15439   0.58190   0.00000  Uiso   1.00
C1319  C     0.99379   0.17600   0.73759   0.00000  Uiso   1.00
C1320  C     0.67374   0.15760   0.76233   0.00000  Uiso   1.00
C1321  C     0.77434   0.22526   0.92173   0.00000  Uiso   1.00
C1322  C     0.84885   0.32267   0.73981   0.00000  Uiso   1.00
C1323  C     0.81730   0.01233   0.76194   0.00000  Uiso   1.00
C1324  C     0.82213   0.05639   0.75920   0.00000  Uiso   1.00
C1325  C     0.84403   0.27783   0.74201   0.00000  Uiso   1.00
C1326  C     0.85482   0.14550   0.64416   0.00000  Uiso   1.00
C1327  C     0.81196   0.18745   0.85654   0.00000  Uiso   1.00
C1328  C     0.80481   0.19731   0.89997   0.00000  Uiso   1.00
C1329  C     0.86551   0.13776   0.60179   0.00000  Uiso   1.00
C1330  C     0.76950   0.23569   0.96173   0.00000  Uiso   1.00
C1331  C     0.88878   0.00816   0.71240   0.00000  Uiso   1.00
C1332  C     0.82931   0.17971   0.92023   0.00000  Uiso   1.00
C1333  C     0.88648   0.02442   0.67888   0.00000  Uiso   1.00
C1334  C     0.92432   0.04058   0.65253   0.00000  Uiso   1.00
C1335  C     0.96460   0.04115   0.65965   0.00000  Uiso   1.00
C1336  C     0.96714   0.02513   0.69300   0.00000  Uiso   1.00
C1337  C     0.92939   0.00851   0.71927   0.00000  Uiso   1.00
C1338  C     0.74301   0.32860   0.77754   0.00000  Uiso   1.00
C1339  C     0.71603   0.02877   0.80328   0.00000  Uiso   1.00
C1340  C     0.67282   0.02746   0.79390   0.00000  Uiso   1.00
C1341  C     0.95945   0.13557   0.95865   0.00000  Uiso   1.00
C1342  C     0.99873   0.15214   0.96703   0.00000  Uiso   1.00
C1343  C     0.82679   0.19429   0.96035   0.00000  Uiso   1.00
C1344  C     0.70359   0.13435   0.94731   0.00000  Uiso   1.00
C1345  C     0.70312   0.10097   0.91826   0.00000  Uiso   1.00
C1346  C     0.99754   0.08477   0.90952   0.00000  Uiso   1.00
C1347  C     0.95916   0.10179   0.92980   0.00000  Uiso   1.00
C1348  C     0.74456   0.24292   0.90508   0.00000  Uiso   1.00
C1349  C     0.74603   0.28631   0.90630   0.00000  Uiso   1.00
C1350  C     0.71685   0.30344   0.89252   0.00000  Uiso   1.00
C1351  C     0.68587   0.27741   0.87746   0.00000  Uiso   1.00
C1352  C     0.68382   0.23420   0.87646   0.00000  Uiso   1.00
C1353  C     0.71279   0.21698   0.89047   0.00000  Uiso   1.00
C1354  C     0.79455   0.22020   0.98105   0.00000  Uiso   1.00
C1355  C     0.84826   0.13976   0.90320   0.00000  Uiso   1.00
C1356  C     0.88897   0.13892   0.87499   0.00000  Uiso   1.00
C1357  C     0.90429   0.10097   0.85765   0.00000  Uiso   1.00
C1358  C     0.87984   0.06353   0.86886   0.00000  Uiso   1.00
C1359  C     0.84016   0.06403   0.89770   0.00000  Uiso   1.00
C1360  C     0.82443   0.10192   0.91485   0.00000  Uiso   1.00
C1361  C     0.80314   0.23204   0.58426   0.00000  Uiso   1.00
C1362  C     0.76133   0.23234   0.61047   0.00000  Uiso   1.00
C1363  C     0.75594   0.24913   0.64947   0.00000  Uiso   1.00
C1364  C     0.79213   0.26558   0.66266   0.00000  Uiso   1.00
C1365  C     0.85340   0.18194   0.98145   0.00000  Uiso   1.00
C1366  C     0.83375   0.26562   0.63680   0.00000  Uiso   1.00
C1367  C     0.83929   0.24950   0.59764   0.00000  Uiso   1.00
C1368  C     0.84015   0.18566   0.52308   0.00000  Uiso   1.00
C1369  C     0.80895   0.21379   0.54289   0.00000  Uiso   1.00
C1370  C     0.78705   0.23067   0.52138   0.00000  Uiso   1.00
H1371  H     0.76381   0.25251   0.53636   0.00000  Uiso   1.00
H1372  H     0.92243   0.05218   0.62636   0.00000  Uiso   1.00
H1373  H     0.99386   0.05371   0.63919   0.00000  Uiso   1.00
H1374  H     0.99840   0.02530   0.69828   0.00000  Uiso   1.00
H1375  H     0.93176   0.32926   0.74490   0.00000  Uiso   1.00
H1376  H     0.72382   0.29766   0.78213   0.00000  Uiso   1.00
H1377  H     0.74897   0.33250   0.74585   0.00000  Uiso   1.00
H1378  H     0.70975   0.02364   0.83442   0.00000  Uiso   1.00
H1379  H     0.73419   0.06015   0.79902   0.00000  Uiso   1.00
H1380  H     0.67846   0.03417   0.76319   0.00000  Uiso   1.00
H1381  H     0.98712   0.05142   0.81377   0.00000  Uiso   1.00
H1382  H     0.95111   0.11215   0.52693   0.00000  Uiso   1.00
H1383  H     0.98712   0.32977   0.79817   0.00000  Uiso   1.00
H1384  H     0.99950   0.17804   0.98942   0.00000  Uiso   1.00
H1385  H     0.73353   0.14651   0.95450   0.00000  Uiso   1.00
H1386  H     0.73276   0.08750   0.90270   0.00000  Uiso   1.00
H1387  H     0.99679   0.05852   0.88760   0.00000  Uiso   1.00
H1388  H     0.92898   0.08796   0.92388   0.00000  Uiso   1.00
H1389  H     0.76962   0.30682   0.91819   0.00000  Uiso   1.00
H1390  H     0.71816   0.00357   0.89379   0.00000  Uiso   1.00
H1391  H     0.99667   0.29073   0.86673   0.00000  Uiso   1.00
H1392  H     0.99308   0.21404   0.86490   0.00000  Uiso   1.00
H1393  H     0.68366   0.19276   0.71475   0.00000  Uiso   1.00
H1394  H     0.71090   0.18350   0.88929   0.00000  Uiso   1.00
H1395  H     0.90807   0.16771   0.86567   0.00000  Uiso   1.00
H1396  H     0.93510   0.10064   0.83555   0.00000  Uiso   1.00
H1397  H     0.89183   0.03416   0.85545   0.00000  Uiso   1.00
H1398  H     0.82148   0.03504   0.90666   0.00000  Uiso   1.00
H1399  H     0.79351   0.10175   0.93696   0.00000  Uiso   1.00
H1400  H     0.73300   0.21915   0.60080   0.00000  Uiso   1.00
H1401  H     0.72372   0.24922   0.66951   0.00000  Uiso   1.00
H1402  H     0.78784   0.27831   0.69290   0.00000  Uiso   1.00
H1403  H     0.86182   0.27799   0.64702   0.00000  Uiso   1.00
H1404  H     0.98461   0.14094   0.78555   0.00000  Uiso   1.00
H1405  H     0.87174   0.25002   0.57789   0.00000  Uiso   1.00
H1406  H     0.80989   0.16218   0.59816   0.00000  Uiso   1.00
H1407  H     0.92419   0.11138   0.59708   0.00000  Uiso   1.00
H1408  H     0.74508   0.25581   0.97824   0.00000  Uiso   1.00
H1409  H     0.91057   0.17591   0.93268   0.00000  Uiso   1.00
H1410  H     0.85552   0.02384   0.67280   0.00000  Uiso   1.00
O1411  O     0.83333   0.16667   0.75000   0.00000  Uiso   1.00
O1412  O     0.82360   0.12393   0.66625   0.00000  Uiso   1.00
O1413  O     0.79354   0.20646   0.83749   0.00000  Uiso   1.00
O1414  O     0.87755   0.17493   0.65877   0.00000  Uiso   1.00
O1415  O     0.83865   0.16135   0.83749   0.00000  Uiso   1.00
O1416  O     0.78122   0.32853   0.78918   0.00000  Uiso   1.00
O1417  O     0.84515   0.08101   0.77820   0.00000  Uiso   1.00
O1418  O     0.81247   0.26136   0.76767   0.00000  Uiso   1.00
O1419  O     0.74119   0.13251   0.73607   0.00000  Uiso   1.00
O1420  O     0.93452   0.19179   0.71805   0.00000  Uiso   1.00
O1421  O     0.73656   0.18960   0.77820   0.00000  Uiso   1.00
O1422  O     0.92106   0.15277   0.76767   0.00000  Uiso   1.00
O1423  O     0.80467   0.06903   0.73607   0.00000  Uiso   1.00
O1424  O     0.87104   0.25527   0.71805   0.00000  Uiso   1.00
Zn1425 Zn    0.85910   0.14090   0.78277   0.00000  Uiso   1.00
Zn1426 Zn    0.80125   0.12378   0.72257   0.00000  Uiso   1.00
Zn1427 Zn    0.87833   0.19664   0.71188   0.00000  Uiso   1.00
Zn1428 Zn    0.79465   0.20535   0.78277   0.00000  Uiso   1.00
C1429  C     0.05249   0.49317   0.75890   0.00000  Uiso   1.00
C1430  C     0.22803   0.50270   0.96235   0.00000  Uiso   1.00
C1431  C     0.25128   0.48467   0.98169   0.00000  Uiso   1.00
C1432  C     0.28105   0.50686   0.74121   0.00000  Uiso   1.00
C1433  C     0.23335   0.47943   0.52169   0.00000  Uiso   1.00
C1434  C     0.19373   0.49595   0.54256   0.00000  Uiso   1.00
C1435  C     0.25447   0.45867   0.54157   0.00000  Uiso   1.00
C1436  C     0.23841   0.45657   0.58162   0.00000  Uiso   1.00
C1437  C     0.17520   0.48772   0.58190   0.00000  Uiso   1.00
C1438  C     0.32712   0.50933   0.73759   0.00000  Uiso   1.00
C1439  C     0.00707   0.49093   0.76233   0.00000  Uiso   1.00
C1440  C     0.10767   0.55859   0.92173   0.00000  Uiso   1.00
C1441  C     0.18219   0.65600   0.73981   0.00000  Uiso   1.00
C1442  C     0.15063   0.34566   0.76194   0.00000  Uiso   1.00
C1443  C     0.15547   0.38972   0.75920   0.00000  Uiso   1.00
C1444  C     0.17737   0.61116   0.74201   0.00000  Uiso   1.00
C1445  C     0.18815   0.47883   0.64416   0.00000  Uiso   1.00
C1446  C     0.14530   0.52078   0.85654   0.00000  Uiso   1.00
C1447  C     0.13815   0.53064   0.89997   0.00000  Uiso   1.00
C1448  C     0.19885   0.47110   0.60179   0.00000  Uiso   1.00
C1449  C     0.10284   0.56902   0.96173   0.00000  Uiso   1.00
C1450  C     0.22212   0.34149   0.71240   0.00000  Uiso   1.00
C1451  C     0.16265   0.51305   0.92023   0.00000  Uiso   1.00
C1452  C     0.21981   0.35775   0.67888   0.00000  Uiso   1.00
C1453  C     0.25765   0.37391   0.65253   0.00000  Uiso   1.00
C1454  C     0.29793   0.37448   0.65965   0.00000  Uiso   1.00
C1455  C     0.30047   0.35846   0.69300   0.00000  Uiso   1.00
C1456  C     0.26273   0.34184   0.71927   0.00000  Uiso   1.00
C1457  C     0.07634   0.66194   0.77754   0.00000  Uiso   1.00
C1458  C     0.04936   0.36210   0.80328   0.00000  Uiso   1.00
C1459  C     0.00616   0.36080   0.79390   0.00000  Uiso   1.00
C1460  C     0.29278   0.46890   0.95865   0.00000  Uiso   1.00
C1461  C     0.33206   0.48547   0.96703   0.00000  Uiso   1.00
C1462  C     0.16012   0.52763   0.96035   0.00000  Uiso   1.00
C1463  C     0.03693   0.46768   0.94731   0.00000  Uiso   1.00
C1464  C     0.03645   0.43430   0.91826   0.00000  Uiso   1.00
C1465  C     0.33088   0.41810   0.90952   0.00000  Uiso   1.00
C1466  C     0.29250   0.43513   0.92980   0.00000  Uiso   1.00
C1467  C     0.07790   0.57625   0.90508   0.00000  Uiso   1.00
C1468  C     0.07936   0.61965   0.90630   0.00000  Uiso   1.00
C1469  C     0.05019   0.63677   0.89252   0.00000  Uiso   1.00
C1470  C     0.01920   0.61075   0.87746   0.00000  Uiso   1.00
C1471  C     0.01715   0.56754   0.87646   0.00000  Uiso   1.00
C1472  C     0.04612   0.55031   0.89047   0.00000  Uiso   1.00
C1473  C     0.12788   0.55353   0.98105   0.00000  Uiso   1.00
C1474  C     0.18159   0.47310   0.90320   0.00000  Uiso   1.00
C1475  C     0.22230   0.47226   0.87499   0.00000  Uiso   1.00
C1476  C     0.23762   0.43430   0.85765   0.00000  Uiso   1.00
C1477  C     0.21317   0.39686   0.86886   0.00000  Uiso   1.00
C1478  C     0.17349   0.39737   0.89770   0.00000  Uiso   1.00
C1479  C     0.15777   0.43525   0.91485   0.00000  Uiso   1.00
C1480  C     0.13647   0.56537   0.58426   0.00000  Uiso   1.00
C1481  C     0.09466   0.56568   0.61047   0.00000  Uiso   1.00
C1482  C     0.08927   0.58246   0.64947   0.00000  Uiso   1.00
C1483  C     0.12546   0.59892   0.66266   0.00000  Uiso   1.00
C1484  C     0.18674   0.51527   0.98145   0.00000  Uiso   1.00
C1485  C     0.16709   0.59895   0.63680   0.00000  Uiso   1.00
C1486  C     0.17262   0.58283   0.59764   0.00000  Uiso   1.00
C1487  C     0.17348   0.51899   0.52308   0.00000  Uiso   1.00
C1488  C     0.14229   0.54713   0.54289   0.00000  Uiso   1.00
C1489  C     0.12038   0.56401   0.52138   0.00000  Uiso   1.00
H1490  H     0.09714   0.58584   0.53636   0.00000  Uiso   1.00
H1491  H     0.25576   0.38552   0.62636   0.00000  Uiso   1.00
H1492  H     0.32719   0.38705   0.63919   0.00000  Uiso   1.00
H1493  H     0.33174   0.35864   0.69828   0.00000  Uiso   1.00
H1494  H     0.26509   0.66260   0.74490   0.00000  Uiso   1.00
H1495  H     0.05715   0.63100   0.78213   0.00000  Uiso   1.00
H1496  H     0.08231   0.66583   0.74585   0.00000  Uiso   1.00
H1497  H     0.04309   0.35697   0.83442   0.00000  Uiso   1.00
H1498  H     0.06753   0.39348   0.79902   0.00000  Uiso   1.00
H1499  H     0.01179   0.36750   0.76319   0.00000  Uiso   1.00
H1500  H     0.32045   0.38475   0.81377   0.00000  Uiso   1.00
H1501  H     0.28445   0.44548   0.52693   0.00000  Uiso   1.00
H1502  H     0.32045   0.66310   0.79817   0.00000  Uiso   1.00
H1503  H     0.33283   0.51137   0.98942   0.00000  Uiso   1.00
H1504  H     0.06686   0.47985   0.95450   0.00000  Uiso   1.00
H1505  H     0.06609   0.42083   0.90270   0.00000  Uiso   1.00
H1506  H     0.33013   0.39186   0.88760   0.00000  Uiso   1.00
H1507  H     0.26231   0.42129   0.92388   0.00000  Uiso   1.00
H1508  H     0.10295   0.64015   0.91819   0.00000  Uiso   1.00
H1509  H     0.05149   0.33690   0.89379   0.00000  Uiso   1.00
H1510  H     0.33000   0.62406   0.86673   0.00000  Uiso   1.00
H1511  H     0.32641   0.54737   0.86490   0.00000  Uiso   1.00
H1512  H     0.01699   0.52609   0.71475   0.00000  Uiso   1.00
H1513  H     0.04424   0.51683   0.88929   0.00000  Uiso   1.00
H1514  H     0.24140   0.50105   0.86567   0.00000  Uiso   1.00
H1515  H     0.26844   0.43397   0.83555   0.00000  Uiso   1.00
H1516  H     0.22516   0.36749   0.85545   0.00000  Uiso   1.00
H1517  H     0.15482   0.36837   0.90666   0.00000  Uiso   1.00
H1518  H     0.12684   0.43509   0.93696   0.00000  Uiso   1.00
H1519  H     0.06634   0.55248   0.60080   0.00000  Uiso   1.00
H1520  H     0.05705   0.58256   0.66951   0.00000  Uiso   1.00
H1521  H     0.12117   0.61165   0.69290   0.00000  Uiso   1.00
H1522  H     0.19516   0.61132   0.64702   0.00000  Uiso   1.00
H1523  H     0.31794   0.47427   0.78555   0.00000  Uiso   1.00
H1524  H     0.20507   0.58335   0.57789   0.00000  Uiso   1.00
H1525  H     0.14322   0.49552   0.59816   0.00000  Uiso   1.00
H1526  H     0.25752   0.44471   0.59708   0.00000  Uiso   1.00
H1527  H     0.07841   0.58914   0.97824   0.00000  Uiso   1.00
H1528  H     0.24390   0.50924   0.93268   0.00000  Uiso   1.00
H1529  H     0.18886   0.35717   0.67280   0.00000  Uiso   1.00
O1530  O     0.16667   0.50000   0.75000   0.00000  Uiso   1.00
O1531  O     0.15693   0.45726   0.66625   0.00000  Uiso   1.00
O1532  O     0.12687   0.53979   0.83749   0.00000  Uiso   1.00
O1533  O     0.21088   0.50826   0.65877   0.00000  Uiso   1.00
O1534  O     0.17198   0.49468   0.83749   0.00000  Uiso   1.00
O1535  O     0.11456   0.66186   0.78918   0.00000  Uiso   1.00
O1536  O     0.17849   0.41434   0.77820   0.00000  Uiso   1.00
O1537  O     0.14581   0.59469   0.76767   0.00000  Uiso   1.00
O1538  O     0.07452   0.46584   0.73607   0.00000  Uiso   1.00
O1539  O     0.26785   0.52512   0.71805   0.00000  Uiso   1.00
O1540  O     0.06990   0.52293   0.77820   0.00000  Uiso   1.00
O1541  O     0.25440   0.48610   0.76767   0.00000  Uiso   1.00
O1542  O     0.13800   0.40236   0.73607   0.00000  Uiso   1.00
O1543  O     0.20437   0.58860   0.71805   0.00000  Uiso   1.00
Zn1544 Zn    0.19244   0.47423   0.78277   0.00000  Uiso   1.00
Zn1545 Zn    0.13459   0.45711   0.72257   0.00000  Uiso   1.00
Zn1546 Zn    0.21166   0.52997   0.71188   0.00000  Uiso   1.00
Zn1547 Zn    0.12798   0.53868   0.78277   0.00000  Uiso   1.00
C1548  C     0.38582   0.49317   0.75890   0.00000  Uiso   1.00
C1549  C     0.56137   0.50270   0.96235   0.00000  Uiso   1.00
C1550  C     0.58462   0.48467   0.98169   0.00000  Uiso   1.00
C1551  C     0.61438   0.50686   0.74121   0.00000  Uiso   1.00
C1552  C     0.56668   0.47943   0.52169   0.00000  Uiso   1.00
C1553  C     0.52707   0.49595   0.54256   0.00000  Uiso   1.00
C1554  C     0.58780   0.45867   0.54157   0.00000  Uiso   1.00
C1555  C     0.57174   0.45657   0.58162   0.00000  Uiso   1.00
C1556  C     0.50854   0.48772   0.58190   0.00000  Uiso   1.00
C1557  C     0.66046   0.50933   0.73759   0.00000  Uiso   1.00
C1558  C     0.34041   0.49093   0.76233   0.00000  Uiso   1.00
C1559  C     0.44100   0.55859   0.92173   0.00000  Uiso   1.00
C1560  C     0.51552   0.65600   0.73981   0.00000  Uiso   1.00
C1561  C     0.48396   0.34566   0.76194   0.00000  Uiso   1.00
C1562  C     0.48880   0.38972   0.75920   0.00000  Uiso   1.00
C1563  C     0.51070   0.61116   0.74201   0.00000  Uiso   1.00
C1564  C     0.52148   0.47883   0.64416   0.00000  Uiso   1.00
C1565  C     0.47863   0.52078   0.85654   0.00000  Uiso   1.00
C1566  C     0.47148   0.53064   0.89997   0.00000  Uiso   1.00
C1567  C     0.53218   0.47110   0.60179   0.00000  Uiso   1.00
C1568  C     0.43617   0.56902   0.96173   0.00000  Uiso   1.00
C1569  C     0.55545   0.34149   0.71240   0.00000  Uiso   1.00
C1570  C     0.49598   0.51305   0.92023   0.00000  Uiso   1.00
C1571  C     0.55314   0.35775   0.67888   0.00000  Uiso   1.00
C1572  C     0.59099   0.37391   0.65253   0.00000  Uiso   1.00
C1573  C     0.63127   0.37448   0.65965   0.00000  Uiso   1.00
C1574  C     0.63380   0.35846   0.69300   0.00000  Uiso   1.00
C1575  C     0.59606   0.34184   0.71927   0.00000  Uiso   1.00
C1576  C     0.40968   0.66194   0.77754   0.00000  Uiso   1.00
C1577  C     0.38270   0.36210   0.80328   0.00000  Uiso   1.00
C1578  C     0.33949   0.36080   0.79390   0.00000  Uiso   1.00
C1579  C     0.62612   0.46890   0.95865   0.00000  Uiso   1.00
C1580  C     0.66539   0.48547   0.96703   0.00000  Uiso   1.00
C1581  C     0.49345   0.52763   0.96035   0.00000  Uiso   1.00
C1582  C     0.37026   0.46768   0.94731   0.00000  Uiso   1.00
C1583  C     0.36978   0.43430   0.91826   0.00000  Uiso   1.00
C1584  C     0.66421   0.41810   0.90952   0.00000  Uiso   1.00
C1585  C     0.62583   0.43513   0.92980   0.00000  Uiso   1.00
C1586  C     0.41123   0.57625   0.90508   0.00000  Uiso   1.00
C1587  C     0.41270   0.61965   0.90630   0.00000  Uiso   1.00
C1588  C     0.38352   0.63677   0.89252   0.00000  Uiso   1.00
C1589  C     0.35253   0.61075   0.87746   0.00000  Uiso   1.00
C1590  C     0.35049   0.56754   0.87646   0.00000  Uiso   1.00
C1591  C     0.37945   0.55031   0.89047   0.00000  Uiso   1.00
C1592  C     0.46121   0.55353   0.98105   0.00000  Uiso   1.00
C1593  C     0.51492   0.47310   0.90320   0.00000  Uiso   1.00
C1594  C     0.55563   0.47226   0.87499   0.00000  Uiso   1.00
C1595  C     0.57095   0.43430   0.85765   0.00000  Uiso   1.00
C1596  C     0.54651   0.39686   0.86886   0.00000  Uiso   1.00
C1597  C     0.50683   0.39737   0.89770   0.00000  Uiso   1.00
C1598  C     0.49110   0.43525   0.91485   0.00000  Uiso   1.00
C1599  C     0.46980   0.56537   0.58426   0.00000  Uiso   1.00
C1600  C     0.42799   0.56568   0.61047   0.00000  Uiso   1.00
C1601  C     0.42261   0.58246   0.64947   0.00000  Uiso   1.00
C1602  C     0.45879   0.59892   0.66266   0.00000  Uiso   1.00
C1603  C     0.52007   0.51527   0.98145   0.00000  Uiso   1.00
C1604  C     0.50042   0.59895   0.63680   0.00000  Uiso   1.00
C1605  C     0.50595   0.58283   0.59764   0.00000  Uiso   1.00
C1606  C     0.50682   0.51899   0.52308   0.00000  Uiso   1.00
C1607  C     0.47562   0.54713   0.54289   0.00000  Uiso   1.00
C1608  C     0.45371   0.56401   0.52138   0.00000  Uiso   1.00
H1609  H     0.43047   0.58584   0.53636   0.00000  Uiso   1.00
H1610  H     0.58910   0.38552   0.62636   0.00000  Uiso   1.00
H1611  H     0.66053   0.38705   0.63919   0.00000  Uiso   1.00
H1612  H     0.66507   0.35864   0.69828   0.00000  Uiso   1.00
H1613  H     0.59842   0.66260   0.74490   0.00000  Uiso   1.00
H1614  H     0.39049   0.63100   0.78213   0.00000  Uiso   1.00
H1615  H     0.41564   0.66583   0.74585   0.00000  Uiso   1.00
H1616  H     0.37642   0.35697   0.83442   0.00000  Uiso   1.00
H1617  H     0.40086   0.39348   0.79902   0.00000  Uiso   1.00
H1618  H     0.34513   0.36750   0.76319   0.00000  Uiso   1.00
H1619  H     0.65379   0.38475   0.81377   0.00000  Uiso   1.00
H1620  H     0.61778   0.44548   0.52693   0.00000  Uiso   1.00
H1621  H     0.65378   0.66310   0.79817   0.00000  Uiso   1.00
H1622  H     0.66616   0.51137   0.98942   0.00000  Uiso   1.00
H1623  H     0.40019   0.47985   0.95450   0.00000  Uiso   1.00
H1624  H     0.39943   0.42083   0.90270   0.00000  Uiso   1.00
H1625  H     0.66346   0.39186   0.88760   0.00000  Uiso   1.00
H1626  H     0.59564   0.42129   0.92388   0.00000  Uiso   1.00
H1627  H     0.43629   0.64015   0.91819   0.00000  Uiso   1.00
H1628  H     0.38483   0.33690   0.89379   0.00000  Uiso   1.00
H1629  H     0.66334   0.62406   0.86673   0.00000  Uiso   1.00
H1630  H     0.65974   0.54737   0.86490   0.00000  Uiso   1.00
H1631  H     0.35032   0.52609   0.71475   0.00000  Uiso   1.00
H1632  H     0.37757   0.51683   0.88929   0.00000  Uiso   1.00
H1633  H     0.57473   0.50105   0.86567   0.00000  Uiso   1.00
H1634  H     0.60177   0.43397   0.83555   0.00000  Uiso   1.00
H1635  H     0.55849   0.36749   0.85545   0.00000  Uiso   1.00
H1636  H     0.48815   0.36837   0.90666   0.00000  Uiso   1.00
H1637  H     0.46018   0.43509   0.93696   0.00000  Uiso   1.00
H1638  H     0.39967   0.55248   0.60080   0.00000  Uiso   1.00
H1639  H     0.39038   0.58256   0.66951   0.00000  Uiso   1.00
H1640  H     0.45450   0.61165   0.69290   0.00000  Uiso   1.00
H1641  H     0.52849   0.61132   0.64702   0.00000  Uiso   1.00
H1642  H     0.65128   0.47427   0.78555   0.00000  Uiso   1.00
H1643  H     0.53841   0.58335   0.57789   0.00000  Uiso   1.00
H1644  H     0.47655   0.49552   0.59816   0.00000  Uiso   1.00
H1645  H     0.59085   0.44471   0.59708   0.00000  Uiso   1.00
H1646  H     0.41175   0.58914   0.97824   0.00000  Uiso   1.00
H1647  H     0.57723   0.50924   0.93268   0.00000  Uiso   1.00
H1648  H     0.52219   0.35717   0.67280   0.00000  Uiso   1.00
O1649  O     0.50000   0.50000   0.75000   0.00000  Uiso   1.00
O1650  O     0.49027   0.45726   0.66625   0.00000  Uiso   1.00
O1651  O     0.46020   0.53979   0.83749   0.00000  Uiso   1.00
O1652  O     0.54421   0.50826   0.65877   0.00000  Uiso   1.00
O1653  O     0.50532   0.49468   0.83749   0.00000  Uiso   1.00
O1654  O     0.44789   0.66186   0.78918   0.00000  Uiso   1.00
O1655  O     0.51182   0.41434   0.77820   0.00000  Uiso   1.00
O1656  O     0.47914   0.59469   0.76767   0.00000  Uiso   1.00
O1657  O     0.40785   0.46584   0.73607   0.00000  Uiso   1.00
O1658  O     0.60119   0.52512   0.71805   0.00000  Uiso   1.00
O1659  O     0.40323   0.52293   0.77820   0.00000  Uiso   1.00
O1660  O     0.58773   0.48610   0.76767   0.00000  Uiso   1.00
O1661  O     0.47133   0.40236   0.73607   0.00000  Uiso   1.00
O1662  O     0.53771   0.58860   0.71805   0.00000  Uiso   1.00
Zn1663 Zn    0.52577   0.47423   0.78277   0.00000  Uiso   1.00
Zn1664 Zn    0.46792   0.45711   0.72257   0.00000  Uiso   1.00
Zn1665 Zn    0.54500   0.52997   0.71188   0.00000  Uiso   1.00
Zn1666 Zn    0.46131   0.53868   0.78277   0.00000  Uiso   1.00
C1667  C     0.71916   0.49317   0.75890   0.00000  Uiso   1.00
C1668  C     0.89470   0.50270   0.96235   0.00000  Uiso   1.00
C1669  C     0.91795   0.48467   0.98169   0.00000  Uiso   1.00
C1670  C     0.94771   0.50686   0.74121   0.00000  Uiso   1.00
C1671  C     0.90001   0.47943   0.52169   0.00000  Uiso   1.00
C1672  C     0.86040   0.49595   0.54256   0.00000  Uiso   1.00
C1673  C     0.92113   0.45867   0.54157   0.00000  Uiso   1.00
C1674  C     0.90507   0.45657   0.58162   0.00000  Uiso   1.00
C1675  C     0.84187   0.48772   0.58190   0.00000  Uiso   1.00
C1676  C     0.99379   0.50933   0.73759   0.00000  Uiso   1.00
C1677  C     0.67374   0.49093   0.76233   0.00000  Uiso   1.00
C1678  C     0.77434   0.55859   0.92173   0.00000  Uiso   1.00
C1679  C     0.84885   0.65600   0.73981   0.00000  Uiso   1.00
C1680  C     0.81730   0.34566   0.76194   0.00000  Uiso   1.00
C1681  C     0.82213   0.38972   0.75920   0.00000  Uiso   1.00
C1682  C     0.84403   0.61116   0.74201   0.00000  Uiso   1.00
C1683  C     0.85482   0.47883   0.64416   0.00000  Uiso   1.00
C1684  C     0.81196   0.52078   0.85654   0.00000  Uiso   1.00
C1685  C     0.80481   0.53064   0.89997   0.00000  Uiso   1.00
C1686  C     0.86551   0.47110   0.60179   0.00000  Uiso   1.00
C1687  C     0.76950   0.56902   0.96173   0.00000  Uiso   1.00
C1688  C     0.88878   0.34149   0.71240   0.00000  Uiso   1.00
C1689  C     0.82931   0.51305   0.92023   0.00000  Uiso   1.00
C1690  C     0.88648   0.35775   0.67888   0.00000  Uiso   1.00
C1691  C     0.92432   0.37391   0.65253   0.00000  Uiso   1.00
C1692  C     0.96460   0.37448   0.65965   0.00000  Uiso   1.00
C1693  C     0.96714   0.35846   0.69300   0.00000  Uiso   1.00
C1694  C     0.92939   0.34184   0.71927   0.00000  Uiso   1.00
C1695  C     0.74301   0.66194   0.77754   0.00000  Uiso   1.00
C1696  C     0.71603   0.36210   0.80328   0.00000  Uiso   1.00
C1697  C     0.67282   0.36080   0.79390   0.00000  Uiso   1.00
C1698  C     0.95945   0.46890   0.95865   0.00000  Uiso   1.00
C1699  C     0.99873   0.48547   0.96703   0.00000  Uiso   1.00
C1700  C     0.82679   0.52763   0.96035   0.00000  Uiso   1.00
C1701  C     0.70359   0.46768   0.94731   0.00000  Uiso   1.00
C1702  C     0.70312   0.43430   0.91826   0.00000  Uiso   1.00
C1703  C     0.99754   0.41810   0.90952   0.00000  Uiso   1.00
C1704  C     0.95916   0.43513   0.92980   0.00000  Uiso   1.00
C1705  C     0.74456   0.57625   0.90508   0.00000  Uiso   1.00
C1706  C     0.74603   0.61965   0.90630   0.00000  Uiso   1.00
C1707  C     0.71685   0.63677   0.89252   0.00000  Uiso   1.00
C1708  C     0.68587   0.61075   0.87746   0.00000  Uiso   1.00
C1709  C     0.68382   0.56754   0.87646   0.00000  Uiso   1.00
C1710  C     0.71279   0.55031   0.89047   0.00000  Uiso   1.00
C1711  C     0.79455   0.55353   0.98105   0.00000  Uiso   1.00
C1712  C     0.84826   0.47310   0.90320   0.00000  Uiso   1.00
C1713  C     0.88897   0.47226   0.87499   0.00000  Uiso   1.00
C1714  C     0.90429   0.43430   0.85765   0.00000  Uiso   1.00
C1715  C     0.87984   0.39686   0.86886   0.00000  Uiso   1.00
C1716  C     0.84016   0.39737   0.89770   0.00000  Uiso   1.00
C1717  C     0.82443   0.43525   0.91485   0.00000  Uiso   1.00
C1718  C     0.80314   0.56537   0.58426   0.00000  Uiso   1.00
C1719  C     0.76133   0.56568   0.61047   0.00000  Uiso   1.00
C1720  C     0.75594   0.58246   0.64947   0.00000  Uiso   1.00
C1721  C     0.79213   0.59892   0.66266   0.00000  Uiso   1.00
C1722  C     0.85340   0.51527   0.98145   0.00000  Uiso   1.00
C1723  C     0.83375   0.59895   0.63680   0.00000  Uiso   1.00
C1724  C     0.83929   0.58283   0.59764   0.00000  Uiso   1.00
C1725  C     0.84015   0.51899   0.52308   0.00000  Uiso   1.00
C1726  C     0.80895   0.54713   0.54289   0.00000  Uiso   1.00
C1727  C     0.78705   0.56401   0.52138   0.00000  Uiso   1.00
H1728  H     0.76381   0.58584   0.53636   0.00000  Uiso   1.00
H1729  H     0.92243   0.38552   0.62636   0.00000  Uiso   1.00
H1730  H     0.99386   0.38705   0.63919   0.00000  Uiso   1.00
H1731  H     0.99840   0.35864   0.69828   0.00000  Uiso   1.00
H1732  H     0.93176   0.66260   0.74490   0.00000  Uiso   1.00
H1733  H     0.72382   0.63100   0.78213   0.00000  Uiso   1.00
H1734  H     0.74897   0.66583   0.74585   0.00000  Uiso   1.00
H1735  H     0.70975   0.35697   0.83442   0.00000  Uiso   1.00
H1736  H     0.73419   0.39348   0.79902   0.00000  Uiso   1.00
H1737  H     0.67846   0.36750   0.76319   0.00000  Uiso   1.00
H1738  H     0.98712   0.38475   0.81377   0.00000  Uiso   1.00
H1739  H     0.95111   0.44548   0.52693   0.00000  Uiso   1.00
H1740  H     0.98712   0.66310   0.79817   0.00000  Uiso   1.00
H1741  H     0.99950   0.51137   0.98942   0.00000  Uiso   1.00
H1742  H     0.73353   0.47985   0.95450   0.00000  Uiso   1.00
H1743  H     0.73276   0.42083   0.90270   0.00000  Uiso   1.00
H1744  H     0.99679   0.39186   0.88760   0.00000  Uiso   1.00
H1745  H     0.92898   0.42129   0.92388   0.00000  Uiso   1.00
H1746  H     0.76962   0.64015   0.91819   0.00000  Uiso   1.00
H1747  H     0.71816   0.33690   0.89379   0.00000  Uiso   1.00
H1748  H     0.99667   0.62406   0.86673   0.00000  Uiso   1.00
H1749  H     0.99308   0.54737   0.86490   0.00000  Uiso   1.00
H1750  H     0.68366   0.52609   0.71475   0.00000  Uiso   1.00
H1751  H     0.71090   0.51683   0.88929   0.00000  Uiso   1.00
H1752  H     0.90807   0.50105   0.86567   0.00000  Uiso   1.00
H1753  H     0.93510   0.43397   0.83555   0.00000  Uiso   1.00
H1754  H     0.89183   0.36749   0.85545   0.00000  Uiso   1.00
H1755  H     0.82148   0.36837   0.90666   0.00000  Uiso   1.00
H1756  H     0.79351   0.43509   0.93696   0.00000  Uiso   1.00
H1757  H     0.73300   0.55248   0.60080   0.00000  Uiso   1.00
H1758  H     0.72372   0.58256   0.66951   0.00000  Uiso   1.00
H1759  H     0.78784   0.61165   0.69290   0.00000  Uiso   1.00
H1760  H     0.86182   0.61132   0.64702   0.00000  Uiso   1.00
H1761  H     0.98461   0.47427   0.78555   0.00000  Uiso   1.00
H1762  H     0.87174   0.58335   0.57789   0.00000  Uiso   1.00
H1763  H     0.80989   0.49552   0.59816   0.00000  Uiso   1.00
H1764  H     0.92419   0.44471   0.59708   0.00000  Uiso   1.00
H1765  H     0.74508   0.58914   0.97824   0.00000  Uiso   1.00
H1766  H     0.91057   0.50924   0.93268   0.00000  Uiso   1.00
H1767  H     0.85552   0.35717   0.67280   0.00000  Uiso   1.00
O1768  O     0.83333   0.50000   0.75000   0.00000  Uiso   1.00
O1769  O     0.82360   0.45726   0.66625   0.00000  Uiso   1.00
O1770  O     0.79354   0.53979   0.83749   0.00000  Uiso   1.00
O1771  O     0.87755   0.50826   0.65877   0.00000  Uiso   1.00
O1772  O     0.83865   0.49468   0.83749   0.00000  Uiso   1.00
O1773  O     0.78122   0.66186   0.78918   0.00000  Uiso   1.00
O1774  O     0.84515   0.41434   0.77820   0.00000  Uiso   1.00
O1775  O     0.81247   0.59469   0.76767   0.00000  Uiso   1.00
O1776  O     0.74119   0.46584   0.73607   0.00000  Uiso   1.00
O1777  O     0.93452   0.52512   0.71805   0.00000  Uiso   1.00
O1778  O     0.73656   0.52293   0.77820   0.00000  Uiso   1.00
O1779  O     0.92106   0.48610   0.76767   0.00000  Uiso   1.00
O1780  O     0.80467   0.40236   0.73607   0.00000  Uiso   1.00
O1781  O     0.87104   0.58860   0.71805   0.00000  Uiso   1.00
Zn1782 Zn    0.85910   0.47423   0.78277   0.00000  Uiso   1.00
Zn1783 Zn    0.80125   0.45711   0.72257   0.00000  Uiso   1.00
Zn1784 Zn    0.87833   0.52997   0.71188   0.00000  Uiso   1.00
Zn1785 Zn    0.79465   0.53868   0.78277   0.00000  Uiso   1.00
C1786  C     0.05249   0.82650   0.75890   0.00000  Uiso   1.00
C1787  C     0.22803   0.83603   0.96235   0.00000  Uiso   1.00
C1788  C     0.25128   0.81800   0.98169   0.00000  Uiso   1.00
C1789  C     0.28105   0.84019   0.74121   0.00000  Uiso   1.00
C1790  C     0.23335   0.81276   0.52169   0.00000  Uiso   1.00
C1791  C     0.19373   0.82928   0.54256   0.00000  Uiso   1.00
C1792  C     0.25447   0.79201   0.54157   0.00000  Uiso   1.00
C1793  C     0.23841   0.78991   0.58162   0.00000  Uiso   1.00
C1794  C     0.17520   0.82105   0.58190   0.00000  Uiso   1.00
C1795  C     0.32712   0.84266   0.73759   0.00000  Uiso   1.00
C1796  C     0.00707   0.82426   0.76233   0.00000  Uiso   1.00
C1797  C     0.10767   0.89192   0.92173   0.00000  Uiso   1.00
C1798  C     0.18219   0.98933   0.73981   0.00000  Uiso   1.00
C1799  C     0.15063   0.67900   0.76194   0.00000  Uiso   1.00
C1800  C     0.15547   0.72305   0.75920   0.00000  Uiso   1.00
C1801  C     0.17737   0.94449   0.74201   0.00000  Uiso   1.00
C1802  C     0.18815   0.81216   0.64416   0.00000  Uiso   1.00
C1803  C     0.14530   0.85411   0.85654   0.00000  Uiso   1.00
C1804  C     0.13815   0.86398   0.89997   0.00000  Uiso   1.00
C1805  C     0.19885   0.80443   0.60179   0.00000  Uiso   1.00
C1806  C     0.10284   0.90236   0.96173   0.00000  Uiso   1.00
C1807  C     0.22212   0.67482   0.71240   0.00000  Uiso   1.00
C1808  C     0.16265   0.84638   0.92023   0.00000  Uiso   1.00
C1809  C     0.21981   0.69109   0.67888   0.00000  Uiso   1.00
C1810  C     0.25765   0.70724   0.65253   0.00000  Uiso   1.00
C1811  C     0.29793   0.70781   0.65965   0.00000  Uiso   1.00
C1812  C     0.30047   0.69180   0.69300   0.00000  Uiso   1.00
C1813  C     0.26273   0.67517   0.71927   0.00000  Uiso   1.00
C1814  C     0.07634   0.99527   0.77754   0.00000  Uiso   1.00
C1815  C     0.04936   0.69544   0.80328   0.00000  Uiso   1.00
C1816  C     0.00616   0.69413   0.79390   0.00000  Uiso   1.00
C1817  C     0.29278   0.80223   0.95865   0.00000  Uiso   1.00
C1818  C     0.33206   0.81880   0.96703   0.00000  Uiso   1.00
C1819  C     0.16012   0.86096   0.96035   0.00000  Uiso   1.00
C1820  C     0.03693   0.80101   0.94731   0.00000  Uiso   1.00
C1821  C     0.03645   0.76764   0.91826   0.00000  Uiso   1.00
C1822  C     0.33088   0.75143   0.90952   0.00000  Uiso   1.00
C1823  C     0.29250   0.76846   0.92980   0.00000  Uiso   1.00
C1824  C     0.07790   0.90958   0.90508   0.00000  Uiso   1.00
C1825  C     0.07936   0.95298   0.90630   0.00000  Uiso   1.00
C1826  C     0.05019   0.97010   0.89252   0.00000  Uiso   1.00
C1827  C     0.01920   0.94408   0.87746   0.00000  Uiso   1.00
C1828  C     0.01715   0.90087   0.87646   0.00000  Uiso   1.00
C1829  C     0.04612   0.88364   0.89047   0.00000  Uiso   1.00
C1830  C     0.12788   0.88687   0.98105   0.00000  Uiso   1.00
C1831  C     0.18159   0.80643   0.90320   0.00000  Uiso   1.00
C1832  C     0.22230   0.80559   0.87499   0.00000  Uiso   1.00
C1833  C     0.23762   0.76764   0.85765   0.00000  Uiso   1.00
C1834  C     0.21317   0.73020   0.86886   0.00000  Uiso   1.00
C1835  C     0.17349   0.73070   0.89770   0.00000  Uiso   1.00
C1836  C     0.15777   0.76859   0.91485   0.00000  Uiso   1.00
C1837  C     0.13647   0.89871   0.58426   0.00000  Uiso   1.00
C1838  C     0.09466   0.89901   0.61047   0.00000  Uiso   1.00
C1839  C     0.08927   0.91579   0.64947   0.00000  Uiso   1.00
C1840  C     0.12546   0.93225   0.66266   0.00000  Uiso   1.00
C1841  C     0.18674   0.84860   0.98145   0.00000  Uiso   1.00
C1842  C     0.16709   0.93229   0.63680   0.00000  Uiso   1.00
C1843  C     0.17262   0.91617   0.59764   0.00000  Uiso   1.00
C1844  C     0.17348   0.85233   0.52308   0.00000  Uiso   1.00
C1845  C     0.14229   0.88046   0.54289   0.00000  Uiso   1.00
C1846  C     0.12038   0.89734   0.52138   0.00000  Uiso   1.00
H1847  H     0.09714   0.91918   0.53636   0.00000  Uiso   1.00
H1848  H     0.25576   0.71885   0.62636   0.00000  Uiso   1.00
H1849  H     0.32719   0.72038   0.63919   0.00000  Uiso   1.00
H1850  H     0.33174   0.69197   0.69828   0.00000  Uiso   1.00
H1851  H     0.26509   0.99593   0.74490   0.00000  Uiso   1.00
H1852  H     0.05715   0.96433   0.78213   0.00000  Uiso   1.00
H1853  H     0.08231   0.99916   0.74585   0.00000  Uiso   1.00
H1854  H     0.04309   0.69030   0.83442   0.00000  Uiso   1.00
H1855  H     0.06753   0.72682   0.79902   0.00000  Uiso   1.00
H1856  H     0.01179   0.70084   0.76319   0.00000  Uiso   1.00
H1857  H     0.32045   0.71808   0.81377   0.00000  Uiso   1.00
H1858  H     0.28445   0.77881   0.52693   0.00000  Uiso   1.00
H1859  H     0.32045   0.99643   0.79817   0.00000  Uiso   1.00
H1860  H     0.33283   0.84471   0.98942   0.00000  Uiso   1.00
H1861  H     0.06686   0.81318   0.95450   0.00000  Uiso   1.00
H1862  H     0.06609   0.75417   0.90270   0.00000  Uiso   1.00
H1863  H     0.33013   0.72519   0.88760   0.00000  Uiso   1.00
H1864  H     0.26231   0.75462   0.92388   0.00000  Uiso   1.00
H1865  H     0.10295   0.97349   0.91819   0.00000  Uiso   1.00
H1866  H     0.05149   0.67024   0.89379   0.00000  Uiso   1.00
H1867  H     0.33000   0.95740   0.86673   0.00000  Uiso   1.00
H1868  H     0.32641   0.88070   0.86490   0.00000  Uiso   1.00
H1869  H     0.01699   0.85943   0.71475   0.00000  Uiso   1.00
H1870  H     0.04424   0.85017   0.88929   0.00000  Uiso   1.00
H1871  H     0.24140   0.83438   0.86567   0.00000  Uiso   1.00
H1872  H     0.26844   0.76731   0.83555   0.00000  Uiso   1.00
H1873  H     0.22516   0.70083   0.85545   0.00000  Uiso   1.00
H1874  H     0.15482   0.70171   0.90666   0.00000  Uiso   1.00
H1875  H     0.12684   0.76842   0.93696   0.00000  Uiso   1.00
H1876  H     0.06634   0.88581   0.60080   0.00000  Uiso   1.00
H1877  H     0.05705   0.91589   0.66951   0.00000  Uiso   1.00
H1878  H     0.12117   0.94498   0.69290   0.00000  Uiso   1.00
H1879  H     0.19516   0.94466   0.64702   0.00000  Uiso   1.00
H1880  H     0.31794   0.80760   0.78555   0.00000  Uiso   1.00
H1881  H     0.20507   0.91669   0.57789   0.00000  Uiso   1.00
H1882  H     0.14322   0.82885   0.59816   0.00000  Uiso   1.00
H1883  H     0.25752   0.77804   0.59708   0.00000  Uiso   1.00
H1884  H     0.07841   0.92247   0.97824   0.00000  Uiso   1.00
H1885  H     0.24390   0.84257   0.93268   0.00000  Uiso   1.00
H1886  H     0.18886   0.69050   0.67280   0.00000  Uiso   1.00
O1887  O     0.16667   0.83333   0.75000   0.00000  Uiso   1.00
O1888  O     0.15693   0.79060   0.66625   0.00000  Uiso   1.00
O1889  O     0.12687   0.87313   0.83749   0.00000  Uiso   1.00
O1890  O     0.21088   0.84159   0.65877   0.00000  Uiso   1.00
O1891  O     0.17198   0.82802   0.83749   0.00000  Uiso   1.00
O1892  O     0.11456   0.99519   0.78918   0.00000  Uiso   1.00
O1893  O     0.17849   0.74768   0.77820   0.00000  Uiso   1.00
O1894  O     0.14581   0.92803   0.76767   0.00000  Uiso   1.00
O1895  O     0.07452   0.79917   0.73607   0.00000  Uiso   1.00
O1896  O     0.26785   0.85845   0.71805   0.00000  Uiso   1.00
O1897  O     0.06990   0.85627   0.77820   0.00000  Uiso   1.00
O1898  O     0.25440   0.81944   0.76767   0.00000  Uiso   1.00
O1899  O     0.13800   0.73570   0.73607   0.00000  Uiso   1.00
O1900  O     0.20437   0.92193   0.71805   0.00000  Uiso   1.00
Zn1901 Zn    0.19244   0.80756   0.78277   0.00000  Uiso   1.00
Zn1902 Zn    0.13459   0.79044   0.72257   0.00000  Uiso   1.00
Zn1903 Zn    0.21166   0.86331   0.71188   0.00000  Uiso   1.00
Zn1904 Zn    0.12798   0.87202   0.78277   0.00000  Uiso   1.00
C1905  C     0.38582   0.82650   0.75890   0.00000  Uiso   1.00
C1906  C     0.56137   0.83603   0.96235   0.00000  Uiso   1.00
C1907  C     0.58462   0.81800   0.98169   0.00000  Uiso   1.00
C1908  C     0.61438   0.84019   0.74121   0.00000  Uiso   1.00
C1909  C     0.56668   0.81276   0.52169   0.00000  Uiso   1.00
C1910  C     0.52707   0.82928   0.54256   0.00000  Uiso   1.00
C1911  C     0.58780   0.79201   0.54157   0.00000  Uiso   1.00
C1912  C     0.57174   0.78991   0.58162   0.00000  Uiso   1.00
C1913  C     0.50854   0.82105   0.58190   0.00000  Uiso   1.00
C1914  C     0.66046   0.84266   0.73759   0.00000  Uiso   1.00
C1915  C     0.34041   0.82426   0.76233   0.00000  Uiso   1.00
C1916  C     0.44100   0.89192   0.92173   0.00000  Uiso   1.00
C1917  C     0.51552   0.98933   0.73981   0.00000  Uiso   1.00
C1918  C     0.48396   0.67900   0.76194   0.00000  Uiso   1.00
C1919  C     0.48880   0.72305   0.75920   0.00000  Uiso   1.00
C1920  C     0.51070   0.94449   0.74201   0.00000  Uiso   1.00
C1921  C     0.52148   0.81216   0.64416   0.00000  Uiso   1.00
C1922  C     0.47863   0.85411   0.85654   0.00000  Uiso   1.00
C1923  C     0.47148   0.86398   0.89997   0.00000  Uiso   1.00
C1924  C     0.53218   0.80443   0.60179   0.00000  Uiso   1.00
C1925  C     0.43617   0.90236   0.96173   0.00000  Uiso   1.00
C1926  C     0.55545   0.67482   0.71240   0.00000  Uiso   1.00
C1927  C     0.49598   0.84638   0.92023   0.00000  Uiso   1.00
C1928  C     0.55314   0.69109   0.67888   0.00000  Uiso   1.00
C1929  C     0.59099   0.70724   0.65253   0.00000  Uiso   1.00
C1930  C     0.63127   0.70781   0.65965   0.00000  Uiso   1.00
C1931  C     0.63380   0.69180   0.69300   0.00000  Uiso   1.00
C1932  C     0.59606   0.67517   0.71927   0.00000  Uiso   1.00
C1933  C     0.40968   0.99527   0.77754   0.00000  Uiso   1.00
C1934  C     0.38270   0.69544   0.80328   0.00000  Uiso   1.00
C1935  C     0.33949   0.69413   0.79390   0.00000  Uiso   1.00
C1936  C     0.62612   0.80223   0.95865   0.00000  Uiso   1.00
C1937  C     0.66539   0.81880   0.96703   0.00000  Uiso   1.00
C1938  C     0.49345   0.86096   0.96035   0.00000  Uiso   1.00
C1939  C     0.37026   0.80101   0.94731   0.00000  Uiso   1.00
C1940  C     0.36978   0.76764   0.91826   0.00000  Uiso   1.00
C1941  C     0.66421   0.75143   0.90952   0.00000  Uiso   1.00
C1942  C     0.62583   0.76846   0.92980   0.00000  Uiso   1.00
C1943  C     0.41123   0.90958   0.90508   0.00000  Uiso   1.00
C1944  C     0.41270   0.95298   0.90630   0.00000  Uiso   1.00
C1945  C     0.38352   0.97010   0.89252   0.00000  Uiso   1.00
C1946  C     0.35253   0.94408   0.87746   0.00000  Uiso   1.00
C1947  C     0.35049   0.90087   0.87646   0.00000  Uiso   1.00
C1948  C     0.37945   0.88364   0.89047   0.00000  Uiso   1.00
C1949  C     0.46121   0.88687   0.98105   0.00000  Uiso   1.00
C1950  C     0.51492   0.80643   0.90320   0.00000  Uiso   1.00
C1951  C     0.55563   0.80559   0.87499   0.00000  Uiso   1.00
C1952  C     0.57095   0.76764   0.85765   0.00000  Uiso   1.00
C1953  C     0.54651   0.73020   0.86886   0.00000  Uiso   1.00
C1954  C     0.50683   0.73070   0.89770   0.00000  Uiso   1.00
C1955  C     0.49110   0.76859   0.91485   0.00000  Uiso   1.00
C1956  C     0.46980   0.89871   0.58426   0.00000  Uiso   1.00
C1957  C     0.42799   0.89901   0.61047   0.00000  Uiso   1.00
C1958  C     0.42261   0.91579   0.64947   0.00000  Uiso   1.00
C1959  C     0.45879   0.93225   0.66266   0.00000  Uiso   1.00
C1960  C     0.52007   0.84860   0.98145   0.00000  Uiso   1.00
C1961  C     0.50042   0.93229   0.63680   0.00000  Uiso   1.00
C1962  C     0.50595   0.91617   0.59764   0.00000  Uiso   1.00
C1963  C     0.50682   0.85233   0.52308   0.00000  Uiso   1.00
C1964  C     0.47562   0.88046   0.54289   0.00000  Uiso   1.00
C1965  C     0.45371   0.89734   0.52138   0.00000  Uiso   1.00
H1966  H     0.43047   0.91918   0.53636   0.00000  Uiso   1.00
H1967  H     0.58910   0.71885   0.62636   0.00000  Uiso   1.00
H1968  H     0.66053   0.72038   0.63919   0.00000  Uiso   1.00
H1969  H     0.66507   0.69197   0.69828   0.00000  Uiso   1.00
H1970  H     0.59842   0.99593   0.74490   0.00000  Uiso   1.00
H1971  H     0.39049   0.96433   0.78213   0.00000  Uiso   1.00
H1972  H     0.41564   0.99916   0.74585   0.00000  Uiso   1.00
H1973  H     0.37642   0.69030   0.83442   0.00000  Uiso   1.00
H1974  H     0.40086   0.72682   0.79902   0.00000  Uiso   1.00
H1975  H     0.34513   0.70084   0.76319   0.00000  Uiso   1.00
H1976  H     0.65379   0.71808   0.81377   0.00000  Uiso   1.00
H1977  H     0.61778   0.77881   0.52693   0.00000  Uiso   1.00
H1978  H     0.65378   0.99643   0.79817   0.00000  Uiso   1.00
H1979  H     0.66616   0.84471   0.98942   0.00000  Uiso   1.00
H1980  H     0.40019   0.81318   0.95450   0.00000  Uiso   1.00
H1981  H     0.39943   0.75417   0.90270   0.00000  Uiso   1.00
H1982  H     0.66346   0.72519   0.88760   0.00000  Uiso   1.00
H1983  H     0.59564   0.75462   0.92388   0.00000  Uiso   1.00
H1984  H     0.43629   0.97349   0.91819   0.00000  Uiso   1.00
H1985  H     0.38483   0.67024   0.89379   0.00000  Uiso   1.00
H1986  H     0.66334   0.95740   0.86673   0.00000  Uiso   1.00
H1987  H     0.65974   0.88070   0.86490   0.00000  Uiso   1.00
H1988  H     0.35032   0.85943   0.71475   0.00000  Uiso   1.00
H1989  H     0.37757   0.85017   0.88929   0.00000  Uiso   1.00
H1990  H     0.57473   0.83438   0.86567   0.00000  Uiso   1.00
H1991  H     0.60177   0.76731   0.83555   0.00000  Uiso   1.00
H1992  H     0.55849   0.70083   0.85545   0.00000  Uiso   1.00
H1993  H     0.48815   0.70171   0.90666   0.00000  Uiso   1.00
H1994  H     0.46018   0.76842   0.93696   0.00000  Uiso   1.00
H1995  H     0.39967   0.88581   0.60080   0.00000  Uiso   1.00
H1996  H     0.39038   0.91589   0.66951   0.00000  Uiso   1.00
H1997  H     0.45450   0.94498   0.69290   0.00000  Uiso   1.00
H1998  H     0.52849   0.94466   0.64702   0.00000  Uiso   1.00
H1999  H     0.65128   0.80760   0.78555   0.00000  Uiso   1.00
H2000  H     0.53841   0.91669   0.57789   0.00000  Uiso   1.00
H2001  H     0.47655   0.82885   0.59816   0.00000  Uiso   1.00
H2002  H     0.59085   0.77804   0.59708   0.00000  Uiso   1.00
H2003  H     0.41175   0.92247   0.97824   0.00000  Uiso   1.00
H2004  H     0.57723   0.84257   0.93268   0.00000  Uiso   1.00
H2005  H     0.52219   0.69050   0.67280   0.00000  Uiso   1.00
O2006  O     0.50000   0.83333   0.75000   0.00000  Uiso   1.00
O2007  O     0.49027   0.79060   0.66625   0.00000  Uiso   1.00
O2008  O     0.46020   0.87313   0.83749   0.00000  Uiso   1.00
O2009  O     0.54421   0.84159   0.65877   0.00000  Uiso   1.00
O2010  O     0.50532   0.82802   0.83749   0.00000  Uiso   1.00
O2011  O     0.44789   0.99519   0.78918   0.00000  Uiso   1.00
O2012  O     0.51182   0.74768   0.77820   0.00000  Uiso   1.00
O2013  O     0.47914   0.92803   0.76767   0.00000  Uiso   1.00
O2014  O     0.40785   0.79917   0.73607   0.00000  Uiso   1.00
O2015  O     0.60119   0.85845   0.71805   0.00000  Uiso   1.00
O2016  O     0.40323   0.85627   0.77820   0.00000  Uiso   1.00
O2017  O     0.58773   0.81944   0.76767   0.00000  Uiso   1.00
O2018  O     0.47133   0.73570   0.73607   0.00000  Uiso   1.00
O2019  O     0.53771   0.92193   0.71805   0.00000  Uiso   1.00
Zn2020 Zn    0.52577   0.80756   0.78277   0.00000  Uiso   1.00
Zn2021 Zn    0.46792   0.79044   0.72257   0.00000  Uiso   1.00
Zn2022 Zn    0.54500   0.86331   0.71188   0.00000  Uiso   1.00
Zn2023 Zn    0.46131   0.87202   0.78277   0.00000  Uiso   1.00
C2024  C     0.71916   0.82650   0.75890   0.00000  Uiso   1.00
C2025  C     0.89470   0.83603   0.96235   0.00000  Uiso   1.00
C2026  C     0.91795   0.81800   0.98169   0.00000  Uiso   1.00
C2027  C     0.94771   0.84019   0.74121   0.00000  Uiso   1.00
C2028  C     0.90001   0.81276   0.52169   0.00000  Uiso   1.00
C2029  C     0.86040   0.82928   0.54256   0.00000  Uiso   1.00
C2030  C     0.92113   0.79201   0.54157   0.00000  Uiso   1.00
C2031  C     0.90507   0.78991   0.58162   0.00000  Uiso   1.00
C2032  C     0.84187   0.82105   0.58190   0.00000  Uiso   1.00
C2033  C     0.99379   0.84266   0.73759   0.00000  Uiso   1.00
C2034  C     0.67374   0.82426   0.76233   0.00000  Uiso   1.00
C2035  C     0.77434   0.89192   0.92173   0.00000  Uiso   1.00
C2036  C     0.84885   0.98933   0.73981   0.00000  Uiso   1.00
C2037  C     0.81730   0.67900   0.76194   0.00000  Uiso   1.00
C2038  C     0.82213   0.72305   0.75920   0.00000  Uiso   1.00
C2039  C     0.84403   0.94449   0.74201   0.00000  Uiso   1.00
C2040  C     0.85482   0.81216   0.64416   0.00000  Uiso   1.00
C2041  C     0.81196   0.85411   0.85654   0.00000  Uiso   1.00
C2042  C     0.80481   0.86398   0.89997   0.00000  Uiso   1.00
C2043  C     0.86551   0.80443   0.60179   0.00000  Uiso   1.00
C2044  C     0.76950   0.90236   0.96173   0.00000  Uiso   1.00
C2045  C     0.88878   0.67482   0.71240   0.00000  Uiso   1.00
C2046  C     0.82931   0.84638   0.92023   0.00000  Uiso   1.00
C2047  C     0.88648   0.69109   0.67888   0.00000  Uiso   1.00
C2048  C     0.92432   0.70724   0.65253   0.00000  Uiso   1.00
C2049  C     0.96460   0.70781   0.65965   0.00000  Uiso   1.00
C2050  C     0.96714   0.69180   0.69300   0.00000  Uiso   1.00
C2051  C     0.92939   0.67517   0.71927   0.00000  Uiso   1.00
C2052  C     0.74301   0.99527   0.77754   0.00000  Uiso   1.00
C2053  C     0.71603   0.69544   0.80328   0.00000  Uiso   1.00
C2054  C     0.67282   0.69413   0.79390   0.00000  Uiso   1.00
C2055  C     0.95945   0.80223   0.95865   0.00000  Uiso   1.00
C2056  C     0.99873   0.81880   0.96703   0.00000  Uiso   1.00
C2057  C     0.82679   0.86096   0.96035   0.00000  Uiso   1.00
C2058  C     0.70359   0.80101   0.94731   0.00000  Uiso   1.00
C2059  C     0.70312   0.76764   0.91826   0.00000  Uiso   1.00
C2060  C     0.99754   0.75143   0.90952   0.00000  Uiso   1.00
C2061  C     0.95916   0.76846   0.92980   0.00000  Uiso   1.00
C2062  C     0.74456   0.90958   0.90508   0.00000  Uiso   1.00
C2063  C     0.74603   0.95298   0.90630   0.00000  Uiso   1.00
C2064  C     0.71685   0.97010   0.89252   0.00000  Uiso   1.00
C2065  C     0.68587   0.94408   0.87746   0.00000  Uiso   1.00
C2066  C     0.68382   0.90087   0.87646   0.00000  Uiso   1.00
C2067  C     0.71279   0.88364   0.89047   0.00000  Uiso   1.00
C2068  C     0.79455   0.88687   0.98105   0.00000  Uiso   1.00
C2069  C     0.84826   0.80643   0.90320   0.00000  Uiso   1.00
C2070  C     0.88897   0.80559   0.87499   0.00000  Uiso   1.00
C2071  C     0.90429   0.76764   0.85765   0.00000  Uiso   1.00
C2072  C     0.87984   0.73020   0.86886   0.00000  Uiso   1.00
C2073  C     0.84016   0.73070   0.89770   0.00000  Uiso   1.00
C2074  C     0.82443   0.76859   0.91485   0.00000  Uiso   1.00
C2075  C     0.80314   0.89871   0.58426   0.00000  Uiso   1.00
C2076  C     0.76133   0.89901   0.61047   0.00000  Uiso   1.00
C2077  C     0.75594   0.91579   0.64947   0.00000  Uiso   1.00
C2078  C     0.79213   0.93225   0.66266   0.00000  Uiso   1.00
C2079  C     0.85340   0.84860   0.98145   0.00000  Uiso   1.00
C2080  C     0.83375   0.93229   0.63680   0.00000  Uiso   1.00
C2081  C     0.83929   0.91617   0.59764   0.00000  Uiso   1.00
C2082  C     0.84015   0.85233   0.52308   0.00000  Uiso   1.00
C2083  C     0.80895   0.88046   0.54289   0.00000  Uiso   1.00
C2084  C     0.78705   0.89734   0.52138   0.00000  Uiso   1.00
H2085  H     0.76381   0.91918   0.53636   0.00000  Uiso   1.00
H2086  H     0.92243   0.71885   0.62636   0.00000  Uiso   1.00
H2087  H     0.99386   0.72038   0.63919   0.00000  Uiso   1.00
H2088  H     0.99840   0.69197   0.69828   0.00000  Uiso   1.00
H2089  H     0.93176   0.99593   0.74490   0.00000  Uiso   1.00
H2090  H     0.72382   0.96433   0.78213   0.00000  Uiso   1.00
H2091  H     0.74897   0.99916   0.74585   0.00000  Uiso   1.00
H2092  H     0.70975   0.69030   0.83442   0.00000  Uiso   1.00
H2093  H     0.73419   0.72682   0.79902   0.00000  Uiso   1.00
H2094  H     0.67846   0.70084   0.76319   0.00000  Uiso   1.00
H2095  H     0.98712   0.71808   0.81377   0.00000  Uiso   1.00
H2096  H     0.95111   0.77881   0.52693   0.00000  Uiso   1.00
H2097  H     0.98712   0.99643   0.79817   0.00000  Uiso   1.00
H2098  H     0.99950   0.84471   0.98942   0.00000  Uiso   1.00
H2099  H     0.73353   0.81318   0.95450   0.00000  Uiso   1.00
H2100  H     0.73276   0.75417   0.90270   0.00000  Uiso   1.00
H2101  H     0.99679   0.72519   0.88760   0.00000  Uiso   1.00
H2102  H     0.92898   0.75462   0.92388   0.00000  Uiso   1.00
H2103  H     0.76962   0.97349   0.91819   0.00000  Uiso   1.00
H2104  H     0.71816   0.67024   0.89379   0.00000  Uiso   1.00
H2105  H     0.99667   0.95740   0.86673   0.00000  Uiso   1.00
H2106  H     0.99308   0.88070   0.86490   0.00000  Uiso   1.00
H2107  H     0.68366   0.85943   0.71475   0.00000  Uiso   1.00
H2108  H     0.71090   0.85017   0.88929   0.00000  Uiso   1.00
H2109  H     0.90807   0.83438   0.86567   0.00000  Uiso   1.00
H2110  H     0.93510   0.76731   0.83555   0.00000  Uiso   1.00
H2111  H     0.89183   0.70083   0.85545   0.00000  Uiso   1.00
H2112  H     0.82148   0.70171   0.90666   0.00000  Uiso   1.00
H2113  H     0.79351   0.76842   0.93696   0.00000  Uiso   1.00
H2114  H     0.73300   0.88581   0.60080   0.00000  Uiso   1.00
H2115  H     0.72372   0.91589   0.66951   0.00000  Uiso   1.00
H2116  H     0.78784   0.94498   0.69290   0.00000  Uiso   1.00
H2117  H     0.86182   0.94466   0.64702   0.00000  Uiso   1.00
H2118  H     0.98461   0.80760   0.78555   0.00000  Uiso   1.00
H2119  H     0.87174   0.91669   0.57789   0.00000  Uiso   1.00
H2120  H     0.80989   0.82885   0.59816   0.00000  Uiso   1.00
H2121  H     0.92419   0.77804   0.59708   0.00000  Uiso   1.00
H2122  H     0.74508   0.92247   0.97824   0.00000  Uiso   1.00
H2123  H     0.91057   0.84257   0.93268   0.00000  Uiso   1.00
H2124  H     0.85552   0.69050   0.67280   0.00000  Uiso   1.00
O2125  O     0.83333   0.83333   0.75000   0.00000  Uiso   1.00
O2126  O     0.82360   0.79060   0.66625   0.00000  Uiso   1.00
O2127  O     0.79354   0.87313   0.83749   0.00000  Uiso   1.00
O2128  O     0.87755   0.84159   0.65877   0.00000  Uiso   1.00
O2129  O     0.83865   0.82802   0.83749   0.00000  Uiso   1.00
O2130  O     0.78122   0.99519   0.78918   0.00000  Uiso   1.00
O2131  O     0.84515   0.74768   0.77820   0.00000  Uiso   1.00
O2132  O     0.81247   0.92803   0.76767   0.00000  Uiso   1.00
O2133  O     0.74119   0.79917   0.73607   0.00000  Uiso   1.00
O2134  O     0.93452   0.85845   0.71805   0.00000  Uiso   1.00
O2135  O     0.73656   0.85627   0.77820   0.00000  Uiso   1.00
O2136  O     0.92106   0.81944   0.76767   0.00000  Uiso   1.00
O2137  O     0.80467   0.73570   0.73607   0.00000  Uiso   1.00
O2138  O     0.87104   0.92193   0.71805   0.00000  Uiso   1.00
Zn2139 Zn    0.85910   0.80756   0.78277   0.00000  Uiso   1.00
Zn2140 Zn    0.80125   0.79044   0.72257   0.00000  Uiso   1.00
Zn2141 Zn    0.87833   0.86331   0.71188   0.00000  Uiso   1.00
Zn2142 Zn    0.79465   0.87202   0.78277   0.00000  Uiso   1.00
loop_
_geom_bond_atom_site_label_1
_geom_bond_atom_site_label_2
_geom_bond_distance
_geom_bond_site_symmetry_2
_ccdc_geom_bond_type
C1     O112    1.271   .     A
C1     C11     1.432   .     S
C1     O110    1.272   .     A
C2     H100    1.075   .     S
C2     C3      1.393   .     A
C2     C56     1.406   .     A
C3     C32     1.481   .     S
C3     C1076   1.406   .     S
C4     O113    1.279   .     A
C4     O111    1.283   .     A
C4     C10     1.451   .     S
C5     C7      1.410   .     A
C5     C6      1.425   .     A
C5     C1074   1.406   1_554 S
C6     C9      1.410   .     A
C6     C59     1.428   .     A
C7     C8      1.385   .     A
C7     H73     1.081   .     S
C8     C20     1.391   .     A
C8     H98     1.081   .     S
C9     C20     1.391   .     A
C9     H97     1.079   .     S
C10    C130    1.333   .     S
C10    H203    1.087   .     S
C11    C248    1.333   1_455 S
C11    H333    1.085   1_455 S
C12    C21     1.393   .     A
C12    C39     1.487   .     S
C12    C19     1.426   .     A
C13    C16     1.459   .     S
C13    C371    1.351   .     S
C13    C379    1.488   .     S
C14    C15     1.437   .     S
C14    C727    1.351   1_545 S
C14    O821    1.390   1_545 S
C15    O114    1.270   .     A
C15    O108    1.276   .     A
C16    O109    1.269   .     A
C16    O115    1.273   .     A
C17    C20     1.449   .     S
C17    O105    1.270   .     A
C17    O103    1.276   .     A
C18    C19     1.500   .     S
C18    O106    1.284   .     A
C18    O104    1.292   .     A
C19    C23     1.439   .     A
C21    H99     1.086   .     S
C21    C45     1.392   .     A
C22    C28     1.405   .     A
C22    C24     1.404   .     A
C22    C727    1.488   1_545 S
C23    C34     1.432   .     A
C23    C46     1.497   .     S
C24    H101    1.083   .     S
C24    C25     1.397   .     A
C25    H63     1.080   .     S
C25    C26     1.397   .     A
C26    C27     1.397   .     A
C26    H64     1.082   .     S
C27    H65     1.082   .     S
C27    C28     1.399   .     A
C28    H780    1.083   1_545 S
C29    H67     1.111   .     S
C29    H68     1.117   .     S
C29    O107    1.417   .     S
C29    C387    1.529   .     S
C30    C31     1.524   .     S
C30    H70     1.110   .     S
C30    H69     1.107   .     S
C30    C743    1.529   1_545 S
C31    H71     1.110   .     S
C31    H310    1.109   1_455 S
C31    H1026   1.111   1_445 S
C32    C38     1.402   .     A
C32    C33     1.405   .     A
C33    H75     1.083   .     S
C33    C154    1.399   .     S
C34    C56     1.429   .     A
C34    C45     1.410   .     A
C35    C36     1.398   .     A
C35    H76     1.080   .     S
C35    C271    1.399   1_455 S
C36    H77     1.082   .     S
C36    C275    1.397   1_455 S
C37    C38     1.396   .     A
C37    H78     1.080   .     S
C37    C155    1.397   .     S
C38    H79     1.081   .     S
C39    C40     1.405   .     A
C39    C44     1.408   .     A
C40    H80     1.082   .     S
C40    C41     1.397   .     A
C41    C42     1.398   .     A
C41    H438    1.082   .     S
C42    C43     1.397   .     A
C42    H320    1.082   1_455 S
C43    C44     1.398   .     A
C43    H321    1.083   1_455 S
C44    H85     1.080   .     S
C45    C1132   1.395   .     S
C46    C51     1.404   .     A
C46    C47     1.411   .     A
C47    H86     1.084   .     S
C47    C48     1.397   .     A
C48    H87     1.080   .     S
C48    C49     1.396   .     A
C49    H88     1.082   .     S
C49    C50     1.397   .     A
C50    H89     1.081   .     S
C50    C51     1.398   .     A
C51    H90     1.082   .     S
C52    C60     1.487   .     S
C52    C58     1.406   .     A
C52    C53     1.407   .     A
C53    C54     1.398   .     A
C53    H91     1.083   .     S
C54    H92     1.082   .     S
C54    C55     1.397   .     A
C55    H93     1.081   .     S
C55    C57     1.397   .     A
C56    C1130   1.420   .     S
C57    H94     1.080   .     S
C57    C58     1.397   .     A
C58    H96     1.083   .     S
C59    C60     1.429   .     A
C59    C1127   1.420   1_554 S
C60    C61     1.397   .     A
C61    H62     1.086   .     S
C61    C1116   1.395   1_554 S
H66    C385    1.083   .     S
H72    C150    1.109   .     S
H74    C507    1.111   .     S
H81    C755    1.082   1_545 S
H82    C161    1.082   .     S
H83    C162    1.083   .     S
H84    C248    1.087   1_455 S
H95    C130    1.085   .     S
O102   Zn118   1.936   .     S
O102   Zn117   1.944   .     S
O102   Zn116   1.958   .     S
O102   Zn119   1.933   .     S
O103   Zn117   1.937   .     S
O104   Zn119   1.945   .     S
O105   Zn118   1.941   .     S
O106   Zn116   1.933   .     S
O107   C371    1.390   .     S
O108   Zn116   1.934   .     S
O109   Zn119   1.937   .     S
O110   Zn117   1.918   .     S
O111   Zn118   1.927   .     S
O112   Zn119   1.924   .     S
O113   Zn116   1.916   .     S
O114   Zn117   1.941   .     S
O115   Zn118   1.936   .     S
C120   O231    1.271   .     A
C120   C130    1.432   .     S
C120   O229    1.272   .     A
C121   H219    1.075   .     S
C121   C122    1.393   .     A
C121   C175    1.406   .     A
C122   C151    1.481   .     S
C122   C1195   1.406   .     S
C123   O232    1.279   .     A
C123   O230    1.283   .     A
C123   C129    1.451   .     S
C124   C126    1.410   .     A
C124   C125    1.425   .     A
C124   C1193   1.406   1_554 S
C125   C128    1.410   .     A
C125   C178    1.428   .     A
C126   C127    1.385   .     A
C126   H192    1.081   .     S
C127   C139    1.391   .     A
C127   H217    1.081   .     S
C128   C139    1.391   .     A
C128   H216    1.079   .     S
C129   C249    1.333   .     S
C129   H322    1.087   .     S
C131   C140    1.393   .     A
C131   C158    1.487   .     S
C131   C138    1.426   .     A
C132   C135    1.459   .     S
C132   C490    1.351   .     S
C132   C498    1.488   .     S
C133   C134    1.437   .     S
C133   C846    1.351   1_545 S
C133   O940    1.390   1_545 S
C134   O233    1.270   .     A
C134   O227    1.276   .     A
C135   O228    1.269   .     A
C135   O234    1.273   .     A
C136   C139    1.449   .     S
C136   O224    1.270   .     A
C136   O222    1.276   .     A
C137   C138    1.500   .     S
C137   O225    1.284   .     A
C137   O223    1.292   .     A
C138   C142    1.439   .     A
C140   H218    1.086   .     S
C140   C164    1.392   .     A
C141   C147    1.405   .     A
C141   C143    1.404   .     A
C141   C846    1.488   1_545 S
C142   C153    1.432   .     A
C142   C165    1.497   .     S
C143   H220    1.083   .     S
C143   C144    1.397   .     A
C144   H182    1.080   .     S
C144   C145    1.397   .     A
C145   C146    1.397   .     A
C145   H183    1.082   .     S
C146   H184    1.082   .     S
C146   C147    1.399   .     A
C147   H899    1.083   1_545 S
C148   H186    1.111   .     S
C148   H187    1.117   .     S
C148   O226    1.417   .     S
C148   C506    1.529   .     S
C149   C150    1.524   .     S
C149   H189    1.110   .     S
C149   H188    1.107   .     S
C149   C862    1.529   1_545 S
C150   H190    1.110   .     S
C150   H788    1.111   1_545 S
C151   C157    1.402   .     A
C151   C152    1.405   .     A
C152   H194    1.083   .     S
C152   C273    1.399   .     S
C153   C175    1.429   .     A
C153   C164    1.410   .     A
C154   C155    1.398   .     A
C154   H195    1.080   .     S
C155   H196    1.082   .     S
C156   C157    1.396   .     A
C156   H197    1.080   .     S
C156   C274    1.397   .     S
C157   H198    1.081   .     S
C158   C159    1.405   .     A
C158   C163    1.408   .     A
C159   H199    1.082   .     S
C159   C160    1.397   .     A
C160   C161    1.398   .     A
C160   H557    1.082   .     S
C161   C162    1.397   .     A
C162   C163    1.398   .     A
C163   H204    1.080   .     S
C164   C1251   1.395   .     S
C165   C170    1.404   .     A
C165   C166    1.411   .     A
C166   H205    1.084   .     S
C166   C167    1.397   .     A
C167   H206    1.080   .     S
C167   C168    1.396   .     A
C168   H207    1.082   .     S
C168   C169    1.397   .     A
C169   H208    1.081   .     S
C169   C170    1.398   .     A
C170   H209    1.082   .     S
C171   C179    1.487   .     S
C171   C177    1.406   .     A
C171   C172    1.407   .     A
C172   C173    1.398   .     A
C172   H210    1.083   .     S
C173   H211    1.082   .     S
C173   C174    1.397   .     A
C174   H212    1.081   .     S
C174   C176    1.397   .     A
C175   C1249   1.420   .     S
C176   H213    1.080   .     S
C176   C177    1.397   .     A
C177   H215    1.083   .     S
C178   C179    1.429   .     A
C178   C1246   1.420   1_554 S
C179   C180    1.397   .     A
C180   H181    1.086   .     S
C180   C1235   1.395   1_554 S
H185   C504    1.083   .     S
H191   C269    1.109   .     S
H193   C626    1.111   .     S
H200   C874    1.082   1_545 S
H201   C280    1.082   .     S
H202   C281    1.083   .     S
H214   C249    1.085   .     S
O221   Zn237   1.936   .     S
O221   Zn236   1.944   .     S
O221   Zn235   1.958   .     S
O221   Zn238   1.933   .     S
O222   Zn236   1.937   .     S
O223   Zn238   1.945   .     S
O224   Zn237   1.941   .     S
O225   Zn235   1.933   .     S
O226   C490    1.390   .     S
O227   Zn235   1.934   .     S
O228   Zn238   1.937   .     S
O229   Zn236   1.918   .     S
O230   Zn237   1.927   .     S
O231   Zn238   1.924   .     S
O232   Zn235   1.916   .     S
O233   Zn236   1.941   .     S
O234   Zn237   1.936   .     S
C239   O350    1.271   .     A
C239   C249    1.432   .     S
C239   O348    1.272   .     A
C240   H338    1.075   .     S
C240   C241    1.393   .     A
C240   C294    1.406   .     A
C241   C270    1.481   .     S
C241   C1314   1.406   .     S
C242   O351    1.279   .     A
C242   O349    1.283   .     A
C242   C248    1.451   .     S
C243   C245    1.410   .     A
C243   C244    1.425   .     A
C243   C1312   1.406   1_554 S
C244   C247    1.410   .     A
C244   C297    1.428   .     A
C245   C246    1.385   .     A
C245   H311    1.081   .     S
C246   C258    1.391   .     A
C246   H336    1.081   .     S
C247   C258    1.391   .     A
C247   H335    1.079   .     S
C248   C11     1.333   1_655 S
C248   H84     1.087   1_655 S
C250   C259    1.393   .     A
C250   C277    1.487   .     S
C250   C257    1.426   .     A
C251   C254    1.459   .     S
C251   C609    1.351   .     S
C251   C617    1.488   .     S
C252   C253    1.437   .     S
C252   C965    1.351   1_545 S
C252   O1059   1.390   1_545 S
C253   O352    1.270   .     A
C253   O346    1.276   .     A
C254   O347    1.269   .     A
C254   O353    1.273   .     A
C255   C258    1.449   .     S
C255   O343    1.270   .     A
C255   O341    1.276   .     A
C256   C257    1.500   .     S
C256   O344    1.284   .     A
C256   O342    1.292   .     A
C257   C261    1.439   .     A
C259   H337    1.086   .     S
C259   C283    1.392   .     A
C260   C266    1.405   .     A
C260   C262    1.404   .     A
C260   C965    1.488   1_545 S
C261   C272    1.432   .     A
C261   C284    1.497   .     S
C262   H339    1.083   .     S
C262   C263    1.397   .     A
C263   H301    1.080   .     S
C263   C264    1.397   .     A
C264   C265    1.397   .     A
C264   H302    1.082   .     S
C265   H303    1.082   .     S
C265   C266    1.399   .     A
C266   H1018   1.083   1_545 S
C267   H305    1.111   .     S
C267   H306    1.117   .     S
C267   O345    1.417   .     S
C267   C625    1.529   .     S
C268   C269    1.524   .     S
C268   H308    1.110   .     S
C268   H307    1.107   .     S
C268   C981    1.529   1_545 S
C269   H309    1.110   .     S
C269   H907    1.111   1_545 S
C270   C276    1.402   .     A
C270   C271    1.405   .     A
C271   H313    1.083   .     S
C271   C35     1.399   1_655 S
C272   C294    1.429   .     A
C272   C283    1.410   .     A
C273   C274    1.398   .     A
C273   H314    1.080   .     S
C274   H315    1.082   .     S
C275   C276    1.396   .     A
C275   H316    1.080   .     S
C275   C36     1.397   1_655 S
C276   H317    1.081   .     S
C277   C278    1.405   .     A
C277   C282    1.408   .     A
C278   H318    1.082   .     S
C278   C279    1.397   .     A
C279   C280    1.398   .     A
C279   H676    1.082   .     S
C280   C281    1.397   .     A
C281   C282    1.398   .     A
C282   H323    1.080   .     S
C283   C1370   1.395   .     S
C284   C289    1.404   .     A
C284   C285    1.411   .     A
C285   H324    1.084   .     S
C285   C286    1.397   .     A
C286   H325    1.080   .     S
C286   C287    1.396   .     A
C287   H326    1.082   .     S
C287   C288    1.397   .     A
C288   H327    1.081   .     S
C288   C289    1.398   .     A
C289   H328    1.082   .     S
C290   C298    1.487   .     S
C290   C296    1.406   .     A
C290   C291    1.407   .     A
C291   C292    1.398   .     A
C291   H329    1.083   .     S
C292   H330    1.082   .     S
C292   C293    1.397   .     A
C293   H331    1.081   .     S
C293   C295    1.397   .     A
C294   C1368   1.420   .     S
C295   H332    1.080   .     S
C295   C296    1.397   .     A
C296   H334    1.083   .     S
C297   C298    1.429   .     A
C297   C1365   1.420   1_554 S
C298   C299    1.397   .     A
C299   H300    1.086   .     S
C299   C1354   1.395   1_554 S
H304   C623    1.083   .     S
H310   C31     1.109   1_655 S
H312   C388    1.111   1_655 S
H319   C993    1.082   1_545 S
H320   C42     1.082   1_655 S
H321   C43     1.083   1_655 S
H333   C11     1.085   1_655 S
O340   Zn356   1.936   .     S
O340   Zn355   1.944   .     S
O340   Zn354   1.958   .     S
O340   Zn357   1.933   .     S
O341   Zn355   1.937   .     S
O342   Zn357   1.945   .     S
O343   Zn356   1.941   .     S
O344   Zn354   1.933   .     S
O345   C609    1.390   .     S
O346   Zn354   1.934   .     S
O347   Zn357   1.937   .     S
O348   Zn355   1.918   .     S
O349   Zn356   1.927   .     S
O350   Zn357   1.924   .     S
O351   Zn354   1.916   .     S
O352   Zn355   1.941   .     S
O353   Zn356   1.936   .     S
C358   O469    1.271   .     A
C358   C368    1.432   .     S
C358   O467    1.272   .     A
C359   H457    1.075   .     S
C359   C360    1.393   .     A
C359   C413    1.406   .     A
C360   C389    1.481   .     S
C360   C1433   1.406   .     S
C361   O470    1.279   .     A
C361   O468    1.283   .     A
C361   C367    1.451   .     S
C362   C364    1.410   .     A
C362   C363    1.425   .     A
C362   C1431   1.406   1_554 S
C363   C366    1.410   .     A
C363   C416    1.428   .     A
C364   C365    1.385   .     A
C364   H430    1.081   .     S
C365   C377    1.391   .     A
C365   H455    1.081   .     S
C366   C377    1.391   .     A
C366   H454    1.079   .     S
C367   C487    1.333   .     S
C367   H560    1.087   .     S
C368   C605    1.333   1_455 S
C368   H690    1.085   1_455 S
C369   C378    1.393   .     A
C369   C396    1.487   .     S
C369   C376    1.426   .     A
C370   C373    1.459   .     S
C370   C728    1.351   .     S
C370   C736    1.488   .     S
C371   C372    1.437   .     S
C372   O471    1.270   .     A
C372   O465    1.276   .     A
C373   O466    1.269   .     A
C373   O472    1.273   .     A
C374   C377    1.449   .     S
C374   O462    1.270   .     A
C374   O460    1.276   .     A
C375   C376    1.500   .     S
C375   O463    1.284   .     A
C375   O461    1.292   .     A
C376   C380    1.439   .     A
C378   H456    1.086   .     S
C378   C402    1.392   .     A
C379   C385    1.405   .     A
C379   C381    1.404   .     A
C380   C391    1.432   .     A
C380   C403    1.497   .     S
C381   H458    1.083   .     S
C381   C382    1.397   .     A
C382   H420    1.080   .     S
C382   C383    1.397   .     A
C383   C384    1.397   .     A
C383   H421    1.082   .     S
C384   H422    1.082   .     S
C384   C385    1.399   .     A
C386   H424    1.111   .     S
C386   H425    1.117   .     S
C386   O464    1.417   .     S
C386   C744    1.529   .     S
C387   C388    1.524   .     S
C387   H427    1.110   .     S
C387   H426    1.107   .     S
C388   H428    1.110   .     S
C388   H667    1.109   1_455 S
C388   H312    1.111   1_455 S
C389   C395    1.402   .     A
C389   C390    1.405   .     A
C390   H432    1.083   .     S
C390   C511    1.399   .     S
C391   C413    1.429   .     A
C391   C402    1.410   .     A
C392   C393    1.398   .     A
C392   H433    1.080   .     S
C392   C628    1.399   1_455 S
C393   H434    1.082   .     S
C393   C632    1.397   1_455 S
C394   C395    1.396   .     A
C394   H435    1.080   .     S
C394   C512    1.397   .     S
C395   H436    1.081   .     S
C396   C397    1.405   .     A
C396   C401    1.408   .     A
C397   H437    1.082   .     S
C397   C398    1.397   .     A
C398   C399    1.398   .     A
C398   H795    1.082   .     S
C399   C400    1.397   .     A
C399   H677    1.082   1_455 S
C400   C401    1.398   .     A
C400   H678    1.083   1_455 S
C401   H442    1.080   .     S
C402   C1489   1.395   .     S
C403   C408    1.404   .     A
C403   C404    1.411   .     A
C404   H443    1.084   .     S
C404   C405    1.397   .     A
C405   H444    1.080   .     S
C405   C406    1.396   .     A
C406   H445    1.082   .     S
C406   C407    1.397   .     A
C407   H446    1.081   .     S
C407   C408    1.398   .     A
C408   H447    1.082   .     S
C409   C417    1.487   .     S
C409   C415    1.406   .     A
C409   C410    1.407   .     A
C410   C411    1.398   .     A
C410   H448    1.083   .     S
C411   H449    1.082   .     S
C411   C412    1.397   .     A
C412   H450    1.081   .     S
C412   C414    1.397   .     A
C413   C1487   1.420   .     S
C414   H451    1.080   .     S
C414   C415    1.397   .     A
C415   H453    1.083   .     S
C416   C417    1.429   .     A
C416   C1484   1.420   1_554 S
C417   C418    1.397   .     A
C418   H419    1.086   .     S
C418   C1473   1.395   1_554 S
H423   C742    1.083   .     S
H429   C507    1.109   .     S
H431   C864    1.111   .     S
H439   C518    1.082   .     S
H440   C519    1.083   .     S
H441   C605    1.087   1_455 S
H452   C487    1.085   .     S
O459   Zn475   1.936   .     S
O459   Zn474   1.944   .     S
O459   Zn473   1.958   .     S
O459   Zn476   1.933   .     S
O460   Zn474   1.937   .     S
O461   Zn476   1.945   .     S
O462   Zn475   1.941   .     S
O463   Zn473   1.933   .     S
O464   C728    1.390   .     S
O465   Zn473   1.934   .     S
O466   Zn476   1.937   .     S
O467   Zn474   1.918   .     S
O468   Zn475   1.927   .     S
O469   Zn476   1.924   .     S
O470   Zn473   1.916   .     S
O471   Zn474   1.941   .     S
O472   Zn475   1.936   .     S
C477   O588    1.271   .     A
C477   C487    1.432   .     S
C477   O586    1.272   .     A
C478   H576    1.075   .     S
C478   C479    1.393   .     A
C478   C532    1.406   .     A
C479   C508    1.481   .     S
C479   C1552   1.406   .     S
C480   O589    1.279   .     A
C480   O587    1.283   .     A
C480   C486    1.451   .     S
C481   C483    1.410   .     A
C481   C482    1.425   .     A
C481   C1550   1.406   1_554 S
C482   C485    1.410   .     A
C482   C535    1.428   .     A
C483   C484    1.385   .     A
C483   H549    1.081   .     S
C484   C496    1.391   .     A
C484   H574    1.081   .     S
C485   C496    1.391   .     A
C485   H573    1.079   .     S
C486   C606    1.333   .     S
C486   H679    1.087   .     S
C488   C497    1.393   .     A
C488   C515    1.487   .     S
C488   C495    1.426   .     A
C489   C492    1.459   .     S
C489   C847    1.351   .     S
C489   C855    1.488   .     S
C490   C491    1.437   .     S
C491   O590    1.270   .     A
C491   O584    1.276   .     A
C492   O585    1.269   .     A
C492   O591    1.273   .     A
C493   C496    1.449   .     S
C493   O581    1.270   .     A
C493   O579    1.276   .     A
C494   C495    1.500   .     S
C494   O582    1.284   .     A
C494   O580    1.292   .     A
C495   C499    1.439   .     A
C497   H575    1.086   .     S
C497   C521    1.392   .     A
C498   C504    1.405   .     A
C498   C500    1.404   .     A
C499   C510    1.432   .     A
C499   C522    1.497   .     S
C500   H577    1.083   .     S
C500   C501    1.397   .     A
C501   H539    1.080   .     S
C501   C502    1.397   .     A
C502   C503    1.397   .     A
C502   H540    1.082   .     S
C503   H541    1.082   .     S
C503   C504    1.399   .     A
C505   H543    1.111   .     S
C505   H544    1.117   .     S
C505   O583    1.417   .     S
C505   C863    1.529   .     S
C506   C507    1.524   .     S
C506   H546    1.110   .     S
C506   H545    1.107   .     S
C507   H547    1.110   .     S
C508   C514    1.402   .     A
C508   C509    1.405   .     A
C509   H551    1.083   .     S
C509   C630    1.399   .     S
C510   C532    1.429   .     A
C510   C521    1.410   .     A
C511   C512    1.398   .     A
C511   H552    1.080   .     S
C512   H553    1.082   .     S
C513   C514    1.396   .     A
C513   H554    1.080   .     S
C513   C631    1.397   .     S
C514   H555    1.081   .     S
C515   C516    1.405   .     A
C515   C520    1.408   .     A
C516   H556    1.082   .     S
C516   C517    1.397   .     A
C517   C518    1.398   .     A
C517   H914    1.082   .     S
C518   C519    1.397   .     A
C519   C520    1.398   .     A
C520   H561    1.080   .     S
C521   C1608   1.395   .     S
C522   C527    1.404   .     A
C522   C523    1.411   .     A
C523   H562    1.084   .     S
C523   C524    1.397   .     A
C524   H563    1.080   .     S
C524   C525    1.396   .     A
C525   H564    1.082   .     S
C525   C526    1.397   .     A
C526   H565    1.081   .     S
C526   C527    1.398   .     A
C527   H566    1.082   .     S
C528   C536    1.487   .     S
C528   C534    1.406   .     A
C528   C529    1.407   .     A
C529   C530    1.398   .     A
C529   H567    1.083   .     S
C530   H568    1.082   .     S
C530   C531    1.397   .     A
C531   H569    1.081   .     S
C531   C533    1.397   .     A
C532   C1606   1.420   .     S
C533   H570    1.080   .     S
C533   C534    1.397   .     A
C534   H572    1.083   .     S
C535   C536    1.429   .     A
C535   C1603   1.420   1_554 S
C536   C537    1.397   .     A
C537   H538    1.086   .     S
C537   C1592   1.395   1_554 S
H542   C861    1.083   .     S
H548   C626    1.109   .     S
H550   C983    1.111   .     S
H558   C637    1.082   .     S
H559   C638    1.083   .     S
H571   C606    1.085   .     S
O578   Zn594   1.936   .     S
O578   Zn593   1.944   .     S
O578   Zn592   1.958   .     S
O578   Zn595   1.933   .     S
O579   Zn593   1.937   .     S
O580   Zn595   1.945   .     S
O581   Zn594   1.941   .     S
O582   Zn592   1.933   .     S
O583   C847    1.390   .     S
O584   Zn592   1.934   .     S
O585   Zn595   1.937   .     S
O586   Zn593   1.918   .     S
O587   Zn594   1.927   .     S
O588   Zn595   1.924   .     S
O589   Zn592   1.916   .     S
O590   Zn593   1.941   .     S
O591   Zn594   1.936   .     S
C596   O707    1.271   .     A
C596   C606    1.432   .     S
C596   O705    1.272   .     A
C597   H695    1.075   .     S
C597   C598    1.393   .     A
C597   C651    1.406   .     A
C598   C627    1.481   .     S
C598   C1671   1.406   .     S
C599   O708    1.279   .     A
C599   O706    1.283   .     A
C599   C605    1.451   .     S
C600   C602    1.410   .     A
C600   C601    1.425   .     A
C600   C1669   1.406   1_554 S
C601   C604    1.410   .     A
C601   C654    1.428   .     A
C602   C603    1.385   .     A
C602   H668    1.081   .     S
C603   C615    1.391   .     A
C603   H693    1.081   .     S
C604   C615    1.391   .     A
C604   H692    1.079   .     S
C605   C368    1.333   1_655 S
C605   H441    1.087   1_655 S
C607   C616    1.393   .     A
C607   C634    1.487   .     S
C607   C614    1.426   .     A
C608   C611    1.459   .     S
C608   C966    1.351   .     S
C608   C974    1.488   .     S
C609   C610    1.437   .     S
C610   O709    1.270   .     A
C610   O703    1.276   .     A
C611   O704    1.269   .     A
C611   O710    1.273   .     A
C612   C615    1.449   .     S
C612   O700    1.270   .     A
C612   O698    1.276   .     A
C613   C614    1.500   .     S
C613   O701    1.284   .     A
C613   O699    1.292   .     A
C614   C618    1.439   .     A
C616   H694    1.086   .     S
C616   C640    1.392   .     A
C617   C623    1.405   .     A
C617   C619    1.404   .     A
C618   C629    1.432   .     A
C618   C641    1.497   .     S
C619   H696    1.083   .     S
C619   C620    1.397   .     A
C620   H658    1.080   .     S
C620   C621    1.397   .     A
C621   C622    1.397   .     A
C621   H659    1.082   .     S
C622   H660    1.082   .     S
C622   C623    1.399   .     A
C624   H662    1.111   .     S
C624   H663    1.117   .     S
C624   O702    1.417   .     S
C624   C982    1.529   .     S
C625   C626    1.524   .     S
C625   H665    1.110   .     S
C625   H664    1.107   .     S
C626   H666    1.110   .     S
C627   C633    1.402   .     A
C627   C628    1.405   .     A
C628   H670    1.083   .     S
C628   C392    1.399   1_655 S
C629   C651    1.429   .     A
C629   C640    1.410   .     A
C630   C631    1.398   .     A
C630   H671    1.080   .     S
C631   H672    1.082   .     S
C632   C633    1.396   .     A
C632   H673    1.080   .     S
C632   C393    1.397   1_655 S
C633   H674    1.081   .     S
C634   C635    1.405   .     A
C634   C639    1.408   .     A
C635   H675    1.082   .     S
C635   C636    1.397   .     A
C636   C637    1.398   .     A
C636   H1033   1.082   .     S
C637   C638    1.397   .     A
C638   C639    1.398   .     A
C639   H680    1.080   .     S
C640   C1727   1.395   .     S
C641   C646    1.404   .     A
C641   C642    1.411   .     A
C642   H681    1.084   .     S
C642   C643    1.397   .     A
C643   H682    1.080   .     S
C643   C644    1.396   .     A
C644   H683    1.082   .     S
C644   C645    1.397   .     A
C645   H684    1.081   .     S
C645   C646    1.398   .     A
C646   H685    1.082   .     S
C647   C655    1.487   .     S
C647   C653    1.406   .     A
C647   C648    1.407   .     A
C648   C649    1.398   .     A
C648   H686    1.083   .     S
C649   H687    1.082   .     S
C649   C650    1.397   .     A
C650   H688    1.081   .     S
C650   C652    1.397   .     A
C651   C1725   1.420   .     S
C652   H689    1.080   .     S
C652   C653    1.397   .     A
C653   H691    1.083   .     S
C654   C655    1.429   .     A
C654   C1722   1.420   1_554 S
C655   C656    1.397   .     A
C656   H657    1.086   .     S
C656   C1711   1.395   1_554 S
H661   C980    1.083   .     S
H667   C388    1.109   1_655 S
H669   C745    1.111   1_655 S
H677   C399    1.082   1_655 S
H678   C400    1.083   1_655 S
H690   C368    1.085   1_655 S
O697   Zn713   1.936   .     S
O697   Zn712   1.944   .     S
O697   Zn711   1.958   .     S
O697   Zn714   1.933   .     S
O698   Zn712   1.937   .     S
O699   Zn714   1.945   .     S
O700   Zn713   1.941   .     S
O701   Zn711   1.933   .     S
O702   C966    1.390   .     S
O703   Zn711   1.934   .     S
O704   Zn714   1.937   .     S
O705   Zn712   1.918   .     S
O706   Zn713   1.927   .     S
O707   Zn714   1.924   .     S
O708   Zn711   1.916   .     S
O709   Zn712   1.941   .     S
O710   Zn713   1.936   .     S
C715   O826    1.271   .     A
C715   C725    1.432   .     S
C715   O824    1.272   .     A
C716   H814    1.075   .     S
C716   C717    1.393   .     A
C716   C770    1.406   .     A
C717   C746    1.481   .     S
C717   C1790   1.406   .     S
C718   O827    1.279   .     A
C718   O825    1.283   .     A
C718   C724    1.451   .     S
C719   C721    1.410   .     A
C719   C720    1.425   .     A
C719   C1788   1.406   1_554 S
C720   C723    1.410   .     A
C720   C773    1.428   .     A
C721   C722    1.385   .     A
C721   H787    1.081   .     S
C722   C734    1.391   .     A
C722   H812    1.081   .     S
C723   C734    1.391   .     A
C723   H811    1.079   .     S
C724   C844    1.333   .     S
C724   H917    1.087   .     S
C725   C962    1.333   1_455 S
C725   H1047   1.085   1_455 S
C726   C735    1.393   .     A
C726   C753    1.487   .     S
C726   C733    1.426   .     A
C727   C730    1.459   .     S
C727   C14     1.351   1_565 S
C727   C22     1.488   1_565 S
C728   C729    1.437   .     S
C729   O828    1.270   .     A
C729   O822    1.276   .     A
C730   O823    1.269   .     A
C730   O829    1.273   .     A
C731   C734    1.449   .     S
C731   O819    1.270   .     A
C731   O817    1.276   .     A
C732   C733    1.500   .     S
C732   O820    1.284   .     A
C732   O818    1.292   .     A
C733   C737    1.439   .     A
C735   H813    1.086   .     S
C735   C759    1.392   .     A
C736   C742    1.405   .     A
C736   C738    1.404   .     A
C737   C748    1.432   .     A
C737   C760    1.497   .     S
C738   H815    1.083   .     S
C738   C739    1.397   .     A
C739   H777    1.080   .     S
C739   C740    1.397   .     A
C740   C741    1.397   .     A
C740   H778    1.082   .     S
C741   H779    1.082   .     S
C741   C742    1.399   .     A
C743   H781    1.111   .     S
C743   H782    1.117   .     S
C743   O821    1.417   .     S
C743   C30     1.529   1_565 S
C744   C745    1.524   .     S
C744   H784    1.110   .     S
C744   H783    1.107   .     S
C745   H785    1.110   .     S
C745   H1024   1.109   1_455 S
C745   H669    1.111   1_455 S
C746   C752    1.402   .     A
C746   C747    1.405   .     A
C747   H789    1.083   .     S
C747   C868    1.399   .     S
C748   C770    1.429   .     A
C748   C759    1.410   .     A
C749   C750    1.398   .     A
C749   H790    1.080   .     S
C749   C985    1.399   1_455 S
C750   H791    1.082   .     S
C750   C989    1.397   1_455 S
C751   C752    1.396   .     A
C751   H792    1.080   .     S
C751   C869    1.397   .     S
C752   H793    1.081   .     S
C753   C754    1.405   .     A
C753   C758    1.408   .     A
C754   H794    1.082   .     S
C754   C755    1.397   .     A
C755   C756    1.398   .     A
C755   H81     1.082   1_565 S
C756   C757    1.397   .     A
C756   H1034   1.082   1_455 S
C757   C758    1.398   .     A
C757   H1035   1.083   1_455 S
C758   H799    1.080   .     S
C759   C1846   1.395   .     S
C760   C765    1.404   .     A
C760   C761    1.411   .     A
C761   H800    1.084   .     S
C761   C762    1.397   .     A
C762   H801    1.080   .     S
C762   C763    1.396   .     A
C763   H802    1.082   .     S
C763   C764    1.397   .     A
C764   H803    1.081   .     S
C764   C765    1.398   .     A
C765   H804    1.082   .     S
C766   C774    1.487   .     S
C766   C772    1.406   .     A
C766   C767    1.407   .     A
C767   C768    1.398   .     A
C767   H805    1.083   .     S
C768   H806    1.082   .     S
C768   C769    1.397   .     A
C769   H807    1.081   .     S
C769   C771    1.397   .     A
C770   C1844   1.420   .     S
C771   H808    1.080   .     S
C771   C772    1.397   .     A
C772   H810    1.083   .     S
C773   C774    1.429   .     A
C773   C1841   1.420   1_554 S
C774   C775    1.397   .     A
C775   H776    1.086   .     S
C775   C1830   1.395   1_554 S
H780   C28     1.083   1_565 S
H786   C864    1.109   .     S
H788   C150    1.111   1_565 S
H796   C875    1.082   .     S
H797   C876    1.083   .     S
H798   C962    1.087   1_455 S
H809   C844    1.085   .     S
O816   Zn832   1.936   .     S
O816   Zn831   1.944   .     S
O816   Zn830   1.958   .     S
O816   Zn833   1.933   .     S
O817   Zn831   1.937   .     S
O818   Zn833   1.945   .     S
O819   Zn832   1.941   .     S
O820   Zn830   1.933   .     S
O821   C14     1.390   1_565 S
O822   Zn830   1.934   .     S
O823   Zn833   1.937   .     S
O824   Zn831   1.918   .     S
O825   Zn832   1.927   .     S
O826   Zn833   1.924   .     S
O827   Zn830   1.916   .     S
O828   Zn831   1.941   .     S
O829   Zn832   1.936   .     S
C834   O945    1.271   .     A
C834   C844    1.432   .     S
C834   O943    1.272   .     A
C835   H933    1.075   .     S
C835   C836    1.393   .     A
C835   C889    1.406   .     A
C836   C865    1.481   .     S
C836   C1909   1.406   .     S
C837   O946    1.279   .     A
C837   O944    1.283   .     A
C837   C843    1.451   .     S
C838   C840    1.410   .     A
C838   C839    1.425   .     A
C838   C1907   1.406   1_554 S
C839   C842    1.410   .     A
C839   C892    1.428   .     A
C840   C841    1.385   .     A
C840   H906    1.081   .     S
C841   C853    1.391   .     A
C841   H931    1.081   .     S
C842   C853    1.391   .     A
C842   H930    1.079   .     S
C843   C963    1.333   .     S
C843   H1036   1.087   .     S
C845   C854    1.393   .     A
C845   C872    1.487   .     S
C845   C852    1.426   .     A
C846   C849    1.459   .     S
C846   C133    1.351   1_565 S
C846   C141    1.488   1_565 S
C847   C848    1.437   .     S
C848   O947    1.270   .     A
C848   O941    1.276   .     A
C849   O942    1.269   .     A
C849   O948    1.273   .     A
C850   C853    1.449   .     S
C850   O938    1.270   .     A
C850   O936    1.276   .     A
C851   C852    1.500   .     S
C851   O939    1.284   .     A
C851   O937    1.292   .     A
C852   C856    1.439   .     A
C854   H932    1.086   .     S
C854   C878    1.392   .     A
C855   C861    1.405   .     A
C855   C857    1.404   .     A
C856   C867    1.432   .     A
C856   C879    1.497   .     S
C857   H934    1.083   .     S
C857   C858    1.397   .     A
C858   H896    1.080   .     S
C858   C859    1.397   .     A
C859   C860    1.397   .     A
C859   H897    1.082   .     S
C860   H898    1.082   .     S
C860   C861    1.399   .     A
C862   H900    1.111   .     S
C862   H901    1.117   .     S
C862   O940    1.417   .     S
C862   C149    1.529   1_565 S
C863   C864    1.524   .     S
C863   H903    1.110   .     S
C863   H902    1.107   .     S
C864   H904    1.110   .     S
C865   C871    1.402   .     A
C865   C866    1.405   .     A
C866   H908    1.083   .     S
C866   C987    1.399   .     S
C867   C889    1.429   .     A
C867   C878    1.410   .     A
C868   C869    1.398   .     A
C868   H909    1.080   .     S
C869   H910    1.082   .     S
C870   C871    1.396   .     A
C870   H911    1.080   .     S
C870   C988    1.397   .     S
C871   H912    1.081   .     S
C872   C873    1.405   .     A
C872   C877    1.408   .     A
C873   H913    1.082   .     S
C873   C874    1.397   .     A
C874   C875    1.398   .     A
C874   H200    1.082   1_565 S
C875   C876    1.397   .     A
C876   C877    1.398   .     A
C877   H918    1.080   .     S
C878   C1965   1.395   .     S
C879   C884    1.404   .     A
C879   C880    1.411   .     A
C880   H919    1.084   .     S
C880   C881    1.397   .     A
C881   H920    1.080   .     S
C881   C882    1.396   .     A
C882   H921    1.082   .     S
C882   C883    1.397   .     A
C883   H922    1.081   .     S
C883   C884    1.398   .     A
C884   H923    1.082   .     S
C885   C893    1.487   .     S
C885   C891    1.406   .     A
C885   C886    1.407   .     A
C886   C887    1.398   .     A
C886   H924    1.083   .     S
C887   H925    1.082   .     S
C887   C888    1.397   .     A
C888   H926    1.081   .     S
C888   C890    1.397   .     A
C889   C1963   1.420   .     S
C890   H927    1.080   .     S
C890   C891    1.397   .     A
C891   H929    1.083   .     S
C892   C893    1.429   .     A
C892   C1960   1.420   1_554 S
C893   C894    1.397   .     A
C894   H895    1.086   .     S
C894   C1949   1.395   1_554 S
H899   C147    1.083   1_565 S
H905   C983    1.109   .     S
H907   C269    1.111   1_565 S
H915   C994    1.082   .     S
H916   C995    1.083   .     S
H928   C963    1.085   .     S
O935   Zn951   1.936   .     S
O935   Zn950   1.944   .     S
O935   Zn949   1.958   .     S
O935   Zn952   1.933   .     S
O936   Zn950   1.937   .     S
O937   Zn952   1.945   .     S
O938   Zn951   1.941   .     S
O939   Zn949   1.933   .     S
O940   C133    1.390   1_565 S
O941   Zn949   1.934   .     S
O942   Zn952   1.937   .     S
O943   Zn950   1.918   .     S
O944   Zn951   1.927   .     S
O945   Zn952   1.924   .     S
O946   Zn949   1.916   .     S
O947   Zn950   1.941   .     S
O948   Zn951   1.936   .     S
C953   O1064   1.271   .     A
C953   C963    1.432   .     S
C953   O1062   1.272   .     A
C954   H1052   1.075   .     S
C954   C955    1.393   .     A
C954   C1008   1.406   .     A
C955   C984    1.481   .     S
C955   C2028   1.406   .     S
C956   O1065   1.279   .     A
C956   O1063   1.283   .     A
C956   C962    1.451   .     S
C957   C959    1.410   .     A
C957   C958    1.425   .     A
C957   C2026   1.406   1_554 S
C958   C961    1.410   .     A
C958   C1011   1.428   .     A
C959   C960    1.385   .     A
C959   H1025   1.081   .     S
C960   C972    1.391   .     A
C960   H1050   1.081   .     S
C961   C972    1.391   .     A
C961   H1049   1.079   .     S
C962   C725    1.333   1_655 S
C962   H798    1.087   1_655 S
C964   C973    1.393   .     A
C964   C991    1.487   .     S
C964   C971    1.426   .     A
C965   C968    1.459   .     S
C965   C252    1.351   1_565 S
C965   C260    1.488   1_565 S
C966   C967    1.437   .     S
C967   O1066   1.270   .     A
C967   O1060   1.276   .     A
C968   O1061   1.269   .     A
C968   O1067   1.273   .     A
C969   C972    1.449   .     S
C969   O1057   1.270   .     A
C969   O1055   1.276   .     A
C970   C971    1.500   .     S
C970   O1058   1.284   .     A
C970   O1056   1.292   .     A
C971   C975    1.439   .     A
C973   H1051   1.086   .     S
C973   C997    1.392   .     A
C974   C980    1.405   .     A
C974   C976    1.404   .     A
C975   C986    1.432   .     A
C975   C998    1.497   .     S
C976   H1053   1.083   .     S
C976   C977    1.397   .     A
C977   H1015   1.080   .     S
C977   C978    1.397   .     A
C978   C979    1.397   .     A
C978   H1016   1.082   .     S
C979   H1017   1.082   .     S
C979   C980    1.399   .     A
C981   H1019   1.111   .     S
C981   H1020   1.117   .     S
C981   O1059   1.417   .     S
C981   C268    1.529   1_565 S
C982   C983    1.524   .     S
C982   H1022   1.110   .     S
C982   H1021   1.107   .     S
C983   H1023   1.110   .     S
C984   C990    1.402   .     A
C984   C985    1.405   .     A
C985   H1027   1.083   .     S
C985   C749    1.399   1_655 S
C986   C1008   1.429   .     A
C986   C997    1.410   .     A
C987   C988    1.398   .     A
C987   H1028   1.080   .     S
C988   H1029   1.082   .     S
C989   C990    1.396   .     A
C989   H1030   1.080   .     S
C989   C750    1.397   1_655 S
C990   H1031   1.081   .     S
C991   C992    1.405   .     A
C991   C996    1.408   .     A
C992   H1032   1.082   .     S
C992   C993    1.397   .     A
C993   C994    1.398   .     A
C993   H319    1.082   1_565 S
C994   C995    1.397   .     A
C995   C996    1.398   .     A
C996   H1037   1.080   .     S
C997   C2084   1.395   .     S
C998   C1003   1.404   .     A
C998   C999    1.411   .     A
C999   H1038   1.084   .     S
C999   C1000   1.397   .     A
C1000  H1039   1.080   .     S
C1000  C1001   1.396   .     A
C1001  H1040   1.082   .     S
C1001  C1002   1.397   .     A
C1002  H1041   1.081   .     S
C1002  C1003   1.398   .     A
C1003  H1042   1.082   .     S
C1004  C1012   1.487   .     S
C1004  C1010   1.406   .     A
C1004  C1005   1.407   .     A
C1005  C1006   1.398   .     A
C1005  H1043   1.083   .     S
C1006  H1044   1.082   .     S
C1006  C1007   1.397   .     A
C1007  H1045   1.081   .     S
C1007  C1009   1.397   .     A
C1008  C2082   1.420   .     S
C1009  H1046   1.080   .     S
C1009  C1010   1.397   .     A
C1010  H1048   1.083   .     S
C1011  C1012   1.429   .     A
C1011  C2079   1.420   1_554 S
C1012  C1013   1.397   .     A
C1013  H1014   1.086   .     S
C1013  C2068   1.395   1_554 S
H1018  C266    1.083   1_565 S
H1024  C745    1.109   1_655 S
H1026  C31     1.111   1_665 S
H1034  C756    1.082   1_655 S
H1035  C757    1.083   1_655 S
H1047  C725    1.085   1_655 S
O1054  Zn1070  1.936   .     S
O1054  Zn1069  1.944   .     S
O1054  Zn1068  1.958   .     S
O1054  Zn1071  1.933   .     S
O1055  Zn1069  1.937   .     S
O1056  Zn1071  1.945   .     S
O1057  Zn1070  1.941   .     S
O1058  Zn1068  1.933   .     S
O1059  C252    1.390   1_565 S
O1060  Zn1068  1.934   .     S
O1061  Zn1071  1.937   .     S
O1062  Zn1069  1.918   .     S
O1063  Zn1070  1.927   .     S
O1064  Zn1071  1.924   .     S
O1065  Zn1068  1.916   .     S
O1066  Zn1069  1.941   .     S
O1067  Zn1070  1.936   .     S
C1072  O1183   1.271   .     A
C1072  C1082   1.432   .     S
C1072  O1181   1.272   .     A
C1073  H1171   1.075   .     S
C1073  C1074   1.393   .     A
C1073  C1127   1.406   .     A
C1074  C1103   1.481   .     S
C1074  C5      1.406   1_556 S
C1075  O1184   1.279   .     A
C1075  O1182   1.283   .     A
C1075  C1081   1.451   .     S
C1076  C1078   1.410   .     A
C1076  C1077   1.425   .     A
C1077  C1080   1.410   .     A
C1077  C1130   1.428   .     A
C1078  C1079   1.385   .     A
C1078  H1144   1.081   .     S
C1079  C1091   1.391   .     A
C1079  H1169   1.081   .     S
C1080  C1091   1.391   .     A
C1080  H1168   1.079   .     S
C1081  C1201   1.333   .     S
C1081  H1274   1.087   .     S
C1082  C1319   1.333   1_455 S
C1082  H1404   1.085   1_455 S
C1083  C1092   1.393   .     A
C1083  C1110   1.487   .     S
C1083  C1090   1.426   .     A
C1084  C1087   1.459   .     S
C1084  C1442   1.351   .     S
C1084  C1450   1.488   .     S
C1085  C1086   1.437   .     S
C1085  C1798   1.351   1_545 S
C1085  O1892   1.390   1_545 S
C1086  O1185   1.270   .     A
C1086  O1179   1.276   .     A
C1087  O1180   1.269   .     A
C1087  O1186   1.273   .     A
C1088  C1091   1.449   .     S
C1088  O1176   1.270   .     A
C1088  O1174   1.276   .     A
C1089  C1090   1.500   .     S
C1089  O1177   1.284   .     A
C1089  O1175   1.292   .     A
C1090  C1094   1.439   .     A
C1092  H1170   1.086   .     S
C1092  C1116   1.392   .     A
C1093  C1099   1.405   .     A
C1093  C1095   1.404   .     A
C1093  C1798   1.488   1_545 S
C1094  C1105   1.432   .     A
C1094  C1117   1.497   .     S
C1095  H1172   1.083   .     S
C1095  C1096   1.397   .     A
C1096  H1134   1.080   .     S
C1096  C1097   1.397   .     A
C1097  C1098   1.397   .     A
C1097  H1135   1.082   .     S
C1098  H1136   1.082   .     S
C1098  C1099   1.399   .     A
C1099  H1851   1.083   1_545 S
C1100  H1138   1.111   .     S
C1100  H1139   1.117   .     S
C1100  O1178   1.417   .     S
C1100  C1458   1.529   .     S
C1101  C1102   1.524   .     S
C1101  H1141   1.110   .     S
C1101  H1140   1.107   .     S
C1101  C1814   1.529   1_545 S
C1102  H1142   1.110   .     S
C1102  H1381   1.109   1_455 S
C1102  H2097   1.111   1_445 S
C1103  C1109   1.402   .     A
C1103  C1104   1.405   .     A
C1104  H1146   1.083   .     S
C1104  C1225   1.399   .     S
C1105  C1127   1.429   .     A
C1105  C1116   1.410   .     A
C1106  C1107   1.398   .     A
C1106  H1147   1.080   .     S
C1106  C1342   1.399   1_455 S
C1107  H1148   1.082   .     S
C1107  C1346   1.397   1_455 S
C1108  C1109   1.396   .     A
C1108  H1149   1.080   .     S
C1108  C1226   1.397   .     S
C1109  H1150   1.081   .     S
C1110  C1111   1.405   .     A
C1110  C1115   1.408   .     A
C1111  H1151   1.082   .     S
C1111  C1112   1.397   .     A
C1112  C1113   1.398   .     A
C1112  H1509   1.082   .     S
C1113  C1114   1.397   .     A
C1113  H1391   1.082   1_455 S
C1114  C1115   1.398   .     A
C1114  H1392   1.083   1_455 S
C1115  H1156   1.080   .     S
C1116  C61     1.395   1_556 S
C1117  C1122   1.404   .     A
C1117  C1118   1.411   .     A
C1118  H1157   1.084   .     S
C1118  C1119   1.397   .     A
C1119  H1158   1.080   .     S
C1119  C1120   1.396   .     A
C1120  H1159   1.082   .     S
C1120  C1121   1.397   .     A
C1121  H1160   1.081   .     S
C1121  C1122   1.398   .     A
C1122  H1161   1.082   .     S
C1123  C1131   1.487   .     S
C1123  C1129   1.406   .     A
C1123  C1124   1.407   .     A
C1124  C1125   1.398   .     A
C1124  H1162   1.083   .     S
C1125  H1163   1.082   .     S
C1125  C1126   1.397   .     A
C1126  H1164   1.081   .     S
C1126  C1128   1.397   .     A
C1127  C59     1.420   1_556 S
C1128  H1165   1.080   .     S
C1128  C1129   1.397   .     A
C1129  H1167   1.083   .     S
C1130  C1131   1.429   .     A
C1131  C1132   1.397   .     A
C1132  H1133   1.086   .     S
H1137  C1456   1.083   .     S
H1143  C1221   1.109   .     S
H1145  C1578   1.111   .     S
H1152  C1826   1.082   1_545 S
H1153  C1232   1.082   .     S
H1154  C1233   1.083   .     S
H1155  C1319   1.087   1_455 S
H1166  C1201   1.085   .     S
O1173  Zn1189  1.936   .     S
O1173  Zn1188  1.944   .     S
O1173  Zn1187  1.958   .     S
O1173  Zn1190  1.933   .     S
O1174  Zn1188  1.937   .     S
O1175  Zn1190  1.945   .     S
O1176  Zn1189  1.941   .     S
O1177  Zn1187  1.933   .     S
O1178  C1442   1.390   .     S
O1179  Zn1187  1.934   .     S
O1180  Zn1190  1.937   .     S
O1181  Zn1188  1.918   .     S
O1182  Zn1189  1.927   .     S
O1183  Zn1190  1.924   .     S
O1184  Zn1187  1.916   .     S
O1185  Zn1188  1.941   .     S
O1186  Zn1189  1.936   .     S
C1191  O1302   1.271   .     A
C1191  C1201   1.432   .     S
C1191  O1300   1.272   .     A
C1192  H1290   1.075   .     S
C1192  C1193   1.393   .     A
C1192  C1246   1.406   .     A
C1193  C1222   1.481   .     S
C1193  C124    1.406   1_556 S
C1194  O1303   1.279   .     A
C1194  O1301   1.283   .     A
C1194  C1200   1.451   .     S
C1195  C1197   1.410   .     A
C1195  C1196   1.425   .     A
C1196  C1199   1.410   .     A
C1196  C1249   1.428   .     A
C1197  C1198   1.385   .     A
C1197  H1263   1.081   .     S
C1198  C1210   1.391   .     A
C1198  H1288   1.081   .     S
C1199  C1210   1.391   .     A
C1199  H1287   1.079   .     S
C1200  C1320   1.333   .     S
C1200  H1393   1.087   .     S
C1202  C1211   1.393   .     A
C1202  C1229   1.487   .     S
C1202  C1209   1.426   .     A
C1203  C1206   1.459   .     S
C1203  C1561   1.351   .     S
C1203  C1569   1.488   .     S
C1204  C1205   1.437   .     S
C1204  C1917   1.351   1_545 S
C1204  O2011   1.390   1_545 S
C1205  O1304   1.270   .     A
C1205  O1298   1.276   .     A
C1206  O1299   1.269   .     A
C1206  O1305   1.273   .     A
C1207  C1210   1.449   .     S
C1207  O1295   1.270   .     A
C1207  O1293   1.276   .     A
C1208  C1209   1.500   .     S
C1208  O1296   1.284   .     A
C1208  O1294   1.292   .     A
C1209  C1213   1.439   .     A
C1211  H1289   1.086   .     S
C1211  C1235   1.392   .     A
C1212  C1218   1.405   .     A
C1212  C1214   1.404   .     A
C1212  C1917   1.488   1_545 S
C1213  C1224   1.432   .     A
C1213  C1236   1.497   .     S
C1214  H1291   1.083   .     S
C1214  C1215   1.397   .     A
C1215  H1253   1.080   .     S
C1215  C1216   1.397   .     A
C1216  C1217   1.397   .     A
C1216  H1254   1.082   .     S
C1217  H1255   1.082   .     S
C1217  C1218   1.399   .     A
C1218  H1970   1.083   1_545 S
C1219  H1257   1.111   .     S
C1219  H1258   1.117   .     S
C1219  O1297   1.417   .     S
C1219  C1577   1.529   .     S
C1220  C1221   1.524   .     S
C1220  H1260   1.110   .     S
C1220  H1259   1.107   .     S
C1220  C1933   1.529   1_545 S
C1221  H1261   1.110   .     S
C1221  H1859   1.111   1_545 S
C1222  C1228   1.402   .     A
C1222  C1223   1.405   .     A
C1223  H1265   1.083   .     S
C1223  C1344   1.399   .     S
C1224  C1246   1.429   .     A
C1224  C1235   1.410   .     A
C1225  C1226   1.398   .     A
C1225  H1266   1.080   .     S
C1226  H1267   1.082   .     S
C1227  C1228   1.396   .     A
C1227  H1268   1.080   .     S
C1227  C1345   1.397   .     S
C1228  H1269   1.081   .     S
C1229  C1230   1.405   .     A
C1229  C1234   1.408   .     A
C1230  H1270   1.082   .     S
C1230  C1231   1.397   .     A
C1231  C1232   1.398   .     A
C1231  H1628   1.082   .     S
C1232  C1233   1.397   .     A
C1233  C1234   1.398   .     A
C1234  H1275   1.080   .     S
C1235  C180    1.395   1_556 S
C1236  C1241   1.404   .     A
C1236  C1237   1.411   .     A
C1237  H1276   1.084   .     S
C1237  C1238   1.397   .     A
C1238  H1277   1.080   .     S
C1238  C1239   1.396   .     A
C1239  H1278   1.082   .     S
C1239  C1240   1.397   .     A
C1240  H1279   1.081   .     S
C1240  C1241   1.398   .     A
C1241  H1280   1.082   .     S
C1242  C1250   1.487   .     S
C1242  C1248   1.406   .     A
C1242  C1243   1.407   .     A
C1243  C1244   1.398   .     A
C1243  H1281   1.083   .     S
C1244  H1282   1.082   .     S
C1244  C1245   1.397   .     A
C1245  H1283   1.081   .     S
C1245  C1247   1.397   .     A
C1246  C178    1.420   1_556 S
C1247  H1284   1.080   .     S
C1247  C1248   1.397   .     A
C1248  H1286   1.083   .     S
C1249  C1250   1.429   .     A
C1250  C1251   1.397   .     A
C1251  H1252   1.086   .     S
H1256  C1575   1.083   .     S
H1262  C1340   1.109   .     S
H1264  C1697   1.111   .     S
H1271  C1945   1.082   1_545 S
H1272  C1351   1.082   .     S
H1273  C1352   1.083   .     S
H1285  C1320   1.085   .     S
O1292  Zn1308  1.936   .     S
O1292  Zn1307  1.944   .     S
O1292  Zn1306  1.958   .     S
O1292  Zn1309  1.933   .     S
O1293  Zn1307  1.937   .     S
O1294  Zn1309  1.945   .     S
O1295  Zn1308  1.941   .     S
O1296  Zn1306  1.933   .     S
O1297  C1561   1.390   .     S
O1298  Zn1306  1.934   .     S
O1299  Zn1309  1.937   .     S
O1300  Zn1307  1.918   .     S
O1301  Zn1308  1.927   .     S
O1302  Zn1309  1.924   .     S
O1303  Zn1306  1.916   .     S
O1304  Zn1307  1.941   .     S
O1305  Zn1308  1.936   .     S
C1310  O1421   1.271   .     A
C1310  C1320   1.432   .     S
C1310  O1419   1.272   .     A
C1311  H1409   1.075   .     S
C1311  C1312   1.393   .     A
C1311  C1365   1.406   .     A
C1312  C1341   1.481   .     S
C1312  C243    1.406   1_556 S
C1313  O1422   1.279   .     A
C1313  O1420   1.283   .     A
C1313  C1319   1.451   .     S
C1314  C1316   1.410   .     A
C1314  C1315   1.425   .     A
C1315  C1318   1.410   .     A
C1315  C1368   1.428   .     A
C1316  C1317   1.385   .     A
C1316  H1382   1.081   .     S
C1317  C1329   1.391   .     A
C1317  H1407   1.081   .     S
C1318  C1329   1.391   .     A
C1318  H1406   1.079   .     S
C1319  C1082   1.333   1_655 S
C1319  H1155   1.087   1_655 S
C1321  C1330   1.393   .     A
C1321  C1348   1.487   .     S
C1321  C1328   1.426   .     A
C1322  C1325   1.459   .     S
C1322  C1680   1.351   .     S
C1322  C1688   1.488   .     S
C1323  C1324   1.437   .     S
C1323  C2036   1.351   1_545 S
C1323  O2130   1.390   1_545 S
C1324  O1423   1.270   .     A
C1324  O1417   1.276   .     A
C1325  O1418   1.269   .     A
C1325  O1424   1.273   .     A
C1326  C1329   1.449   .     S
C1326  O1414   1.270   .     A
C1326  O1412   1.276   .     A
C1327  C1328   1.500   .     S
C1327  O1415   1.284   .     A
C1327  O1413   1.292   .     A
C1328  C1332   1.439   .     A
C1330  H1408   1.086   .     S
C1330  C1354   1.392   .     A
C1331  C1337   1.405   .     A
C1331  C1333   1.404   .     A
C1331  C2036   1.488   1_545 S
C1332  C1343   1.432   .     A
C1332  C1355   1.497   .     S
C1333  H1410   1.083   .     S
C1333  C1334   1.397   .     A
C1334  H1372   1.080   .     S
C1334  C1335   1.397   .     A
C1335  C1336   1.397   .     A
C1335  H1373   1.082   .     S
C1336  H1374   1.082   .     S
C1336  C1337   1.399   .     A
C1337  H2089   1.083   1_545 S
C1338  H1376   1.111   .     S
C1338  H1377   1.117   .     S
C1338  O1416   1.417   .     S
C1338  C1696   1.529   .     S
C1339  C1340   1.524   .     S
C1339  H1379   1.110   .     S
C1339  H1378   1.107   .     S
C1339  C2052   1.529   1_545 S
C1340  H1380   1.110   .     S
C1340  H1978   1.111   1_545 S
C1341  C1347   1.402   .     A
C1341  C1342   1.405   .     A
C1342  H1384   1.083   .     S
C1342  C1106   1.399   1_655 S
C1343  C1365   1.429   .     A
C1343  C1354   1.410   .     A
C1344  C1345   1.398   .     A
C1344  H1385   1.080   .     S
C1345  H1386   1.082   .     S
C1346  C1347   1.396   .     A
C1346  H1387   1.080   .     S
C1346  C1107   1.397   1_655 S
C1347  H1388   1.081   .     S
C1348  C1349   1.405   .     A
C1348  C1353   1.408   .     A
C1349  H1389   1.082   .     S
C1349  C1350   1.397   .     A
C1350  C1351   1.398   .     A
C1350  H1747   1.082   .     S
C1351  C1352   1.397   .     A
C1352  C1353   1.398   .     A
C1353  H1394   1.080   .     S
C1354  C299    1.395   1_556 S
C1355  C1360   1.404   .     A
C1355  C1356   1.411   .     A
C1356  H1395   1.084   .     S
C1356  C1357   1.397   .     A
C1357  H1396   1.080   .     S
C1357  C1358   1.396   .     A
C1358  H1397   1.082   .     S
C1358  C1359   1.397   .     A
C1359  H1398   1.081   .     S
C1359  C1360   1.398   .     A
C1360  H1399   1.082   .     S
C1361  C1369   1.487   .     S
C1361  C1367   1.406   .     A
C1361  C1362   1.407   .     A
C1362  C1363   1.398   .     A
C1362  H1400   1.083   .     S
C1363  H1401   1.082   .     S
C1363  C1364   1.397   .     A
C1364  H1402   1.081   .     S
C1364  C1366   1.397   .     A
C1365  C297    1.420   1_556 S
C1366  H1403   1.080   .     S
C1366  C1367   1.397   .     A
C1367  H1405   1.083   .     S
C1368  C1369   1.429   .     A
C1369  C1370   1.397   .     A
C1370  H1371   1.086   .     S
H1375  C1694   1.083   .     S
H1381  C1102   1.109   1_655 S
H1383  C1459   1.111   1_655 S
H1390  C2064   1.082   1_545 S
H1391  C1113   1.082   1_655 S
H1392  C1114   1.083   1_655 S
H1404  C1082   1.085   1_655 S
O1411  Zn1427  1.936   .     S
O1411  Zn1426  1.944   .     S
O1411  Zn1425  1.958   .     S
O1411  Zn1428  1.933   .     S
O1412  Zn1426  1.937   .     S
O1413  Zn1428  1.945   .     S
O1414  Zn1427  1.941   .     S
O1415  Zn1425  1.933   .     S
O1416  C1680   1.390   .     S
O1417  Zn1425  1.934   .     S
O1418  Zn1428  1.937   .     S
O1419  Zn1426  1.918   .     S
O1420  Zn1427  1.927   .     S
O1421  Zn1428  1.924   .     S
O1422  Zn1425  1.916   .     S
O1423  Zn1426  1.941   .     S
O1424  Zn1427  1.936   .     S
C1429  O1540   1.271   .     A
C1429  C1439   1.432   .     S
C1429  O1538   1.272   .     A
C1430  H1528   1.075   .     S
C1430  C1431   1.393   .     A
C1430  C1484   1.406   .     A
C1431  C1460   1.481   .     S
C1431  C362    1.406   1_556 S
C1432  O1541   1.279   .     A
C1432  O1539   1.283   .     A
C1432  C1438   1.451   .     S
C1433  C1435   1.410   .     A
C1433  C1434   1.425   .     A
C1434  C1437   1.410   .     A
C1434  C1487   1.428   .     A
C1435  C1436   1.385   .     A
C1435  H1501   1.081   .     S
C1436  C1448   1.391   .     A
C1436  H1526   1.081   .     S
C1437  C1448   1.391   .     A
C1437  H1525   1.079   .     S
C1438  C1558   1.333   .     S
C1438  H1631   1.087   .     S
C1439  C1676   1.333   1_455 S
C1439  H1761   1.085   1_455 S
C1440  C1449   1.393   .     A
C1440  C1467   1.487   .     S
C1440  C1447   1.426   .     A
C1441  C1444   1.459   .     S
C1441  C1799   1.351   .     S
C1441  C1807   1.488   .     S
C1442  C1443   1.437   .     S
C1443  O1542   1.270   .     A
C1443  O1536   1.276   .     A
C1444  O1537   1.269   .     A
C1444  O1543   1.273   .     A
C1445  C1448   1.449   .     S
C1445  O1533   1.270   .     A
C1445  O1531   1.276   .     A
C1446  C1447   1.500   .     S
C1446  O1534   1.284   .     A
C1446  O1532   1.292   .     A
C1447  C1451   1.439   .     A
C1449  H1527   1.086   .     S
C1449  C1473   1.392   .     A
C1450  C1456   1.405   .     A
C1450  C1452   1.404   .     A
C1451  C1462   1.432   .     A
C1451  C1474   1.497   .     S
C1452  H1529   1.083   .     S
C1452  C1453   1.397   .     A
C1453  H1491   1.080   .     S
C1453  C1454   1.397   .     A
C1454  C1455   1.397   .     A
C1454  H1492   1.082   .     S
C1455  H1493   1.082   .     S
C1455  C1456   1.399   .     A
C1457  H1495   1.111   .     S
C1457  H1496   1.117   .     S
C1457  O1535   1.417   .     S
C1457  C1815   1.529   .     S
C1458  C1459   1.524   .     S
C1458  H1498   1.110   .     S
C1458  H1497   1.107   .     S
C1459  H1499   1.110   .     S
C1459  H1738   1.109   1_455 S
C1459  H1383   1.111   1_455 S
C1460  C1466   1.402   .     A
C1460  C1461   1.405   .     A
C1461  H1503   1.083   .     S
C1461  C1582   1.399   .     S
C1462  C1484   1.429   .     A
C1462  C1473   1.410   .     A
C1463  C1464   1.398   .     A
C1463  H1504   1.080   .     S
C1463  C1699   1.399   1_455 S
C1464  H1505   1.082   .     S
C1464  C1703   1.397   1_455 S
C1465  C1466   1.396   .     A
C1465  H1506   1.080   .     S
C1465  C1583   1.397   .     S
C1466  H1507   1.081   .     S
C1467  C1468   1.405   .     A
C1467  C1472   1.408   .     A
C1468  H1508   1.082   .     S
C1468  C1469   1.397   .     A
C1469  C1470   1.398   .     A
C1469  H1866   1.082   .     S
C1470  C1471   1.397   .     A
C1470  H1748   1.082   1_455 S
C1471  C1472   1.398   .     A
C1471  H1749   1.083   1_455 S
C1472  H1513   1.080   .     S
C1473  C418    1.395   1_556 S
C1474  C1479   1.404   .     A
C1474  C1475   1.411   .     A
C1475  H1514   1.084   .     S
C1475  C1476   1.397   .     A
C1476  H1515   1.080   .     S
C1476  C1477   1.396   .     A
C1477  H1516   1.082   .     S
C1477  C1478   1.397   .     A
C1478  H1517   1.081   .     S
C1478  C1479   1.398   .     A
C1479  H1518   1.082   .     S
C1480  C1488   1.487   .     S
C1480  C1486   1.406   .     A
C1480  C1481   1.407   .     A
C1481  C1482   1.398   .     A
C1481  H1519   1.083   .     S
C1482  H1520   1.082   .     S
C1482  C1483   1.397   .     A
C1483  H1521   1.081   .     S
C1483  C1485   1.397   .     A
C1484  C416    1.420   1_556 S
C1485  H1522   1.080   .     S
C1485  C1486   1.397   .     A
C1486  H1524   1.083   .     S
C1487  C1488   1.429   .     A
C1488  C1489   1.397   .     A
C1489  H1490   1.086   .     S
H1494  C1813   1.083   .     S
H1500  C1578   1.109   .     S
H1502  C1935   1.111   .     S
H1510  C1589   1.082   .     S
H1511  C1590   1.083   .     S
H1512  C1676   1.087   1_455 S
H1523  C1558   1.085   .     S
O1530  Zn1546  1.936   .     S
O1530  Zn1545  1.944   .     S
O1530  Zn1544  1.958   .     S
O1530  Zn1547  1.933   .     S
O1531  Zn1545  1.937   .     S
O1532  Zn1547  1.945   .     S
O1533  Zn1546  1.941   .     S
O1534  Zn1544  1.933   .     S
O1535  C1799   1.390   .     S
O1536  Zn1544  1.934   .     S
O1537  Zn1547  1.937   .     S
O1538  Zn1545  1.918   .     S
O1539  Zn1546  1.927   .     S
O1540  Zn1547  1.924   .     S
O1541  Zn1544  1.916   .     S
O1542  Zn1545  1.941   .     S
O1543  Zn1546  1.936   .     S
C1548  O1659   1.271   .     A
C1548  C1558   1.432   .     S
C1548  O1657   1.272   .     A
C1549  H1647   1.075   .     S
C1549  C1550   1.393   .     A
C1549  C1603   1.406   .     A
C1550  C1579   1.481   .     S
C1550  C481    1.406   1_556 S
C1551  O1660   1.279   .     A
C1551  O1658   1.283   .     A
C1551  C1557   1.451   .     S
C1552  C1554   1.410   .     A
C1552  C1553   1.425   .     A
C1553  C1556   1.410   .     A
C1553  C1606   1.428   .     A
C1554  C1555   1.385   .     A
C1554  H1620   1.081   .     S
C1555  C1567   1.391   .     A
C1555  H1645   1.081   .     S
C1556  C1567   1.391   .     A
C1556  H1644   1.079   .     S
C1557  C1677   1.333   .     S
C1557  H1750   1.087   .     S
C1559  C1568   1.393   .     A
C1559  C1586   1.487   .     S
C1559  C1566   1.426   .     A
C1560  C1563   1.459   .     S
C1560  C1918   1.351   .     S
C1560  C1926   1.488   .     S
C1561  C1562   1.437   .     S
C1562  O1661   1.270   .     A
C1562  O1655   1.276   .     A
C1563  O1656   1.269   .     A
C1563  O1662   1.273   .     A
C1564  C1567   1.449   .     S
C1564  O1652   1.270   .     A
C1564  O1650   1.276   .     A
C1565  C1566   1.500   .     S
C1565  O1653   1.284   .     A
C1565  O1651   1.292   .     A
C1566  C1570   1.439   .     A
C1568  H1646   1.086   .     S
C1568  C1592   1.392   .     A
C1569  C1575   1.405   .     A
C1569  C1571   1.404   .     A
C1570  C1581   1.432   .     A
C1570  C1593   1.497   .     S
C1571  H1648   1.083   .     S
C1571  C1572   1.397   .     A
C1572  H1610   1.080   .     S
C1572  C1573   1.397   .     A
C1573  C1574   1.397   .     A
C1573  H1611   1.082   .     S
C1574  H1612   1.082   .     S
C1574  C1575   1.399   .     A
C1576  H1614   1.111   .     S
C1576  H1615   1.117   .     S
C1576  O1654   1.417   .     S
C1576  C1934   1.529   .     S
C1577  C1578   1.524   .     S
C1577  H1617   1.110   .     S
C1577  H1616   1.107   .     S
C1578  H1618   1.110   .     S
C1579  C1585   1.402   .     A
C1579  C1580   1.405   .     A
C1580  H1622   1.083   .     S
C1580  C1701   1.399   .     S
C1581  C1603   1.429   .     A
C1581  C1592   1.410   .     A
C1582  C1583   1.398   .     A
C1582  H1623   1.080   .     S
C1583  H1624   1.082   .     S
C1584  C1585   1.396   .     A
C1584  H1625   1.080   .     S
C1584  C1702   1.397   .     S
C1585  H1626   1.081   .     S
C1586  C1587   1.405   .     A
C1586  C1591   1.408   .     A
C1587  H1627   1.082   .     S
C1587  C1588   1.397   .     A
C1588  C1589   1.398   .     A
C1588  H1985   1.082   .     S
C1589  C1590   1.397   .     A
C1590  C1591   1.398   .     A
C1591  H1632   1.080   .     S
C1592  C537    1.395   1_556 S
C1593  C1598   1.404   .     A
C1593  C1594   1.411   .     A
C1594  H1633   1.084   .     S
C1594  C1595   1.397   .     A
C1595  H1634   1.080   .     S
C1595  C1596   1.396   .     A
C1596  H1635   1.082   .     S
C1596  C1597   1.397   .     A
C1597  H1636   1.081   .     S
C1597  C1598   1.398   .     A
C1598  H1637   1.082   .     S
C1599  C1607   1.487   .     S
C1599  C1605   1.406   .     A
C1599  C1600   1.407   .     A
C1600  C1601   1.398   .     A
C1600  H1638   1.083   .     S
C1601  H1639   1.082   .     S
C1601  C1602   1.397   .     A
C1602  H1640   1.081   .     S
C1602  C1604   1.397   .     A
C1603  C535    1.420   1_556 S
C1604  H1641   1.080   .     S
C1604  C1605   1.397   .     A
C1605  H1643   1.083   .     S
C1606  C1607   1.429   .     A
C1607  C1608   1.397   .     A
C1608  H1609   1.086   .     S
H1613  C1932   1.083   .     S
H1619  C1697   1.109   .     S
H1621  C2054   1.111   .     S
H1629  C1708   1.082   .     S
H1630  C1709   1.083   .     S
H1642  C1677   1.085   .     S
O1649  Zn1665  1.936   .     S
O1649  Zn1664  1.944   .     S
O1649  Zn1663  1.958   .     S
O1649  Zn1666  1.933   .     S
O1650  Zn1664  1.937   .     S
O1651  Zn1666  1.945   .     S
O1652  Zn1665  1.941   .     S
O1653  Zn1663  1.933   .     S
O1654  C1918   1.390   .     S
O1655  Zn1663  1.934   .     S
O1656  Zn1666  1.937   .     S
O1657  Zn1664  1.918   .     S
O1658  Zn1665  1.927   .     S
O1659  Zn1666  1.924   .     S
O1660  Zn1663  1.916   .     S
O1661  Zn1664  1.941   .     S
O1662  Zn1665  1.936   .     S
C1667  O1778   1.271   .     A
C1667  C1677   1.432   .     S
C1667  O1776   1.272   .     A
C1668  H1766   1.075   .     S
C1668  C1669   1.393   .     A
C1668  C1722   1.406   .     A
C1669  C1698   1.481   .     S
C1669  C600    1.406   1_556 S
C1670  O1779   1.279   .     A
C1670  O1777   1.283   .     A
C1670  C1676   1.451   .     S
C1671  C1673   1.410   .     A
C1671  C1672   1.425   .     A
C1672  C1675   1.410   .     A
C1672  C1725   1.428   .     A
C1673  C1674   1.385   .     A
C1673  H1739   1.081   .     S
C1674  C1686   1.391   .     A
C1674  H1764   1.081   .     S
C1675  C1686   1.391   .     A
C1675  H1763   1.079   .     S
C1676  C1439   1.333   1_655 S
C1676  H1512   1.087   1_655 S
C1678  C1687   1.393   .     A
C1678  C1705   1.487   .     S
C1678  C1685   1.426   .     A
C1679  C1682   1.459   .     S
C1679  C2037   1.351   .     S
C1679  C2045   1.488   .     S
C1680  C1681   1.437   .     S
C1681  O1780   1.270   .     A
C1681  O1774   1.276   .     A
C1682  O1775   1.269   .     A
C1682  O1781   1.273   .     A
C1683  C1686   1.449   .     S
C1683  O1771   1.270   .     A
C1683  O1769   1.276   .     A
C1684  C1685   1.500   .     S
C1684  O1772   1.284   .     A
C1684  O1770   1.292   .     A
C1685  C1689   1.439   .     A
C1687  H1765   1.086   .     S
C1687  C1711   1.392   .     A
C1688  C1694   1.405   .     A
C1688  C1690   1.404   .     A
C1689  C1700   1.432   .     A
C1689  C1712   1.497   .     S
C1690  H1767   1.083   .     S
C1690  C1691   1.397   .     A
C1691  H1729   1.080   .     S
C1691  C1692   1.397   .     A
C1692  C1693   1.397   .     A
C1692  H1730   1.082   .     S
C1693  H1731   1.082   .     S
C1693  C1694   1.399   .     A
C1695  H1733   1.111   .     S
C1695  H1734   1.117   .     S
C1695  O1773   1.417   .     S
C1695  C2053   1.529   .     S
C1696  C1697   1.524   .     S
C1696  H1736   1.110   .     S
C1696  H1735   1.107   .     S
C1697  H1737   1.110   .     S
C1698  C1704   1.402   .     A
C1698  C1699   1.405   .     A
C1699  H1741   1.083   .     S
C1699  C1463   1.399   1_655 S
C1700  C1722   1.429   .     A
C1700  C1711   1.410   .     A
C1701  C1702   1.398   .     A
C1701  H1742   1.080   .     S
C1702  H1743   1.082   .     S
C1703  C1704   1.396   .     A
C1703  H1744   1.080   .     S
C1703  C1464   1.397   1_655 S
C1704  H1745   1.081   .     S
C1705  C1706   1.405   .     A
C1705  C1710   1.408   .     A
C1706  H1746   1.082   .     S
C1706  C1707   1.397   .     A
C1707  C1708   1.398   .     A
C1707  H2104   1.082   .     S
C1708  C1709   1.397   .     A
C1709  C1710   1.398   .     A
C1710  H1751   1.080   .     S
C1711  C656    1.395   1_556 S
C1712  C1717   1.404   .     A
C1712  C1713   1.411   .     A
C1713  H1752   1.084   .     S
C1713  C1714   1.397   .     A
C1714  H1753   1.080   .     S
C1714  C1715   1.396   .     A
C1715  H1754   1.082   .     S
C1715  C1716   1.397   .     A
C1716  H1755   1.081   .     S
C1716  C1717   1.398   .     A
C1717  H1756   1.082   .     S
C1718  C1726   1.487   .     S
C1718  C1724   1.406   .     A
C1718  C1719   1.407   .     A
C1719  C1720   1.398   .     A
C1719  H1757   1.083   .     S
C1720  H1758   1.082   .     S
C1720  C1721   1.397   .     A
C1721  H1759   1.081   .     S
C1721  C1723   1.397   .     A
C1722  C654    1.420   1_556 S
C1723  H1760   1.080   .     S
C1723  C1724   1.397   .     A
C1724  H1762   1.083   .     S
C1725  C1726   1.429   .     A
C1726  C1727   1.397   .     A
C1727  H1728   1.086   .     S
H1732  C2051   1.083   .     S
H1738  C1459   1.109   1_655 S
H1740  C1816   1.111   1_655 S
H1748  C1470   1.082   1_655 S
H1749  C1471   1.083   1_655 S
H1761  C1439   1.085   1_655 S
O1768  Zn1784  1.936   .     S
O1768  Zn1783  1.944   .     S
O1768  Zn1782  1.958   .     S
O1768  Zn1785  1.933   .     S
O1769  Zn1783  1.937   .     S
O1770  Zn1785  1.945   .     S
O1771  Zn1784  1.941   .     S
O1772  Zn1782  1.933   .     S
O1773  C2037   1.390   .     S
O1774  Zn1782  1.934   .     S
O1775  Zn1785  1.937   .     S
O1776  Zn1783  1.918   .     S
O1777  Zn1784  1.927   .     S
O1778  Zn1785  1.924   .     S
O1779  Zn1782  1.916   .     S
O1780  Zn1783  1.941   .     S
O1781  Zn1784  1.936   .     S
C1786  O1897   1.271   .     A
C1786  C1796   1.432   .     S
C1786  O1895   1.272   .     A
C1787  H1885   1.075   .     S
C1787  C1788   1.393   .     A
C1787  C1841   1.406   .     A
C1788  C1817   1.481   .     S
C1788  C719    1.406   1_556 S
C1789  O1898   1.279   .     A
C1789  O1896   1.283   .     A
C1789  C1795   1.451   .     S
C1790  C1792   1.410   .     A
C1790  C1791   1.425   .     A
C1791  C1794   1.410   .     A
C1791  C1844   1.428   .     A
C1792  C1793   1.385   .     A
C1792  H1858   1.081   .     S
C1793  C1805   1.391   .     A
C1793  H1883   1.081   .     S
C1794  C1805   1.391   .     A
C1794  H1882   1.079   .     S
C1795  C1915   1.333   .     S
C1795  H1988   1.087   .     S
C1796  C2033   1.333   1_455 S
C1796  H2118   1.085   1_455 S
C1797  C1806   1.393   .     A
C1797  C1824   1.487   .     S
C1797  C1804   1.426   .     A
C1798  C1801   1.459   .     S
C1798  C1085   1.351   1_565 S
C1798  C1093   1.488   1_565 S
C1799  C1800   1.437   .     S
C1800  O1899   1.270   .     A
C1800  O1893   1.276   .     A
C1801  O1894   1.269   .     A
C1801  O1900   1.273   .     A
C1802  C1805   1.449   .     S
C1802  O1890   1.270   .     A
C1802  O1888   1.276   .     A
C1803  C1804   1.500   .     S
C1803  O1891   1.284   .     A
C1803  O1889   1.292   .     A
C1804  C1808   1.439   .     A
C1806  H1884   1.086   .     S
C1806  C1830   1.392   .     A
C1807  C1813   1.405   .     A
C1807  C1809   1.404   .     A
C1808  C1819   1.432   .     A
C1808  C1831   1.497   .     S
C1809  H1886   1.083   .     S
C1809  C1810   1.397   .     A
C1810  H1848   1.080   .     S
C1810  C1811   1.397   .     A
C1811  C1812   1.397   .     A
C1811  H1849   1.082   .     S
C1812  H1850   1.082   .     S
C1812  C1813   1.399   .     A
C1814  H1852   1.111   .     S
C1814  H1853   1.117   .     S
C1814  O1892   1.417   .     S
C1814  C1101   1.529   1_565 S
C1815  C1816   1.524   .     S
C1815  H1855   1.110   .     S
C1815  H1854   1.107   .     S
C1816  H1856   1.110   .     S
C1816  H2095   1.109   1_455 S
C1816  H1740   1.111   1_455 S
C1817  C1823   1.402   .     A
C1817  C1818   1.405   .     A
C1818  H1860   1.083   .     S
C1818  C1939   1.399   .     S
C1819  C1841   1.429   .     A
C1819  C1830   1.410   .     A
C1820  C1821   1.398   .     A
C1820  H1861   1.080   .     S
C1820  C2056   1.399   1_455 S
C1821  H1862   1.082   .     S
C1821  C2060   1.397   1_455 S
C1822  C1823   1.396   .     A
C1822  H1863   1.080   .     S
C1822  C1940   1.397   .     S
C1823  H1864   1.081   .     S
C1824  C1825   1.405   .     A
C1824  C1829   1.408   .     A
C1825  H1865   1.082   .     S
C1825  C1826   1.397   .     A
C1826  C1827   1.398   .     A
C1826  H1152   1.082   1_565 S
C1827  C1828   1.397   .     A
C1827  H2105   1.082   1_455 S
C1828  C1829   1.398   .     A
C1828  H2106   1.083   1_455 S
C1829  H1870   1.080   .     S
C1830  C775    1.395   1_556 S
C1831  C1836   1.404   .     A
C1831  C1832   1.411   .     A
C1832  H1871   1.084   .     S
C1832  C1833   1.397   .     A
C1833  H1872   1.080   .     S
C1833  C1834   1.396   .     A
C1834  H1873   1.082   .     S
C1834  C1835   1.397   .     A
C1835  H1874   1.081   .     S
C1835  C1836   1.398   .     A
C1836  H1875   1.082   .     S
C1837  C1845   1.487   .     S
C1837  C1843   1.406   .     A
C1837  C1838   1.407   .     A
C1838  C1839   1.398   .     A
C1838  H1876   1.083   .     S
C1839  H1877   1.082   .     S
C1839  C1840   1.397   .     A
C1840  H1878   1.081   .     S
C1840  C1842   1.397   .     A
C1841  C773    1.420   1_556 S
C1842  H1879   1.080   .     S
C1842  C1843   1.397   .     A
C1843  H1881   1.083   .     S
C1844  C1845   1.429   .     A
C1845  C1846   1.397   .     A
C1846  H1847   1.086   .     S
H1851  C1099   1.083   1_565 S
H1857  C1935   1.109   .     S
H1859  C1221   1.111   1_565 S
H1867  C1946   1.082   .     S
H1868  C1947   1.083   .     S
H1869  C2033   1.087   1_455 S
H1880  C1915   1.085   .     S
O1887  Zn1903  1.936   .     S
O1887  Zn1902  1.944   .     S
O1887  Zn1901  1.958   .     S
O1887  Zn1904  1.933   .     S
O1888  Zn1902  1.937   .     S
O1889  Zn1904  1.945   .     S
O1890  Zn1903  1.941   .     S
O1891  Zn1901  1.933   .     S
O1892  C1085   1.390   1_565 S
O1893  Zn1901  1.934   .     S
O1894  Zn1904  1.937   .     S
O1895  Zn1902  1.918   .     S
O1896  Zn1903  1.927   .     S
O1897  Zn1904  1.924   .     S
O1898  Zn1901  1.916   .     S
O1899  Zn1902  1.941   .     S
O1900  Zn1903  1.936   .     S
C1905  O2016   1.271   .     A
C1905  C1915   1.432   .     S
C1905  O2014   1.272   .     A
C1906  H2004   1.075   .     S
C1906  C1907   1.393   .     A
C1906  C1960   1.406   .     A
C1907  C1936   1.481   .     S
C1907  C838    1.406   1_556 S
C1908  O2017   1.279   .     A
C1908  O2015   1.283   .     A
C1908  C1914   1.451   .     S
C1909  C1911   1.410   .     A
C1909  C1910   1.425   .     A
C1910  C1913   1.410   .     A
C1910  C1963   1.428   .     A
C1911  C1912   1.385   .     A
C1911  H1977   1.081   .     S
C1912  C1924   1.391   .     A
C1912  H2002   1.081   .     S
C1913  C1924   1.391   .     A
C1913  H2001   1.079   .     S
C1914  C2034   1.333   .     S
C1914  H2107   1.087   .     S
C1916  C1925   1.393   .     A
C1916  C1943   1.487   .     S
C1916  C1923   1.426   .     A
C1917  C1920   1.459   .     S
C1917  C1204   1.351   1_565 S
C1917  C1212   1.488   1_565 S
C1918  C1919   1.437   .     S
C1919  O2018   1.270   .     A
C1919  O2012   1.276   .     A
C1920  O2013   1.269   .     A
C1920  O2019   1.273   .     A
C1921  C1924   1.449   .     S
C1921  O2009   1.270   .     A
C1921  O2007   1.276   .     A
C1922  C1923   1.500   .     S
C1922  O2010   1.284   .     A
C1922  O2008   1.292   .     A
C1923  C1927   1.439   .     A
C1925  H2003   1.086   .     S
C1925  C1949   1.392   .     A
C1926  C1932   1.405   .     A
C1926  C1928   1.404   .     A
C1927  C1938   1.432   .     A
C1927  C1950   1.497   .     S
C1928  H2005   1.083   .     S
C1928  C1929   1.397   .     A
C1929  H1967   1.080   .     S
C1929  C1930   1.397   .     A
C1930  C1931   1.397   .     A
C1930  H1968   1.082   .     S
C1931  H1969   1.082   .     S
C1931  C1932   1.399   .     A
C1933  H1971   1.111   .     S
C1933  H1972   1.117   .     S
C1933  O2011   1.417   .     S
C1933  C1220   1.529   1_565 S
C1934  C1935   1.524   .     S
C1934  H1974   1.110   .     S
C1934  H1973   1.107   .     S
C1935  H1975   1.110   .     S
C1936  C1942   1.402   .     A
C1936  C1937   1.405   .     A
C1937  H1979   1.083   .     S
C1937  C2058   1.399   .     S
C1938  C1960   1.429   .     A
C1938  C1949   1.410   .     A
C1939  C1940   1.398   .     A
C1939  H1980   1.080   .     S
C1940  H1981   1.082   .     S
C1941  C1942   1.396   .     A
C1941  H1982   1.080   .     S
C1941  C2059   1.397   .     S
C1942  H1983   1.081   .     S
C1943  C1944   1.405   .     A
C1943  C1948   1.408   .     A
C1944  H1984   1.082   .     S
C1944  C1945   1.397   .     A
C1945  C1946   1.398   .     A
C1945  H1271   1.082   1_565 S
C1946  C1947   1.397   .     A
C1947  C1948   1.398   .     A
C1948  H1989   1.080   .     S
C1949  C894    1.395   1_556 S
C1950  C1955   1.404   .     A
C1950  C1951   1.411   .     A
C1951  H1990   1.084   .     S
C1951  C1952   1.397   .     A
C1952  H1991   1.080   .     S
C1952  C1953   1.396   .     A
C1953  H1992   1.082   .     S
C1953  C1954   1.397   .     A
C1954  H1993   1.081   .     S
C1954  C1955   1.398   .     A
C1955  H1994   1.082   .     S
C1956  C1964   1.487   .     S
C1956  C1962   1.406   .     A
C1956  C1957   1.407   .     A
C1957  C1958   1.398   .     A
C1957  H1995   1.083   .     S
C1958  H1996   1.082   .     S
C1958  C1959   1.397   .     A
C1959  H1997   1.081   .     S
C1959  C1961   1.397   .     A
C1960  C892    1.420   1_556 S
C1961  H1998   1.080   .     S
C1961  C1962   1.397   .     A
C1962  H2000   1.083   .     S
C1963  C1964   1.429   .     A
C1964  C1965   1.397   .     A
C1965  H1966   1.086   .     S
H1970  C1218   1.083   1_565 S
H1976  C2054   1.109   .     S
H1978  C1340   1.111   1_565 S
H1986  C2065   1.082   .     S
H1987  C2066   1.083   .     S
H1999  C2034   1.085   .     S
O2006  Zn2022  1.936   .     S
O2006  Zn2021  1.944   .     S
O2006  Zn2020  1.958   .     S
O2006  Zn2023  1.933   .     S
O2007  Zn2021  1.937   .     S
O2008  Zn2023  1.945   .     S
O2009  Zn2022  1.941   .     S
O2010  Zn2020  1.933   .     S
O2011  C1204   1.390   1_565 S
O2012  Zn2020  1.934   .     S
O2013  Zn2023  1.937   .     S
O2014  Zn2021  1.918   .     S
O2015  Zn2022  1.927   .     S
O2016  Zn2023  1.924   .     S
O2017  Zn2020  1.916   .     S
O2018  Zn2021  1.941   .     S
O2019  Zn2022  1.936   .     S
C2024  O2135   1.271   .     A
C2024  C2034   1.432   .     S
C2024  O2133   1.272   .     A
C2025  H2123   1.075   .     S
C2025  C2026   1.393   .     A
C2025  C2079   1.406   .     A
C2026  C2055   1.481   .     S
C2026  C957    1.406   1_556 S
C2027  O2136   1.279   .     A
C2027  O2134   1.283   .     A
C2027  C2033   1.451   .     S
C2028  C2030   1.410   .     A
C2028  C2029   1.425   .     A
C2029  C2032   1.410   .     A
C2029  C2082   1.428   .     A
C2030  C2031   1.385   .     A
C2030  H2096   1.081   .     S
C2031  C2043   1.391   .     A
C2031  H2121   1.081   .     S
C2032  C2043   1.391   .     A
C2032  H2120   1.079   .     S
C2033  C1796   1.333   1_655 S
C2033  H1869   1.087   1_655 S
C2035  C2044   1.393   .     A
C2035  C2062   1.487   .     S
C2035  C2042   1.426   .     A
C2036  C2039   1.459   .     S
C2036  C1323   1.351   1_565 S
C2036  C1331   1.488   1_565 S
C2037  C2038   1.437   .     S
C2038  O2137   1.270   .     A
C2038  O2131   1.276   .     A
C2039  O2132   1.269   .     A
C2039  O2138   1.273   .     A
C2040  C2043   1.449   .     S
C2040  O2128   1.270   .     A
C2040  O2126   1.276   .     A
C2041  C2042   1.500   .     S
C2041  O2129   1.284   .     A
C2041  O2127   1.292   .     A
C2042  C2046   1.439   .     A
C2044  H2122   1.086   .     S
C2044  C2068   1.392   .     A
C2045  C2051   1.405   .     A
C2045  C2047   1.404   .     A
C2046  C2057   1.432   .     A
C2046  C2069   1.497   .     S
C2047  H2124   1.083   .     S
C2047  C2048   1.397   .     A
C2048  H2086   1.080   .     S
C2048  C2049   1.397   .     A
C2049  C2050   1.397   .     A
C2049  H2087   1.082   .     S
C2050  H2088   1.082   .     S
C2050  C2051   1.399   .     A
C2052  H2090   1.111   .     S
C2052  H2091   1.117   .     S
C2052  O2130   1.417   .     S
C2052  C1339   1.529   1_565 S
C2053  C2054   1.524   .     S
C2053  H2093   1.110   .     S
C2053  H2092   1.107   .     S
C2054  H2094   1.110   .     S
C2055  C2061   1.402   .     A
C2055  C2056   1.405   .     A
C2056  H2098   1.083   .     S
C2056  C1820   1.399   1_655 S
C2057  C2079   1.429   .     A
C2057  C2068   1.410   .     A
C2058  C2059   1.398   .     A
C2058  H2099   1.080   .     S
C2059  H2100   1.082   .     S
C2060  C2061   1.396   .     A
C2060  H2101   1.080   .     S
C2060  C1821   1.397   1_655 S
C2061  H2102   1.081   .     S
C2062  C2063   1.405   .     A
C2062  C2067   1.408   .     A
C2063  H2103   1.082   .     S
C2063  C2064   1.397   .     A
C2064  C2065   1.398   .     A
C2064  H1390   1.082   1_565 S
C2065  C2066   1.397   .     A
C2066  C2067   1.398   .     A
C2067  H2108   1.080   .     S
C2068  C1013   1.395   1_556 S
C2069  C2074   1.404   .     A
C2069  C2070   1.411   .     A
C2070  H2109   1.084   .     S
C2070  C2071   1.397   .     A
C2071  H2110   1.080   .     S
C2071  C2072   1.396   .     A
C2072  H2111   1.082   .     S
C2072  C2073   1.397   .     A
C2073  H2112   1.081   .     S
C2073  C2074   1.398   .     A
C2074  H2113   1.082   .     S
C2075  C2083   1.487   .     S
C2075  C2081   1.406   .     A
C2075  C2076   1.407   .     A
C2076  C2077   1.398   .     A
C2076  H2114   1.083   .     S
C2077  H2115   1.082   .     S
C2077  C2078   1.397   .     A
C2078  H2116   1.081   .     S
C2078  C2080   1.397   .     A
C2079  C1011   1.420   1_556 S
C2080  H2117   1.080   .     S
C2080  C2081   1.397   .     A
C2081  H2119   1.083   .     S
C2082  C2083   1.429   .     A
C2083  C2084   1.397   .     A
C2084  H2085   1.086   .     S
H2089  C1337   1.083   1_565 S
H2095  C1816   1.109   1_655 S
H2097  C1102   1.111   1_665 S
H2105  C1827   1.082   1_655 S
H2106  C1828   1.083   1_655 S
H2118  C1796   1.085   1_655 S
O2125  Zn2141  1.936   .     S
O2125  Zn2140  1.944   .     S
O2125  Zn2139  1.958   .     S
O2125  Zn2142  1.933   .     S
O2126  Zn2140  1.937   .     S
O2127  Zn2142  1.945   .     S
O2128  Zn2141  1.941   .     S
O2129  Zn2139  1.933   .     S
O2130  C1323   1.390   1_565 S
O2131  Zn2139  1.934   .     S
O2132  Zn2142  1.937   .     S
O2133  Zn2140  1.918   .     S
O2134  Zn2141  1.927   .     S
O2135  Zn2142  1.924   .     S
O2136  Zn2139  1.916   .     S
O2137  Zn2140  1.941   .     S
O2138  Zn2141  1.936   .     S
