data_str_m1_o1_o2_pcu_sym.96
_audit_creation_date              2020-01-03
_audit_creation_method            'Materials Studio'
_symmetry_space_group_name_H-M    'P1'
_symmetry_Int_Tables_number       1
_symmetry_cell_setting            triclinic
loop_
_symmetry_equiv_pos_as_xyz
  x,y,z
_cell_length_a                    36.6003
_cell_length_b                    36.6003
_cell_length_c                    34.5827
_cell_angle_alpha                 90.0000
_cell_angle_beta                  89.9999
_cell_angle_gamma                 90.0000
loop_
_atom_site_label
_atom_site_type_symbol
_atom_site_fract_x
_atom_site_fract_y
_atom_site_fract_z
_atom_site_U_iso_or_equiv
_atom_site_adp_type
_atom_site_occupancy
C1     C     0.21822   0.01061   0.04186   0.00000  Uiso   1.00
C2     C     0.02720   0.26961   0.45774   0.00000  Uiso   1.00
C3     C     0.34802   0.40198   0.75000   0.00000  Uiso   1.00
C4     C     0.40198   0.15198   0.25000   0.00000  Uiso   1.00
C5     C     0.09802   0.34802   0.75000   0.00000  Uiso   1.00
C6     C     0.34802   0.40198   0.25000   0.00000  Uiso   1.00
C7     C     0.15198   0.09802   0.75000   0.00000  Uiso   1.00
C8     C     0.09802   0.15198   0.75000   0.00000  Uiso   1.00
C9     C     0.40198   0.34802   0.25000   0.00000  Uiso   1.00
C10    C     0.15198   0.40198   0.75000   0.00000  Uiso   1.00
C11    C     0.34802   0.09802   0.25000   0.00000  Uiso   1.00
C12    C     0.40198   0.34802   0.75000   0.00000  Uiso   1.00
C13    C     0.23938   0.46822   0.54186   0.00000  Uiso   1.00
C14    C     0.09802   0.15198   0.25000   0.00000  Uiso   1.00
C15    C     0.34802   0.09802   0.75000   0.00000  Uiso   1.00
C16    C     0.15198   0.40198   0.25000   0.00000  Uiso   1.00
C17    C     0.25000   0.00000   0.10241   0.00000  Uiso   1.00
C18    C     0.25000   0.00000   0.89733   0.00000  Uiso   1.00
C19    C    -0.00000   0.25000   0.10241   0.00000  Uiso   1.00
C20    C     0.00000   0.25000   0.89733   0.00000  Uiso   1.00
C21    C     0.00000   0.25000   0.60240   0.00000  Uiso   1.00
C22    C     0.00000   0.25000   0.39733   0.00000  Uiso   1.00
C23    C     0.25000   0.00000   0.60241   0.00000  Uiso   1.00
C24    C     0.23039   0.02720   0.45774   0.00000  Uiso   1.00
C25    C     0.25000   0.00000   0.39733   0.00000  Uiso   1.00
C26    C     0.18528   0.05479   0.00942   0.00000  Uiso   1.00
C27    C     0.17872   0.08252   0.04199   0.00000  Uiso   1.00
C28    C     0.17079   0.12050   0.02583   0.00000  Uiso   1.00
C29    C     0.29447   0.07185   0.99040   0.00000  Uiso   1.00
C30    C     0.29026   0.10015   0.95792   0.00000  Uiso   1.00
C31    C     0.28383   0.13833   0.97427   0.00000  Uiso   1.00
C32    C     0.44521   0.18528   0.00942   0.00000  Uiso   1.00
C33    C     0.41747   0.17874   0.04198   0.00000  Uiso   1.00
C34    C     0.37950   0.17080   0.02582   0.00000  Uiso   1.00
C35    C     0.03179   0.23940   0.54186   0.00000  Uiso   1.00
C36    C     0.42815   0.29447   0.99040   0.00000  Uiso   1.00
C37    C     0.39985   0.29027   0.95792   0.00000  Uiso   1.00
C38    C     0.36167   0.28384   0.97426   0.00000  Uiso   1.00
C39    C     0.31472   0.44521   0.00942   0.00000  Uiso   1.00
C40    C     0.32128   0.41748   0.04199   0.00000  Uiso   1.00
C41    C     0.32921   0.37950   0.02583   0.00000  Uiso   1.00
C42    C     0.20553   0.42815   0.99040   0.00000  Uiso   1.00
C43    C     0.20974   0.39985   0.95792   0.00000  Uiso   1.00
C44    C     0.21617   0.36167   0.97427   0.00000  Uiso   1.00
C45    C     0.05479   0.31472   0.00942   0.00000  Uiso   1.00
C46    C     0.47280   0.23041   0.45775   0.00000  Uiso   1.00
C47    C     0.08252   0.32128   0.04199   0.00000  Uiso   1.00
C48    C     0.12050   0.32922   0.02583   0.00000  Uiso   1.00
C49    C     0.07185   0.20553   0.99040   0.00000  Uiso   1.00
C50    C     0.10015   0.20974   0.95792   0.00000  Uiso   1.00
C51    C     0.13833   0.21617   0.97427   0.00000  Uiso   1.00
C52    C     0.43530   0.30481   0.50943   0.00000  Uiso   1.00
C53    C     0.42872   0.33253   0.54200   0.00000  Uiso   1.00
C54    C     0.42078   0.37051   0.52585   0.00000  Uiso   1.00
C55    C     0.04447   0.32185   0.49040   0.00000  Uiso   1.00
C56    C     0.04015   0.35015   0.45794   0.00000  Uiso   1.00
C57    C     0.26060   0.03178   0.54186   0.00000  Uiso   1.00
C58    C     0.03376   0.38833   0.47429   0.00000  Uiso   1.00
C59    C     0.19520   0.43528   0.50943   0.00000  Uiso   1.00
C60    C     0.16748   0.42869   0.54200   0.00000  Uiso   1.00
C61    C     0.12950   0.42077   0.52585   0.00000  Uiso   1.00
C62    C     0.17815   0.04448   0.49039   0.00000  Uiso   1.00
C63    C     0.14985   0.04027   0.45792   0.00000  Uiso   1.00
C64    C     0.11166   0.03383   0.47426   0.00000  Uiso   1.00
C65    C     0.06474   0.19524   0.50941   0.00000  Uiso   1.00
C66    C     0.07125   0.16749   0.54197   0.00000  Uiso   1.00
C67    C     0.07919   0.12952   0.52580   0.00000  Uiso   1.00
C68    C     0.26959   0.47280   0.45775   0.00000  Uiso   1.00
C69    C     0.45553   0.17816   0.49038   0.00000  Uiso   1.00
C70    C     0.45957   0.14984   0.45790   0.00000  Uiso   1.00
C71    C     0.46606   0.11166   0.47422   0.00000  Uiso   1.00
C72    C     0.30477   0.06472   0.50942   0.00000  Uiso   1.00
C73    C     0.33251   0.07128   0.54198   0.00000  Uiso   1.00
C74    C     0.37048   0.07922   0.52582   0.00000  Uiso   1.00
C75    C     0.32184   0.45553   0.49040   0.00000  Uiso   1.00
C76    C     0.35014   0.45972   0.45792   0.00000  Uiso   1.00
C77    C     0.38832   0.46617   0.47427   0.00000  Uiso   1.00
C78    C     0.21827   0.00917   0.08212   0.00000  Uiso   1.00
C79    C     0.27775   0.01791   0.91750   0.00000  Uiso   1.00
C80    C     0.49083   0.21827   0.08212   0.00000  Uiso   1.00
C81    C     0.27720   0.01960   0.95774   0.00000  Uiso   1.00
C82    C     0.48209   0.27775   0.91750   0.00000  Uiso   1.00
C83    C     0.28173   0.49083   0.08212   0.00000  Uiso   1.00
C84    C     0.22225   0.48209   0.91750   0.00000  Uiso   1.00
C85    C     0.00917   0.28173   0.08212   0.00000  Uiso   1.00
C86    C     0.01791   0.22225   0.91750   0.00000  Uiso   1.00
C87    C     0.46827   0.25918   0.58212   0.00000  Uiso   1.00
C88    C     0.02775   0.26792   0.41749   0.00000  Uiso   1.00
C89    C     0.24082   0.46827   0.58212   0.00000  Uiso   1.00
C90    C     0.23208   0.02775   0.41750   0.00000  Uiso   1.00
C91    C     0.03174   0.24083   0.58212   0.00000  Uiso   1.00
C92    C     0.48939   0.21822   0.04186   0.00000  Uiso   1.00
C93    C     0.47225   0.23209   0.41750   0.00000  Uiso   1.00
C94    C     0.25916   0.03174   0.58212   0.00000  Uiso   1.00
C95    C     0.26791   0.47225   0.41750   0.00000  Uiso   1.00
C96    C     0.25000   0.00000   0.02118   0.00000  Uiso   1.00
C97    C     0.25000   0.00000   0.97845   0.00000  Uiso   1.00
C98    C    -0.00000   0.25000   0.02118   0.00000  Uiso   1.00
C99    C     0.00000   0.25000   0.97845   0.00000  Uiso   1.00
C100   C     0.00001   0.25001   0.52118   0.00000  Uiso   1.00
C101   C     0.00000   0.25001   0.47845   0.00000  Uiso   1.00
C102   C     0.24999   0.00000   0.52118   0.00000  Uiso   1.00
C103   C     0.48040   0.27720   0.95774   0.00000  Uiso   1.00
C104   C     0.24999   0.00000   0.47845   0.00000  Uiso   1.00
C105   C     0.25000   0.00000   0.35515   0.00000  Uiso   1.00
C106   C     0.25000   0.00000   0.64476   0.00000  Uiso   1.00
C107   C     0.00000   0.25000   0.35515   0.00000  Uiso   1.00
C108   C     0.00000   0.25000   0.64476   0.00000  Uiso   1.00
C109   C     0.00000   0.25000   0.85515   0.00000  Uiso   1.00
C110   C    -0.00000   0.25000   0.14476   0.00000  Uiso   1.00
C111   C     0.25000   0.00000   0.85515   0.00000  Uiso   1.00
C112   C     0.25000   0.00000   0.14476   0.00000  Uiso   1.00
C113   C     0.18002   0.06998   0.25000   0.00000  Uiso   1.00
C114   C     0.28178   0.48939   0.04186   0.00000  Uiso   1.00
C115   C     0.31998   0.43002   0.75000   0.00000  Uiso   1.00
C116   C     0.43002   0.18002   0.25000   0.00000  Uiso   1.00
C117   C     0.06998   0.31998   0.75000   0.00000  Uiso   1.00
C118   C     0.31998   0.43002   0.25000   0.00000  Uiso   1.00
C119   C     0.18002   0.06998   0.75000   0.00000  Uiso   1.00
C120   C     0.06998   0.31998   0.25000   0.00000  Uiso   1.00
C121   C     0.43002   0.18002   0.75000   0.00000  Uiso   1.00
C122   C     0.18002   0.43002   0.75000   0.00000  Uiso   1.00
C123   C     0.31998   0.06998   0.25000   0.00000  Uiso   1.00
C124   C     0.43002   0.31998   0.75000   0.00000  Uiso   1.00
C125   C     0.22280   0.48040   0.95774   0.00000  Uiso   1.00
C126   C     0.06998   0.18002   0.25000   0.00000  Uiso   1.00
C127   C     0.31998   0.06998   0.75000   0.00000  Uiso   1.00
C128   C     0.18002   0.43002   0.25000   0.00000  Uiso   1.00
C129   C     0.06998   0.18002   0.75000   0.00000  Uiso   1.00
C130   C     0.43002   0.31998   0.25000   0.00000  Uiso   1.00
C131   C     0.11526   0.41162   0.25788   0.00000  Uiso   1.00
C132   C     0.38473   0.08838   0.74213   0.00000  Uiso   1.00
C133   C     0.08838   0.11526   0.25788   0.00000  Uiso   1.00
C134   C     0.41162   0.38473   0.74212   0.00000  Uiso   1.00
C135   C     0.38474   0.08838   0.25788   0.00000  Uiso   1.00
C136   C     0.01061   0.28178   0.04186   0.00000  Uiso   1.00
C137   C     0.11527   0.41162   0.74212   0.00000  Uiso   1.00
C138   C     0.41162   0.38474   0.25788   0.00000  Uiso   1.00
C139   C     0.08838   0.11527   0.74212   0.00000  Uiso   1.00
C140   C     0.11526   0.08838   0.74213   0.00000  Uiso   1.00
C141   C     0.38474   0.41162   0.25788   0.00000  Uiso   1.00
C142   C     0.08838   0.38474   0.74212   0.00000  Uiso   1.00
C143   C     0.41162   0.11526   0.25788   0.00000  Uiso   1.00
C144   C     0.38474   0.41162   0.74212   0.00000  Uiso   1.00
C145   C     0.11526   0.08838   0.25788   0.00000  Uiso   1.00
C146   C     0.41162   0.11526   0.74213   0.00000  Uiso   1.00
C147   C     0.01960   0.22280   0.95774   0.00000  Uiso   1.00
C148   C     0.08838   0.38474   0.25788   0.00000  Uiso   1.00
C149   C     0.36526   0.16162   0.75787   0.00000  Uiso   1.00
C150   C     0.13473   0.33838   0.24212   0.00000  Uiso   1.00
C151   C     0.33838   0.36526   0.75788   0.00000  Uiso   1.00
C152   C     0.16162   0.13473   0.24212   0.00000  Uiso   1.00
C153   C     0.13474   0.33838   0.75788   0.00000  Uiso   1.00
C154   C     0.36527   0.16162   0.24212   0.00000  Uiso   1.00
C155   C     0.16162   0.13474   0.75788   0.00000  Uiso   1.00
C156   C     0.33838   0.36527   0.24212   0.00000  Uiso   1.00
C157   C     0.36526   0.33838   0.24213   0.00000  Uiso   1.00
C158   C     0.46823   0.26062   0.54186   0.00000  Uiso   1.00
C159   C     0.13474   0.16162   0.75788   0.00000  Uiso   1.00
C160   C     0.33838   0.13474   0.24212   0.00000  Uiso   1.00
C161   C     0.16162   0.36526   0.75788   0.00000  Uiso   1.00
C162   C     0.13474   0.16162   0.24212   0.00000  Uiso   1.00
C163   C     0.36526   0.33838   0.75788   0.00000  Uiso   1.00
C164   C     0.16162   0.36526   0.24212   0.00000  Uiso   1.00
C165   C     0.33838   0.13474   0.75788   0.00000  Uiso   1.00
C166   C     0.09802   0.34802   0.25000   0.00000  Uiso   1.00
C167   C     0.40198   0.15198   0.75000   0.00000  Uiso   1.00
C168   C     0.15198   0.09802   0.25000   0.00000  Uiso   1.00
H169   H     0.19342   0.01606   0.09751   0.00000  Uiso   1.00
H170   H     0.04940   0.28178   0.40193   0.00000  Uiso   1.00
H171   H     0.10289   0.05759   0.49192   0.00000  Uiso   1.00
H172   H     0.08769   0.19321   0.48849   0.00000  Uiso   1.00
H173   H     0.03973   0.18841   0.49279   0.00000  Uiso   1.00
H174   H     0.09482   0.17644   0.55989   0.00000  Uiso   1.00
H175   H     0.04665   0.16594   0.56073   0.00000  Uiso   1.00
H176   H     0.05621   0.12012   0.50737   0.00000  Uiso   1.00
H177   H     0.08275   0.10989   0.54999   0.00000  Uiso   1.00
H178   H     0.10468   0.12990   0.50836   0.00000  Uiso   1.00
H179   H     0.43393   0.16855   0.51053   0.00000  Uiso   1.00
H180   H     0.48085   0.17996   0.50789   0.00000  Uiso   1.00
H181   H     0.23394   0.44342   0.59751   0.00000  Uiso   1.00
H182   H     0.43435   0.14956   0.44000   0.00000  Uiso   1.00
H183   H     0.48305   0.15722   0.43910   0.00000  Uiso   1.00
H184   H     0.49112   0.11133   0.49230   0.00000  Uiso   1.00
H185   H     0.46953   0.09194   0.45011   0.00000  Uiso   1.00
H186   H     0.44241   0.10293   0.49206   0.00000  Uiso   1.00
H187   H     0.30681   0.08764   0.48846   0.00000  Uiso   1.00
H188   H     0.31162   0.03969   0.49284   0.00000  Uiso   1.00
H189   H     0.32354   0.09487   0.55987   0.00000  Uiso   1.00
H190   H     0.33406   0.04671   0.56078   0.00000  Uiso   1.00
H191   H     0.37990   0.05623   0.50742   0.00000  Uiso   1.00
H192   H     0.21823   0.04941   0.40193   0.00000  Uiso   1.00
H193   H     0.39010   0.08281   0.55002   0.00000  Uiso   1.00
H194   H     0.37010   0.10469   0.50836   0.00000  Uiso   1.00
H195   H     0.33148   0.43388   0.51047   0.00000  Uiso   1.00
H196   H     0.32000   0.48080   0.50800   0.00000  Uiso   1.00
H197   H     0.35043   0.43458   0.43990   0.00000  Uiso   1.00
H198   H     0.34275   0.48328   0.43924   0.00000  Uiso   1.00
H199   H     0.38864   0.49112   0.49250   0.00000  Uiso   1.00
H200   H     0.40803   0.46979   0.45016   0.00000  Uiso   1.00
H201   H     0.39709   0.44242   0.49195   0.00000  Uiso   1.00
H202   H     0.12562   0.46158   0.27519   0.00000  Uiso   1.00
H203   H     0.05658   0.23395   0.59751   0.00000  Uiso   1.00
H204   H     0.37437   0.03842   0.72480   0.00000  Uiso   1.00
H205   H     0.03842   0.12562   0.27519   0.00000  Uiso   1.00
H206   H     0.46157   0.37437   0.72480   0.00000  Uiso   1.00
H207   H     0.37438   0.03842   0.27519   0.00000  Uiso   1.00
H208   H     0.12563   0.46158   0.72479   0.00000  Uiso   1.00
H209   H     0.46158   0.37438   0.27519   0.00000  Uiso   1.00
H210   H     0.03842   0.12563   0.72480   0.00000  Uiso   1.00
H211   H     0.12562   0.03842   0.72481   0.00000  Uiso   1.00
H212   H     0.37437   0.46158   0.27521   0.00000  Uiso   1.00
H213   H     0.03842   0.37437   0.72481   0.00000  Uiso   1.00
H214   H     0.45059   0.21824   0.40194   0.00000  Uiso   1.00
H215   H     0.46158   0.12563   0.27521   0.00000  Uiso   1.00
H216   H     0.37437   0.46158   0.72481   0.00000  Uiso   1.00
H217   H     0.12563   0.03842   0.27521   0.00000  Uiso   1.00
H218   H     0.46158   0.12562   0.72482   0.00000  Uiso   1.00
H219   H     0.03842   0.37437   0.27521   0.00000  Uiso   1.00
H220   H     0.37562   0.21158   0.77518   0.00000  Uiso   1.00
H221   H     0.12437   0.28843   0.22480   0.00000  Uiso   1.00
H222   H     0.28842   0.37562   0.77519   0.00000  Uiso   1.00
H223   H     0.21157   0.12437   0.22480   0.00000  Uiso   1.00
H224   H     0.12438   0.28842   0.77519   0.00000  Uiso   1.00
H225   H     0.26605   0.05658   0.59751   0.00000  Uiso   1.00
H226   H     0.37563   0.21158   0.22480   0.00000  Uiso   1.00
H227   H     0.21158   0.12438   0.77519   0.00000  Uiso   1.00
H228   H     0.28842   0.37563   0.22480   0.00000  Uiso   1.00
H229   H     0.37562   0.28842   0.22481   0.00000  Uiso   1.00
H230   H     0.12437   0.21158   0.77521   0.00000  Uiso   1.00
H231   H     0.28842   0.12437   0.22481   0.00000  Uiso   1.00
H232   H     0.21158   0.37563   0.77521   0.00000  Uiso   1.00
H233   H     0.12437   0.21158   0.22481   0.00000  Uiso   1.00
H234   H     0.37563   0.28842   0.77521   0.00000  Uiso   1.00
H235   H     0.21158   0.37563   0.22481   0.00000  Uiso   1.00
H236   H     0.28176   0.45060   0.40194   0.00000  Uiso   1.00
H237   H     0.28842   0.12437   0.77520   0.00000  Uiso   1.00
H238   H     0.16237   0.05683   0.98846   0.00000  Uiso   1.00
H239   H     0.21032   0.06164   0.99285   0.00000  Uiso   1.00
H240   H     0.15513   0.07355   0.05987   0.00000  Uiso   1.00
H241   H     0.29940   0.03177   0.90194   0.00000  Uiso   1.00
H242   H     0.20329   0.08407   0.06079   0.00000  Uiso   1.00
H243   H     0.19378   0.12992   0.00743   0.00000  Uiso   1.00
H244   H     0.16719   0.14011   0.05003   0.00000  Uiso   1.00
H245   H     0.14531   0.12012   0.00836   0.00000  Uiso   1.00
H246   H     0.31613   0.08149   0.01046   0.00000  Uiso   1.00
H247   H     0.26922   0.07000   0.00801   0.00000  Uiso   1.00
H248   H     0.31539   0.10044   0.93988   0.00000  Uiso   1.00
H249   H     0.26669   0.09275   0.93926   0.00000  Uiso   1.00
H250   H     0.25889   0.13865   0.99253   0.00000  Uiso   1.00
H251   H     0.28018   0.15803   0.95016   0.00000  Uiso   1.00
H252   H     0.48394   0.19342   0.09751   0.00000  Uiso   1.00
H253   H     0.30759   0.14710   0.99192   0.00000  Uiso   1.00
H254   H     0.44317   0.16237   0.98847   0.00000  Uiso   1.00
H255   H     0.43836   0.21032   0.99284   0.00000  Uiso   1.00
H256   H     0.42644   0.15515   0.05988   0.00000  Uiso   1.00
H257   H     0.41592   0.20332   0.06077   0.00000  Uiso   1.00
H258   H     0.37008   0.19379   0.00741   0.00000  Uiso   1.00
H259   H     0.35988   0.16722   0.05002   0.00000  Uiso   1.00
H260   H     0.37988   0.14532   0.00837   0.00000  Uiso   1.00
H261   H     0.41851   0.31612   0.01046   0.00000  Uiso   1.00
H262   H     0.43000   0.26921   0.00800   0.00000  Uiso   1.00
H263   H     0.46823   0.29940   0.90194   0.00000  Uiso   1.00
H264   H     0.39957   0.31540   0.93989   0.00000  Uiso   1.00
H265   H     0.40725   0.26670   0.93925   0.00000  Uiso   1.00
H266   H     0.36135   0.25890   0.99252   0.00000  Uiso   1.00
H267   H     0.34196   0.28019   0.95016   0.00000  Uiso   1.00
H268   H     0.35290   0.30759   0.99192   0.00000  Uiso   1.00
H269   H     0.33763   0.44318   0.98846   0.00000  Uiso   1.00
H270   H     0.28968   0.43836   0.99285   0.00000  Uiso   1.00
H271   H     0.34487   0.42645   0.05987   0.00000  Uiso   1.00
H272   H     0.29671   0.41593   0.06078   0.00000  Uiso   1.00
H273   H     0.30622   0.37008   0.00743   0.00000  Uiso   1.00
H274   H     0.30658   0.48394   0.09751   0.00000  Uiso   1.00
H275   H     0.33281   0.35989   0.05002   0.00000  Uiso   1.00
H276   H     0.35468   0.37989   0.00836   0.00000  Uiso   1.00
H277   H     0.18387   0.41851   0.01046   0.00000  Uiso   1.00
H278   H     0.23078   0.43000   0.00801   0.00000  Uiso   1.00
H279   H     0.18460   0.39957   0.93989   0.00000  Uiso   1.00
H280   H     0.23331   0.40725   0.93926   0.00000  Uiso   1.00
H281   H     0.24111   0.36135   0.99253   0.00000  Uiso   1.00
H282   H     0.21982   0.34197   0.95016   0.00000  Uiso   1.00
H283   H     0.19241   0.35290   0.99193   0.00000  Uiso   1.00
H284   H     0.05682   0.33762   0.98846   0.00000  Uiso   1.00
H285   H     0.20059   0.46823   0.90194   0.00000  Uiso   1.00
H286   H     0.06164   0.28968   0.99286   0.00000  Uiso   1.00
H287   H     0.07355   0.34488   0.05986   0.00000  Uiso   1.00
H288   H     0.08407   0.29671   0.06079   0.00000  Uiso   1.00
H289   H     0.12992   0.30622   0.00744   0.00000  Uiso   1.00
H290   H     0.14011   0.33282   0.05002   0.00000  Uiso   1.00
H291   H     0.12011   0.35468   0.00836   0.00000  Uiso   1.00
H292   H     0.08149   0.18387   0.01046   0.00000  Uiso   1.00
H293   H     0.07000   0.23078   0.00802   0.00000  Uiso   1.00
H294   H     0.10043   0.18462   0.93988   0.00000  Uiso   1.00
H295   H     0.09275   0.23332   0.93926   0.00000  Uiso   1.00
H296   H     0.01606   0.30658   0.09751   0.00000  Uiso   1.00
H297   H     0.13865   0.24111   0.99254   0.00000  Uiso   1.00
H298   H     0.15803   0.21983   0.95017   0.00000  Uiso   1.00
H299   H     0.14710   0.19241   0.99192   0.00000  Uiso   1.00
H300   H     0.41241   0.30685   0.48845   0.00000  Uiso   1.00
H301   H     0.46035   0.31167   0.49289   0.00000  Uiso   1.00
H302   H     0.40512   0.32355   0.55987   0.00000  Uiso   1.00
H303   H     0.45328   0.33408   0.56081   0.00000  Uiso   1.00
H304   H     0.44377   0.37994   0.50747   0.00000  Uiso   1.00
H305   H     0.41717   0.39012   0.55005   0.00000  Uiso   1.00
H306   H     0.39531   0.37012   0.50838   0.00000  Uiso   1.00
H307   H     0.03177   0.20060   0.90194   0.00000  Uiso   1.00
H308   H     0.06616   0.33153   0.51041   0.00000  Uiso   1.00
H309   H     0.01926   0.31998   0.50809   0.00000  Uiso   1.00
H310   H     0.06522   0.35043   0.43981   0.00000  Uiso   1.00
H311   H     0.01652   0.34274   0.43936   0.00000  Uiso   1.00
H312   H     0.00890   0.38864   0.49267   0.00000  Uiso   1.00
H313   H     0.03000   0.40802   0.45020   0.00000  Uiso   1.00
H314   H     0.05759   0.39713   0.49183   0.00000  Uiso   1.00
H315   H     0.19317   0.41238   0.48846   0.00000  Uiso   1.00
H316   H     0.18834   0.46033   0.49288   0.00000  Uiso   1.00
H317   H     0.17646   0.40509   0.55985   0.00000  Uiso   1.00
H318   H     0.44342   0.26606   0.59751   0.00000  Uiso   1.00
H319   H     0.16593   0.45325   0.56082   0.00000  Uiso   1.00
H320   H     0.12007   0.44378   0.50749   0.00000  Uiso   1.00
H321   H     0.10990   0.41714   0.55005   0.00000  Uiso   1.00
H322   H     0.12988   0.39531   0.50834   0.00000  Uiso   1.00
H323   H     0.16850   0.06614   0.51045   0.00000  Uiso   1.00
H324   H     0.17999   0.01923   0.50801   0.00000  Uiso   1.00
H325   H     0.14956   0.06540   0.43988   0.00000  Uiso   1.00
H326   H     0.15724   0.01669   0.43925   0.00000  Uiso   1.00
H327   H     0.11134   0.00889   0.49252   0.00000  Uiso   1.00
H328   H     0.09196   0.03018   0.45015   0.00000  Uiso   1.00
O329   O     0.25000   0.00000   0.25000   0.00000  Uiso   1.00
O330   O     0.25000   0.46964   0.66317   0.00000  Uiso   1.00
O331   O     0.30318   0.14562   0.76701   0.00000  Uiso   1.00
O332   O     0.46964   0.25000   0.33683   0.00000  Uiso   1.00
O333   O     0.03036   0.25000   0.66317   0.00000  Uiso   1.00
O334   O     0.00000   0.21964   0.83683   0.00000  Uiso   1.00
O335   O     0.00000   0.28036   0.16317   0.00000  Uiso   1.00
O336   O     0.28036   0.00000   0.83683   0.00000  Uiso   1.00
O337   O     0.21964   0.00000   0.16317   0.00000  Uiso   1.00
O338   O    -0.00000   0.28036   0.83683   0.00000  Uiso   1.00
O339   O     0.00000   0.21964   0.16317   0.00000  Uiso   1.00
O340   O     0.21964   0.00000   0.83683   0.00000  Uiso   1.00
O341   O     0.25000   0.00000   0.75000   0.00000  Uiso   1.00
O342   O     0.28036   0.00000   0.16317   0.00000  Uiso   1.00
O343   O     0.20725   0.07307   0.27282   0.00000  Uiso   1.00
O344   O     0.29274   0.42693   0.72718   0.00000  Uiso   1.00
O345   O     0.42693   0.20726   0.27282   0.00000  Uiso   1.00
O346   O     0.07307   0.29275   0.72718   0.00000  Uiso   1.00
O347   O     0.29274   0.42693   0.27282   0.00000  Uiso   1.00
O348   O     0.20725   0.07307   0.72718   0.00000  Uiso   1.00
O349   O     0.07307   0.29275   0.27282   0.00000  Uiso   1.00
O350   O     0.42693   0.20726   0.72718   0.00000  Uiso   1.00
O351   O     0.20725   0.42693   0.72718   0.00000  Uiso   1.00
O352   O     0.00000   0.25000   0.25000   0.00000  Uiso   1.00
O353   O     0.29274   0.07307   0.27282   0.00000  Uiso   1.00
O354   O     0.42693   0.29275   0.72718   0.00000  Uiso   1.00
O355   O     0.07307   0.20726   0.27282   0.00000  Uiso   1.00
O356   O     0.29274   0.07307   0.72718   0.00000  Uiso   1.00
O357   O     0.20725   0.42693   0.27282   0.00000  Uiso   1.00
O358   O     0.07307   0.20726   0.72718   0.00000  Uiso   1.00
O359   O     0.42693   0.29275   0.27282   0.00000  Uiso   1.00
O360   O     0.45725   0.32307   0.77282   0.00000  Uiso   1.00
O361   O     0.04274   0.17693   0.22718   0.00000  Uiso   1.00
O362   O     0.17693   0.45726   0.77282   0.00000  Uiso   1.00
O363   O     0.00000   0.25000   0.75000   0.00000  Uiso   1.00
O364   O     0.32307   0.04275   0.22718   0.00000  Uiso   1.00
O365   O     0.04274   0.17693   0.77282   0.00000  Uiso   1.00
O366   O     0.45725   0.32307   0.22718   0.00000  Uiso   1.00
O367   O     0.32307   0.04275   0.77282   0.00000  Uiso   1.00
O368   O     0.17693   0.45726   0.22718   0.00000  Uiso   1.00
O369   O     0.45725   0.17693   0.22718   0.00000  Uiso   1.00
O370   O     0.04274   0.32307   0.77282   0.00000  Uiso   1.00
O371   O     0.17693   0.04275   0.22718   0.00000  Uiso   1.00
O372   O     0.32307   0.45726   0.77282   0.00000  Uiso   1.00
O373   O     0.04274   0.32307   0.22718   0.00000  Uiso   1.00
O374   O     0.25000   0.46964   0.33683   0.00000  Uiso   1.00
O375   O     0.45725   0.17693   0.77282   0.00000  Uiso   1.00
O376   O     0.32307   0.45726   0.22718   0.00000  Uiso   1.00
O377   O     0.17693   0.04275   0.77282   0.00000  Uiso   1.00
O378   O     0.18547   0.01853   0.02354   0.00000  Uiso   1.00
O379   O     0.30581   0.03750   0.97598   0.00000  Uiso   1.00
O380   O     0.48147   0.18547   0.02354   0.00000  Uiso   1.00
O381   O     0.46250   0.30581   0.97598   0.00000  Uiso   1.00
O382   O     0.31452   0.48147   0.02354   0.00000  Uiso   1.00
O383   O     0.19419   0.46251   0.97598   0.00000  Uiso   1.00
O384   O     0.01853   0.31452   0.02354   0.00000  Uiso   1.00
O385   O     0.25000   0.03036   0.66317   0.00000  Uiso   1.00
O386   O     0.03749   0.19419   0.97598   0.00000  Uiso   1.00
O387   O     0.43548   0.26855   0.52354   0.00000  Uiso   1.00
O388   O     0.05581   0.28751   0.47597   0.00000  Uiso   1.00
O389   O     0.23147   0.43548   0.52354   0.00000  Uiso   1.00
O390   O     0.21250   0.05581   0.47598   0.00000  Uiso   1.00
O391   O     0.06454   0.23150   0.52354   0.00000  Uiso   1.00
O392   O     0.44420   0.21252   0.47599   0.00000  Uiso   1.00
O393   O     0.26851   0.06453   0.52354   0.00000  Uiso   1.00
O394   O     0.28749   0.44420   0.47598   0.00000  Uiso   1.00
O395   O     0.10438   0.44682   0.26701   0.00000  Uiso   1.00
O396   O     0.03036   0.25000   0.33683   0.00000  Uiso   1.00
O397   O     0.39562   0.05318   0.73300   0.00000  Uiso   1.00
O398   O     0.05318   0.10438   0.26701   0.00000  Uiso   1.00
O399   O     0.44681   0.39562   0.73299   0.00000  Uiso   1.00
O400   O     0.39562   0.05318   0.26701   0.00000  Uiso   1.00
O401   O     0.10438   0.44682   0.73299   0.00000  Uiso   1.00
O402   O     0.44682   0.39562   0.26700   0.00000  Uiso   1.00
O403   O     0.05318   0.10438   0.73299   0.00000  Uiso   1.00
O404   O     0.10438   0.05319   0.73300   0.00000  Uiso   1.00
O405   O     0.39562   0.44682   0.26701   0.00000  Uiso   1.00
O406   O     0.05319   0.39562   0.73300   0.00000  Uiso   1.00
O407   O     0.46964   0.25000   0.66317   0.00000  Uiso   1.00
O408   O     0.44682   0.10438   0.26702   0.00000  Uiso   1.00
O409   O     0.39562   0.44681   0.73300   0.00000  Uiso   1.00
O410   O     0.10438   0.05318   0.26702   0.00000  Uiso   1.00
O411   O     0.44682   0.10438   0.73301   0.00000  Uiso   1.00
O412   O     0.05318   0.39562   0.26702   0.00000  Uiso   1.00
O413   O     0.35438   0.19682   0.76700   0.00000  Uiso   1.00
O414   O     0.14562   0.30319   0.23299   0.00000  Uiso   1.00
O415   O     0.30318   0.35438   0.76701   0.00000  Uiso   1.00
O416   O     0.19681   0.14562   0.23299   0.00000  Uiso   1.00
O417   O     0.14562   0.30318   0.76701   0.00000  Uiso   1.00
O418   O     0.25000   0.03036   0.33683   0.00000  Uiso   1.00
O419   O     0.35438   0.19681   0.23299   0.00000  Uiso   1.00
O420   O     0.19682   0.14562   0.76700   0.00000  Uiso   1.00
O421   O     0.30318   0.35438   0.23299   0.00000  Uiso   1.00
O422   O     0.35438   0.30319   0.23300   0.00000  Uiso   1.00
O423   O     0.14562   0.19682   0.76701   0.00000  Uiso   1.00
O424   O     0.30319   0.14562   0.23299   0.00000  Uiso   1.00
O425   O     0.19682   0.35438   0.76702   0.00000  Uiso   1.00
O426   O     0.14562   0.19681   0.23300   0.00000  Uiso   1.00
O427   O     0.35438   0.30318   0.76702   0.00000  Uiso   1.00
O428   O     0.19681   0.35438   0.23300   0.00000  Uiso   1.00
Zn429  Zn    0.20660   0.00000   0.21760   0.00000  Uiso   1.00
Zn430  Zn    0.04340   0.25000   0.28240   0.00000  Uiso   1.00
Zn431  Zn    0.25000   0.45660   0.71760   0.00000  Uiso   1.00
Zn432  Zn    0.25000   0.04340   0.28240   0.00000  Uiso   1.00
Zn433  Zn    0.04340   0.25000   0.71760   0.00000  Uiso   1.00
Zn434  Zn    0.45660   0.25000   0.28240   0.00000  Uiso   1.00
Zn435  Zn    0.25000   0.04340   0.71760   0.00000  Uiso   1.00
Zn436  Zn    0.25000   0.45660   0.28240   0.00000  Uiso   1.00
Zn437  Zn    0.29340   0.00000   0.78240   0.00000  Uiso   1.00
Zn438  Zn    0.00000   0.20660   0.21760   0.00000  Uiso   1.00
Zn439  Zn    0.00000   0.29340   0.78240   0.00000  Uiso   1.00
Zn440  Zn    0.29340   0.00000   0.21760   0.00000  Uiso   1.00
Zn441  Zn    0.20660   0.00000   0.78240   0.00000  Uiso   1.00
Zn442  Zn    0.00000   0.29340   0.21760   0.00000  Uiso   1.00
Zn443  Zn    0.00000   0.20660   0.78240   0.00000  Uiso   1.00
Zn444  Zn    0.45660   0.25000   0.71760   0.00000  Uiso   1.00
C445   C     0.71822   0.01061   0.04186   0.00000  Uiso   1.00
C446   C     0.52720   0.26961   0.45774   0.00000  Uiso   1.00
C447   C     0.84802   0.40198   0.75000   0.00000  Uiso   1.00
C448   C     0.90198   0.15198   0.25000   0.00000  Uiso   1.00
C449   C     0.59802   0.34802   0.75000   0.00000  Uiso   1.00
C450   C     0.84802   0.40198   0.25000   0.00000  Uiso   1.00
C451   C     0.65198   0.09802   0.75000   0.00000  Uiso   1.00
C452   C     0.59802   0.15198   0.75000   0.00000  Uiso   1.00
C453   C     0.90198   0.34802   0.25000   0.00000  Uiso   1.00
C454   C     0.65198   0.40198   0.75000   0.00000  Uiso   1.00
C455   C     0.84802   0.09802   0.25000   0.00000  Uiso   1.00
C456   C     0.90198   0.34802   0.75000   0.00000  Uiso   1.00
C457   C     0.73938   0.46822   0.54186   0.00000  Uiso   1.00
C458   C     0.59802   0.15198   0.25000   0.00000  Uiso   1.00
C459   C     0.84802   0.09802   0.75000   0.00000  Uiso   1.00
C460   C     0.65198   0.40198   0.25000   0.00000  Uiso   1.00
C461   C     0.75000   0.00000   0.10241   0.00000  Uiso   1.00
C462   C     0.75000   0.00000   0.89733   0.00000  Uiso   1.00
C463   C     0.50000   0.25000   0.10241   0.00000  Uiso   1.00
C464   C     0.50000   0.25000   0.89733   0.00000  Uiso   1.00
C465   C     0.50000   0.25000   0.60240   0.00000  Uiso   1.00
C466   C     0.50000   0.25000   0.39733   0.00000  Uiso   1.00
C467   C     0.75000   0.00000   0.60241   0.00000  Uiso   1.00
C468   C     0.73039   0.02720   0.45774   0.00000  Uiso   1.00
C469   C     0.75000   0.00000   0.39733   0.00000  Uiso   1.00
C470   C     0.68528   0.05479   0.00942   0.00000  Uiso   1.00
C471   C     0.67872   0.08252   0.04199   0.00000  Uiso   1.00
C472   C     0.67079   0.12050   0.02583   0.00000  Uiso   1.00
C473   C     0.79447   0.07185   0.99040   0.00000  Uiso   1.00
C474   C     0.79026   0.10015   0.95792   0.00000  Uiso   1.00
C475   C     0.78383   0.13833   0.97427   0.00000  Uiso   1.00
C476   C     0.94521   0.18528   0.00942   0.00000  Uiso   1.00
C477   C     0.91747   0.17874   0.04198   0.00000  Uiso   1.00
C478   C     0.87950   0.17080   0.02582   0.00000  Uiso   1.00
C479   C     0.53179   0.23940   0.54186   0.00000  Uiso   1.00
C480   C     0.92815   0.29447   0.99040   0.00000  Uiso   1.00
C481   C     0.89985   0.29027   0.95792   0.00000  Uiso   1.00
C482   C     0.86167   0.28384   0.97426   0.00000  Uiso   1.00
C483   C     0.81472   0.44521   0.00942   0.00000  Uiso   1.00
C484   C     0.82128   0.41748   0.04199   0.00000  Uiso   1.00
C485   C     0.82921   0.37950   0.02583   0.00000  Uiso   1.00
C486   C     0.70553   0.42815   0.99040   0.00000  Uiso   1.00
C487   C     0.70974   0.39985   0.95792   0.00000  Uiso   1.00
C488   C     0.71617   0.36167   0.97427   0.00000  Uiso   1.00
C489   C     0.55479   0.31472   0.00942   0.00000  Uiso   1.00
C490   C     0.97280   0.23041   0.45775   0.00000  Uiso   1.00
C491   C     0.58252   0.32128   0.04199   0.00000  Uiso   1.00
C492   C     0.62050   0.32922   0.02583   0.00000  Uiso   1.00
C493   C     0.57185   0.20553   0.99040   0.00000  Uiso   1.00
C494   C     0.60015   0.20974   0.95792   0.00000  Uiso   1.00
C495   C     0.63833   0.21617   0.97427   0.00000  Uiso   1.00
C496   C     0.93530   0.30481   0.50943   0.00000  Uiso   1.00
C497   C     0.92872   0.33253   0.54200   0.00000  Uiso   1.00
C498   C     0.92078   0.37051   0.52585   0.00000  Uiso   1.00
C499   C     0.54447   0.32185   0.49040   0.00000  Uiso   1.00
C500   C     0.54015   0.35015   0.45794   0.00000  Uiso   1.00
C501   C     0.76060   0.03178   0.54186   0.00000  Uiso   1.00
C502   C     0.53376   0.38833   0.47429   0.00000  Uiso   1.00
C503   C     0.69520   0.43528   0.50943   0.00000  Uiso   1.00
C504   C     0.66748   0.42869   0.54200   0.00000  Uiso   1.00
C505   C     0.62950   0.42077   0.52585   0.00000  Uiso   1.00
C506   C     0.67815   0.04448   0.49039   0.00000  Uiso   1.00
C507   C     0.64985   0.04027   0.45792   0.00000  Uiso   1.00
C508   C     0.61166   0.03383   0.47426   0.00000  Uiso   1.00
C509   C     0.56474   0.19524   0.50941   0.00000  Uiso   1.00
C510   C     0.57125   0.16749   0.54197   0.00000  Uiso   1.00
C511   C     0.57919   0.12952   0.52580   0.00000  Uiso   1.00
C512   C     0.76959   0.47280   0.45775   0.00000  Uiso   1.00
C513   C     0.95553   0.17816   0.49038   0.00000  Uiso   1.00
C514   C     0.95957   0.14984   0.45790   0.00000  Uiso   1.00
C515   C     0.96606   0.11166   0.47422   0.00000  Uiso   1.00
C516   C     0.80477   0.06472   0.50942   0.00000  Uiso   1.00
C517   C     0.83251   0.07128   0.54198   0.00000  Uiso   1.00
C518   C     0.87048   0.07922   0.52582   0.00000  Uiso   1.00
C519   C     0.82184   0.45553   0.49040   0.00000  Uiso   1.00
C520   C     0.85014   0.45972   0.45792   0.00000  Uiso   1.00
C521   C     0.88832   0.46617   0.47427   0.00000  Uiso   1.00
C522   C     0.71827   0.00917   0.08212   0.00000  Uiso   1.00
C523   C     0.77775   0.01791   0.91750   0.00000  Uiso   1.00
C524   C     0.99083   0.21827   0.08212   0.00000  Uiso   1.00
C525   C     0.77720   0.01960   0.95774   0.00000  Uiso   1.00
C526   C     0.98209   0.27775   0.91750   0.00000  Uiso   1.00
C527   C     0.78173   0.49083   0.08212   0.00000  Uiso   1.00
C528   C     0.72225   0.48209   0.91750   0.00000  Uiso   1.00
C529   C     0.50917   0.28173   0.08212   0.00000  Uiso   1.00
C530   C     0.51791   0.22225   0.91750   0.00000  Uiso   1.00
C531   C     0.96827   0.25918   0.58212   0.00000  Uiso   1.00
C532   C     0.52775   0.26792   0.41749   0.00000  Uiso   1.00
C533   C     0.74082   0.46827   0.58212   0.00000  Uiso   1.00
C534   C     0.73208   0.02775   0.41750   0.00000  Uiso   1.00
C535   C     0.53174   0.24083   0.58212   0.00000  Uiso   1.00
C536   C     0.98939   0.21822   0.04186   0.00000  Uiso   1.00
C537   C     0.97225   0.23209   0.41750   0.00000  Uiso   1.00
C538   C     0.75916   0.03174   0.58212   0.00000  Uiso   1.00
C539   C     0.76791   0.47225   0.41750   0.00000  Uiso   1.00
C540   C     0.75000   0.00000   0.02118   0.00000  Uiso   1.00
C541   C     0.75000   0.00000   0.97845   0.00000  Uiso   1.00
C542   C     0.50000   0.25000   0.02118   0.00000  Uiso   1.00
C543   C     0.50000   0.25000   0.97845   0.00000  Uiso   1.00
C544   C     0.50001   0.25001   0.52118   0.00000  Uiso   1.00
C545   C     0.50000   0.25001   0.47845   0.00000  Uiso   1.00
C546   C     0.74999   0.00000   0.52118   0.00000  Uiso   1.00
C547   C     0.98040   0.27720   0.95774   0.00000  Uiso   1.00
C548   C     0.74999   0.00000   0.47845   0.00000  Uiso   1.00
C549   C     0.75000   0.00000   0.35515   0.00000  Uiso   1.00
C550   C     0.75000   0.00000   0.64476   0.00000  Uiso   1.00
C551   C     0.50000   0.25000   0.35515   0.00000  Uiso   1.00
C552   C     0.50000   0.25000   0.64476   0.00000  Uiso   1.00
C553   C     0.50000   0.25000   0.85515   0.00000  Uiso   1.00
C554   C     0.50000   0.25000   0.14476   0.00000  Uiso   1.00
C555   C     0.75000   0.00000   0.85515   0.00000  Uiso   1.00
C556   C     0.75000   0.00000   0.14476   0.00000  Uiso   1.00
C557   C     0.68002   0.06998   0.25000   0.00000  Uiso   1.00
C558   C     0.78178   0.48939   0.04186   0.00000  Uiso   1.00
C559   C     0.81998   0.43002   0.75000   0.00000  Uiso   1.00
C560   C     0.93002   0.18002   0.25000   0.00000  Uiso   1.00
C561   C     0.56998   0.31998   0.75000   0.00000  Uiso   1.00
C562   C     0.81998   0.43002   0.25000   0.00000  Uiso   1.00
C563   C     0.68002   0.06998   0.75000   0.00000  Uiso   1.00
C564   C     0.56998   0.31998   0.25000   0.00000  Uiso   1.00
C565   C     0.93002   0.18002   0.75000   0.00000  Uiso   1.00
C566   C     0.68002   0.43002   0.75000   0.00000  Uiso   1.00
C567   C     0.81998   0.06998   0.25000   0.00000  Uiso   1.00
C568   C     0.93002   0.31998   0.75000   0.00000  Uiso   1.00
C569   C     0.72280   0.48040   0.95774   0.00000  Uiso   1.00
C570   C     0.56998   0.18002   0.25000   0.00000  Uiso   1.00
C571   C     0.81998   0.06998   0.75000   0.00000  Uiso   1.00
C572   C     0.68002   0.43002   0.25000   0.00000  Uiso   1.00
C573   C     0.56998   0.18002   0.75000   0.00000  Uiso   1.00
C574   C     0.93002   0.31998   0.25000   0.00000  Uiso   1.00
C575   C     0.61526   0.41162   0.25788   0.00000  Uiso   1.00
C576   C     0.88473   0.08838   0.74213   0.00000  Uiso   1.00
C577   C     0.58838   0.11526   0.25788   0.00000  Uiso   1.00
C578   C     0.91162   0.38473   0.74212   0.00000  Uiso   1.00
C579   C     0.88474   0.08838   0.25788   0.00000  Uiso   1.00
C580   C     0.51061   0.28178   0.04186   0.00000  Uiso   1.00
C581   C     0.61527   0.41162   0.74212   0.00000  Uiso   1.00
C582   C     0.91162   0.38474   0.25788   0.00000  Uiso   1.00
C583   C     0.58838   0.11527   0.74212   0.00000  Uiso   1.00
C584   C     0.61526   0.08838   0.74213   0.00000  Uiso   1.00
C585   C     0.88474   0.41162   0.25788   0.00000  Uiso   1.00
C586   C     0.58838   0.38474   0.74212   0.00000  Uiso   1.00
C587   C     0.91162   0.11526   0.25788   0.00000  Uiso   1.00
C588   C     0.88474   0.41162   0.74212   0.00000  Uiso   1.00
C589   C     0.61526   0.08838   0.25788   0.00000  Uiso   1.00
C590   C     0.91162   0.11526   0.74213   0.00000  Uiso   1.00
C591   C     0.51960   0.22280   0.95774   0.00000  Uiso   1.00
C592   C     0.58838   0.38474   0.25788   0.00000  Uiso   1.00
C593   C     0.86526   0.16162   0.75787   0.00000  Uiso   1.00
C594   C     0.63473   0.33838   0.24212   0.00000  Uiso   1.00
C595   C     0.83838   0.36526   0.75788   0.00000  Uiso   1.00
C596   C     0.66162   0.13473   0.24212   0.00000  Uiso   1.00
C597   C     0.63474   0.33838   0.75788   0.00000  Uiso   1.00
C598   C     0.86527   0.16162   0.24212   0.00000  Uiso   1.00
C599   C     0.66162   0.13474   0.75788   0.00000  Uiso   1.00
C600   C     0.83838   0.36527   0.24212   0.00000  Uiso   1.00
C601   C     0.86526   0.33838   0.24213   0.00000  Uiso   1.00
C602   C     0.96823   0.26062   0.54186   0.00000  Uiso   1.00
C603   C     0.63474   0.16162   0.75788   0.00000  Uiso   1.00
C604   C     0.83838   0.13474   0.24212   0.00000  Uiso   1.00
C605   C     0.66162   0.36526   0.75788   0.00000  Uiso   1.00
C606   C     0.63474   0.16162   0.24212   0.00000  Uiso   1.00
C607   C     0.86526   0.33838   0.75788   0.00000  Uiso   1.00
C608   C     0.66162   0.36526   0.24212   0.00000  Uiso   1.00
C609   C     0.83838   0.13474   0.75788   0.00000  Uiso   1.00
C610   C     0.59802   0.34802   0.25000   0.00000  Uiso   1.00
C611   C     0.90198   0.15198   0.75000   0.00000  Uiso   1.00
C612   C     0.65198   0.09802   0.25000   0.00000  Uiso   1.00
H613   H     0.69342   0.01606   0.09751   0.00000  Uiso   1.00
H614   H     0.54940   0.28178   0.40193   0.00000  Uiso   1.00
H615   H     0.60289   0.05759   0.49192   0.00000  Uiso   1.00
H616   H     0.58769   0.19321   0.48849   0.00000  Uiso   1.00
H617   H     0.53973   0.18841   0.49279   0.00000  Uiso   1.00
H618   H     0.59482   0.17644   0.55989   0.00000  Uiso   1.00
H619   H     0.54665   0.16594   0.56073   0.00000  Uiso   1.00
H620   H     0.55621   0.12012   0.50737   0.00000  Uiso   1.00
H621   H     0.58275   0.10989   0.54999   0.00000  Uiso   1.00
H622   H     0.60468   0.12990   0.50836   0.00000  Uiso   1.00
H623   H     0.93393   0.16855   0.51053   0.00000  Uiso   1.00
H624   H     0.98085   0.17996   0.50789   0.00000  Uiso   1.00
H625   H     0.73394   0.44342   0.59751   0.00000  Uiso   1.00
H626   H     0.93435   0.14956   0.44000   0.00000  Uiso   1.00
H627   H     0.98305   0.15722   0.43910   0.00000  Uiso   1.00
H628   H     0.99112   0.11133   0.49230   0.00000  Uiso   1.00
H629   H     0.96953   0.09194   0.45011   0.00000  Uiso   1.00
H630   H     0.94241   0.10293   0.49206   0.00000  Uiso   1.00
H631   H     0.80681   0.08764   0.48846   0.00000  Uiso   1.00
H632   H     0.81162   0.03969   0.49284   0.00000  Uiso   1.00
H633   H     0.82354   0.09487   0.55987   0.00000  Uiso   1.00
H634   H     0.83406   0.04671   0.56078   0.00000  Uiso   1.00
H635   H     0.87990   0.05623   0.50742   0.00000  Uiso   1.00
H636   H     0.71823   0.04941   0.40193   0.00000  Uiso   1.00
H637   H     0.89010   0.08281   0.55002   0.00000  Uiso   1.00
H638   H     0.87010   0.10469   0.50836   0.00000  Uiso   1.00
H639   H     0.83148   0.43388   0.51047   0.00000  Uiso   1.00
H640   H     0.82000   0.48080   0.50800   0.00000  Uiso   1.00
H641   H     0.85043   0.43458   0.43990   0.00000  Uiso   1.00
H642   H     0.84275   0.48328   0.43924   0.00000  Uiso   1.00
H643   H     0.88864   0.49112   0.49250   0.00000  Uiso   1.00
H644   H     0.90803   0.46979   0.45016   0.00000  Uiso   1.00
H645   H     0.89709   0.44242   0.49195   0.00000  Uiso   1.00
H646   H     0.62562   0.46158   0.27519   0.00000  Uiso   1.00
H647   H     0.55658   0.23395   0.59751   0.00000  Uiso   1.00
H648   H     0.87437   0.03842   0.72480   0.00000  Uiso   1.00
H649   H     0.53842   0.12562   0.27519   0.00000  Uiso   1.00
H650   H     0.96157   0.37437   0.72480   0.00000  Uiso   1.00
H651   H     0.87438   0.03842   0.27519   0.00000  Uiso   1.00
H652   H     0.62563   0.46158   0.72479   0.00000  Uiso   1.00
H653   H     0.96158   0.37438   0.27519   0.00000  Uiso   1.00
H654   H     0.53842   0.12563   0.72480   0.00000  Uiso   1.00
H655   H     0.62562   0.03842   0.72481   0.00000  Uiso   1.00
H656   H     0.87437   0.46158   0.27521   0.00000  Uiso   1.00
H657   H     0.53842   0.37437   0.72481   0.00000  Uiso   1.00
H658   H     0.95059   0.21824   0.40194   0.00000  Uiso   1.00
H659   H     0.96158   0.12563   0.27521   0.00000  Uiso   1.00
H660   H     0.87437   0.46158   0.72481   0.00000  Uiso   1.00
H661   H     0.62563   0.03842   0.27521   0.00000  Uiso   1.00
H662   H     0.96158   0.12562   0.72482   0.00000  Uiso   1.00
H663   H     0.53842   0.37437   0.27521   0.00000  Uiso   1.00
H664   H     0.87562   0.21158   0.77518   0.00000  Uiso   1.00
H665   H     0.62437   0.28843   0.22480   0.00000  Uiso   1.00
H666   H     0.78842   0.37562   0.77519   0.00000  Uiso   1.00
H667   H     0.71157   0.12437   0.22480   0.00000  Uiso   1.00
H668   H     0.62438   0.28842   0.77519   0.00000  Uiso   1.00
H669   H     0.76605   0.05658   0.59751   0.00000  Uiso   1.00
H670   H     0.87563   0.21158   0.22480   0.00000  Uiso   1.00
H671   H     0.71158   0.12438   0.77519   0.00000  Uiso   1.00
H672   H     0.78842   0.37563   0.22480   0.00000  Uiso   1.00
H673   H     0.87562   0.28842   0.22481   0.00000  Uiso   1.00
H674   H     0.62437   0.21158   0.77521   0.00000  Uiso   1.00
H675   H     0.78842   0.12437   0.22481   0.00000  Uiso   1.00
H676   H     0.71158   0.37563   0.77521   0.00000  Uiso   1.00
H677   H     0.62437   0.21158   0.22481   0.00000  Uiso   1.00
H678   H     0.87563   0.28842   0.77521   0.00000  Uiso   1.00
H679   H     0.71158   0.37563   0.22481   0.00000  Uiso   1.00
H680   H     0.78176   0.45060   0.40194   0.00000  Uiso   1.00
H681   H     0.78842   0.12437   0.77520   0.00000  Uiso   1.00
H682   H     0.66237   0.05683   0.98846   0.00000  Uiso   1.00
H683   H     0.71032   0.06164   0.99285   0.00000  Uiso   1.00
H684   H     0.65513   0.07355   0.05987   0.00000  Uiso   1.00
H685   H     0.79940   0.03177   0.90194   0.00000  Uiso   1.00
H686   H     0.70329   0.08407   0.06079   0.00000  Uiso   1.00
H687   H     0.69378   0.12992   0.00743   0.00000  Uiso   1.00
H688   H     0.66719   0.14011   0.05003   0.00000  Uiso   1.00
H689   H     0.64531   0.12012   0.00836   0.00000  Uiso   1.00
H690   H     0.81613   0.08149   0.01046   0.00000  Uiso   1.00
H691   H     0.76922   0.07000   0.00801   0.00000  Uiso   1.00
H692   H     0.81539   0.10044   0.93988   0.00000  Uiso   1.00
H693   H     0.76669   0.09275   0.93926   0.00000  Uiso   1.00
H694   H     0.75889   0.13865   0.99253   0.00000  Uiso   1.00
H695   H     0.78018   0.15803   0.95016   0.00000  Uiso   1.00
H696   H     0.98394   0.19342   0.09751   0.00000  Uiso   1.00
H697   H     0.80759   0.14710   0.99192   0.00000  Uiso   1.00
H698   H     0.94317   0.16237   0.98847   0.00000  Uiso   1.00
H699   H     0.93836   0.21032   0.99284   0.00000  Uiso   1.00
H700   H     0.92644   0.15515   0.05988   0.00000  Uiso   1.00
H701   H     0.91592   0.20332   0.06077   0.00000  Uiso   1.00
H702   H     0.87008   0.19379   0.00741   0.00000  Uiso   1.00
H703   H     0.85988   0.16722   0.05002   0.00000  Uiso   1.00
H704   H     0.87988   0.14532   0.00837   0.00000  Uiso   1.00
H705   H     0.91851   0.31612   0.01046   0.00000  Uiso   1.00
H706   H     0.93000   0.26921   0.00800   0.00000  Uiso   1.00
H707   H     0.96823   0.29940   0.90194   0.00000  Uiso   1.00
H708   H     0.89957   0.31540   0.93989   0.00000  Uiso   1.00
H709   H     0.90725   0.26670   0.93925   0.00000  Uiso   1.00
H710   H     0.86135   0.25890   0.99252   0.00000  Uiso   1.00
H711   H     0.84196   0.28019   0.95016   0.00000  Uiso   1.00
H712   H     0.85290   0.30759   0.99192   0.00000  Uiso   1.00
H713   H     0.83763   0.44318   0.98846   0.00000  Uiso   1.00
H714   H     0.78968   0.43836   0.99285   0.00000  Uiso   1.00
H715   H     0.84487   0.42645   0.05987   0.00000  Uiso   1.00
H716   H     0.79671   0.41593   0.06078   0.00000  Uiso   1.00
H717   H     0.80622   0.37008   0.00743   0.00000  Uiso   1.00
H718   H     0.80658   0.48394   0.09751   0.00000  Uiso   1.00
H719   H     0.83281   0.35989   0.05002   0.00000  Uiso   1.00
H720   H     0.85468   0.37989   0.00836   0.00000  Uiso   1.00
H721   H     0.68387   0.41851   0.01046   0.00000  Uiso   1.00
H722   H     0.73078   0.43000   0.00801   0.00000  Uiso   1.00
H723   H     0.68460   0.39957   0.93989   0.00000  Uiso   1.00
H724   H     0.73331   0.40725   0.93926   0.00000  Uiso   1.00
H725   H     0.74111   0.36135   0.99253   0.00000  Uiso   1.00
H726   H     0.71982   0.34197   0.95016   0.00000  Uiso   1.00
H727   H     0.69241   0.35290   0.99193   0.00000  Uiso   1.00
H728   H     0.55682   0.33762   0.98846   0.00000  Uiso   1.00
H729   H     0.70059   0.46823   0.90194   0.00000  Uiso   1.00
H730   H     0.56164   0.28968   0.99286   0.00000  Uiso   1.00
H731   H     0.57355   0.34488   0.05986   0.00000  Uiso   1.00
H732   H     0.58407   0.29671   0.06079   0.00000  Uiso   1.00
H733   H     0.62992   0.30622   0.00744   0.00000  Uiso   1.00
H734   H     0.64011   0.33282   0.05002   0.00000  Uiso   1.00
H735   H     0.62011   0.35468   0.00836   0.00000  Uiso   1.00
H736   H     0.58149   0.18387   0.01046   0.00000  Uiso   1.00
H737   H     0.57000   0.23078   0.00802   0.00000  Uiso   1.00
H738   H     0.60043   0.18462   0.93988   0.00000  Uiso   1.00
H739   H     0.59275   0.23332   0.93926   0.00000  Uiso   1.00
H740   H     0.51606   0.30658   0.09751   0.00000  Uiso   1.00
H741   H     0.63865   0.24111   0.99254   0.00000  Uiso   1.00
H742   H     0.65803   0.21983   0.95017   0.00000  Uiso   1.00
H743   H     0.64710   0.19241   0.99192   0.00000  Uiso   1.00
H744   H     0.91241   0.30685   0.48845   0.00000  Uiso   1.00
H745   H     0.96035   0.31167   0.49289   0.00000  Uiso   1.00
H746   H     0.90512   0.32355   0.55987   0.00000  Uiso   1.00
H747   H     0.95328   0.33408   0.56081   0.00000  Uiso   1.00
H748   H     0.94377   0.37994   0.50747   0.00000  Uiso   1.00
H749   H     0.91717   0.39012   0.55005   0.00000  Uiso   1.00
H750   H     0.89531   0.37012   0.50838   0.00000  Uiso   1.00
H751   H     0.53177   0.20060   0.90194   0.00000  Uiso   1.00
H752   H     0.56616   0.33153   0.51041   0.00000  Uiso   1.00
H753   H     0.51926   0.31998   0.50809   0.00000  Uiso   1.00
H754   H     0.56522   0.35043   0.43981   0.00000  Uiso   1.00
H755   H     0.51652   0.34274   0.43936   0.00000  Uiso   1.00
H756   H     0.50890   0.38864   0.49267   0.00000  Uiso   1.00
H757   H     0.53000   0.40802   0.45020   0.00000  Uiso   1.00
H758   H     0.55759   0.39713   0.49183   0.00000  Uiso   1.00
H759   H     0.69317   0.41238   0.48846   0.00000  Uiso   1.00
H760   H     0.68834   0.46033   0.49288   0.00000  Uiso   1.00
H761   H     0.67646   0.40509   0.55985   0.00000  Uiso   1.00
H762   H     0.94342   0.26606   0.59751   0.00000  Uiso   1.00
H763   H     0.66593   0.45325   0.56082   0.00000  Uiso   1.00
H764   H     0.62007   0.44378   0.50749   0.00000  Uiso   1.00
H765   H     0.60990   0.41714   0.55005   0.00000  Uiso   1.00
H766   H     0.62988   0.39531   0.50834   0.00000  Uiso   1.00
H767   H     0.66850   0.06614   0.51045   0.00000  Uiso   1.00
H768   H     0.67999   0.01923   0.50801   0.00000  Uiso   1.00
H769   H     0.64956   0.06540   0.43988   0.00000  Uiso   1.00
H770   H     0.65724   0.01669   0.43925   0.00000  Uiso   1.00
H771   H     0.61134   0.00889   0.49252   0.00000  Uiso   1.00
H772   H     0.59196   0.03018   0.45015   0.00000  Uiso   1.00
O773   O     0.75000   0.00000   0.25000   0.00000  Uiso   1.00
O774   O     0.75000   0.46964   0.66317   0.00000  Uiso   1.00
O775   O     0.80318   0.14562   0.76701   0.00000  Uiso   1.00
O776   O     0.96964   0.25000   0.33683   0.00000  Uiso   1.00
O777   O     0.53036   0.25000   0.66317   0.00000  Uiso   1.00
O778   O     0.50000   0.21964   0.83683   0.00000  Uiso   1.00
O779   O     0.50000   0.28036   0.16317   0.00000  Uiso   1.00
O780   O     0.78036   0.00000   0.83683   0.00000  Uiso   1.00
O781   O     0.71964   0.00000   0.16317   0.00000  Uiso   1.00
O782   O     0.50000   0.28036   0.83683   0.00000  Uiso   1.00
O783   O     0.50000   0.21964   0.16317   0.00000  Uiso   1.00
O784   O     0.71964   0.00000   0.83683   0.00000  Uiso   1.00
O785   O     0.75000   0.00000   0.75000   0.00000  Uiso   1.00
O786   O     0.78036   0.00000   0.16317   0.00000  Uiso   1.00
O787   O     0.70725   0.07307   0.27282   0.00000  Uiso   1.00
O788   O     0.79274   0.42693   0.72718   0.00000  Uiso   1.00
O789   O     0.92693   0.20726   0.27282   0.00000  Uiso   1.00
O790   O     0.57307   0.29275   0.72718   0.00000  Uiso   1.00
O791   O     0.79274   0.42693   0.27282   0.00000  Uiso   1.00
O792   O     0.70725   0.07307   0.72718   0.00000  Uiso   1.00
O793   O     0.57307   0.29275   0.27282   0.00000  Uiso   1.00
O794   O     0.92693   0.20726   0.72718   0.00000  Uiso   1.00
O795   O     0.70725   0.42693   0.72718   0.00000  Uiso   1.00
O796   O     0.50000   0.25000   0.25000   0.00000  Uiso   1.00
O797   O     0.79274   0.07307   0.27282   0.00000  Uiso   1.00
O798   O     0.92693   0.29275   0.72718   0.00000  Uiso   1.00
O799   O     0.57307   0.20726   0.27282   0.00000  Uiso   1.00
O800   O     0.79274   0.07307   0.72718   0.00000  Uiso   1.00
O801   O     0.70725   0.42693   0.27282   0.00000  Uiso   1.00
O802   O     0.57307   0.20726   0.72718   0.00000  Uiso   1.00
O803   O     0.92693   0.29275   0.27282   0.00000  Uiso   1.00
O804   O     0.95725   0.32307   0.77282   0.00000  Uiso   1.00
O805   O     0.54274   0.17693   0.22718   0.00000  Uiso   1.00
O806   O     0.67693   0.45726   0.77282   0.00000  Uiso   1.00
O807   O     0.50000   0.25000   0.75000   0.00000  Uiso   1.00
O808   O     0.82307   0.04275   0.22718   0.00000  Uiso   1.00
O809   O     0.54274   0.17693   0.77282   0.00000  Uiso   1.00
O810   O     0.95725   0.32307   0.22718   0.00000  Uiso   1.00
O811   O     0.82307   0.04275   0.77282   0.00000  Uiso   1.00
O812   O     0.67693   0.45726   0.22718   0.00000  Uiso   1.00
O813   O     0.95725   0.17693   0.22718   0.00000  Uiso   1.00
O814   O     0.54274   0.32307   0.77282   0.00000  Uiso   1.00
O815   O     0.67693   0.04275   0.22718   0.00000  Uiso   1.00
O816   O     0.82307   0.45726   0.77282   0.00000  Uiso   1.00
O817   O     0.54274   0.32307   0.22718   0.00000  Uiso   1.00
O818   O     0.75000   0.46964   0.33683   0.00000  Uiso   1.00
O819   O     0.95725   0.17693   0.77282   0.00000  Uiso   1.00
O820   O     0.82307   0.45726   0.22718   0.00000  Uiso   1.00
O821   O     0.67693   0.04275   0.77282   0.00000  Uiso   1.00
O822   O     0.68547   0.01853   0.02354   0.00000  Uiso   1.00
O823   O     0.80581   0.03750   0.97598   0.00000  Uiso   1.00
O824   O     0.98147   0.18547   0.02354   0.00000  Uiso   1.00
O825   O     0.96250   0.30581   0.97598   0.00000  Uiso   1.00
O826   O     0.81452   0.48147   0.02354   0.00000  Uiso   1.00
O827   O     0.69419   0.46251   0.97598   0.00000  Uiso   1.00
O828   O     0.51853   0.31452   0.02354   0.00000  Uiso   1.00
O829   O     0.75000   0.03036   0.66317   0.00000  Uiso   1.00
O830   O     0.53749   0.19419   0.97598   0.00000  Uiso   1.00
O831   O     0.93548   0.26855   0.52354   0.00000  Uiso   1.00
O832   O     0.55581   0.28751   0.47597   0.00000  Uiso   1.00
O833   O     0.73147   0.43548   0.52354   0.00000  Uiso   1.00
O834   O     0.71250   0.05581   0.47598   0.00000  Uiso   1.00
O835   O     0.56454   0.23150   0.52354   0.00000  Uiso   1.00
O836   O     0.94420   0.21252   0.47599   0.00000  Uiso   1.00
O837   O     0.76851   0.06453   0.52354   0.00000  Uiso   1.00
O838   O     0.78749   0.44420   0.47598   0.00000  Uiso   1.00
O839   O     0.60438   0.44682   0.26701   0.00000  Uiso   1.00
O840   O     0.53036   0.25000   0.33683   0.00000  Uiso   1.00
O841   O     0.89562   0.05318   0.73300   0.00000  Uiso   1.00
O842   O     0.55318   0.10438   0.26701   0.00000  Uiso   1.00
O843   O     0.94681   0.39562   0.73299   0.00000  Uiso   1.00
O844   O     0.89562   0.05318   0.26701   0.00000  Uiso   1.00
O845   O     0.60438   0.44682   0.73299   0.00000  Uiso   1.00
O846   O     0.94682   0.39562   0.26700   0.00000  Uiso   1.00
O847   O     0.55318   0.10438   0.73299   0.00000  Uiso   1.00
O848   O     0.60438   0.05319   0.73300   0.00000  Uiso   1.00
O849   O     0.89562   0.44682   0.26701   0.00000  Uiso   1.00
O850   O     0.55319   0.39562   0.73300   0.00000  Uiso   1.00
O851   O     0.96964   0.25000   0.66317   0.00000  Uiso   1.00
O852   O     0.94682   0.10438   0.26702   0.00000  Uiso   1.00
O853   O     0.89562   0.44681   0.73300   0.00000  Uiso   1.00
O854   O     0.60438   0.05318   0.26702   0.00000  Uiso   1.00
O855   O     0.94682   0.10438   0.73301   0.00000  Uiso   1.00
O856   O     0.55318   0.39562   0.26702   0.00000  Uiso   1.00
O857   O     0.85438   0.19682   0.76700   0.00000  Uiso   1.00
O858   O     0.64562   0.30319   0.23299   0.00000  Uiso   1.00
O859   O     0.80318   0.35438   0.76701   0.00000  Uiso   1.00
O860   O     0.69681   0.14562   0.23299   0.00000  Uiso   1.00
O861   O     0.64562   0.30318   0.76701   0.00000  Uiso   1.00
O862   O     0.75000   0.03036   0.33683   0.00000  Uiso   1.00
O863   O     0.85438   0.19681   0.23299   0.00000  Uiso   1.00
O864   O     0.69682   0.14562   0.76700   0.00000  Uiso   1.00
O865   O     0.80318   0.35438   0.23299   0.00000  Uiso   1.00
O866   O     0.85438   0.30319   0.23300   0.00000  Uiso   1.00
O867   O     0.64562   0.19682   0.76701   0.00000  Uiso   1.00
O868   O     0.80319   0.14562   0.23299   0.00000  Uiso   1.00
O869   O     0.69682   0.35438   0.76702   0.00000  Uiso   1.00
O870   O     0.64562   0.19681   0.23300   0.00000  Uiso   1.00
O871   O     0.85438   0.30318   0.76702   0.00000  Uiso   1.00
O872   O     0.69681   0.35438   0.23300   0.00000  Uiso   1.00
Zn873  Zn    0.70660   0.00000   0.21760   0.00000  Uiso   1.00
Zn874  Zn    0.54340   0.25000   0.28240   0.00000  Uiso   1.00
Zn875  Zn    0.75000   0.45660   0.71760   0.00000  Uiso   1.00
Zn876  Zn    0.75000   0.04340   0.28240   0.00000  Uiso   1.00
Zn877  Zn    0.54340   0.25000   0.71760   0.00000  Uiso   1.00
Zn878  Zn    0.95660   0.25000   0.28240   0.00000  Uiso   1.00
Zn879  Zn    0.75000   0.04340   0.71760   0.00000  Uiso   1.00
Zn880  Zn    0.75000   0.45660   0.28240   0.00000  Uiso   1.00
Zn881  Zn    0.79340   0.00000   0.78240   0.00000  Uiso   1.00
Zn882  Zn    0.50000   0.20660   0.21760   0.00000  Uiso   1.00
Zn883  Zn    0.50000   0.29340   0.78240   0.00000  Uiso   1.00
Zn884  Zn    0.79340   0.00000   0.21760   0.00000  Uiso   1.00
Zn885  Zn    0.70660   0.00000   0.78240   0.00000  Uiso   1.00
Zn886  Zn    0.50000   0.29340   0.21760   0.00000  Uiso   1.00
Zn887  Zn    0.50000   0.20660   0.78240   0.00000  Uiso   1.00
Zn888  Zn    0.95660   0.25000   0.71760   0.00000  Uiso   1.00
C889   C     0.21822   0.51061   0.04186   0.00000  Uiso   1.00
C890   C     0.02720   0.76961   0.45774   0.00000  Uiso   1.00
C891   C     0.34802   0.90198   0.75000   0.00000  Uiso   1.00
C892   C     0.40198   0.65198   0.25000   0.00000  Uiso   1.00
C893   C     0.09802   0.84802   0.75000   0.00000  Uiso   1.00
C894   C     0.34802   0.90198   0.25000   0.00000  Uiso   1.00
C895   C     0.15198   0.59802   0.75000   0.00000  Uiso   1.00
C896   C     0.09802   0.65198   0.75000   0.00000  Uiso   1.00
C897   C     0.40198   0.84802   0.25000   0.00000  Uiso   1.00
C898   C     0.15198   0.90198   0.75000   0.00000  Uiso   1.00
C899   C     0.34802   0.59802   0.25000   0.00000  Uiso   1.00
C900   C     0.40198   0.84802   0.75000   0.00000  Uiso   1.00
C901   C     0.23938   0.96822   0.54186   0.00000  Uiso   1.00
C902   C     0.09802   0.65198   0.25000   0.00000  Uiso   1.00
C903   C     0.34802   0.59802   0.75000   0.00000  Uiso   1.00
C904   C     0.15198   0.90198   0.25000   0.00000  Uiso   1.00
C905   C     0.25000   0.50000   0.10241   0.00000  Uiso   1.00
C906   C     0.25000   0.50000   0.89733   0.00000  Uiso   1.00
C907   C    -0.00000   0.75000   0.10241   0.00000  Uiso   1.00
C908   C     0.00000   0.75000   0.89733   0.00000  Uiso   1.00
C909   C     0.00000   0.75000   0.60240   0.00000  Uiso   1.00
C910   C     0.00000   0.75000   0.39733   0.00000  Uiso   1.00
C911   C     0.25000   0.50000   0.60241   0.00000  Uiso   1.00
C912   C     0.23039   0.52720   0.45774   0.00000  Uiso   1.00
C913   C     0.25000   0.50000   0.39733   0.00000  Uiso   1.00
C914   C     0.18528   0.55479   0.00942   0.00000  Uiso   1.00
C915   C     0.17872   0.58252   0.04199   0.00000  Uiso   1.00
C916   C     0.17079   0.62050   0.02583   0.00000  Uiso   1.00
C917   C     0.29447   0.57185   0.99040   0.00000  Uiso   1.00
C918   C     0.29026   0.60015   0.95792   0.00000  Uiso   1.00
C919   C     0.28383   0.63833   0.97427   0.00000  Uiso   1.00
C920   C     0.44521   0.68528   0.00942   0.00000  Uiso   1.00
C921   C     0.41747   0.67874   0.04198   0.00000  Uiso   1.00
C922   C     0.37950   0.67080   0.02582   0.00000  Uiso   1.00
C923   C     0.03179   0.73940   0.54186   0.00000  Uiso   1.00
C924   C     0.42815   0.79447   0.99040   0.00000  Uiso   1.00
C925   C     0.39985   0.79027   0.95792   0.00000  Uiso   1.00
C926   C     0.36167   0.78384   0.97426   0.00000  Uiso   1.00
C927   C     0.31472   0.94521   0.00942   0.00000  Uiso   1.00
C928   C     0.32128   0.91748   0.04199   0.00000  Uiso   1.00
C929   C     0.32921   0.87950   0.02583   0.00000  Uiso   1.00
C930   C     0.20553   0.92815   0.99040   0.00000  Uiso   1.00
C931   C     0.20974   0.89985   0.95792   0.00000  Uiso   1.00
C932   C     0.21617   0.86167   0.97427   0.00000  Uiso   1.00
C933   C     0.05479   0.81472   0.00942   0.00000  Uiso   1.00
C934   C     0.47280   0.73041   0.45775   0.00000  Uiso   1.00
C935   C     0.08252   0.82128   0.04199   0.00000  Uiso   1.00
C936   C     0.12050   0.82922   0.02583   0.00000  Uiso   1.00
C937   C     0.07185   0.70553   0.99040   0.00000  Uiso   1.00
C938   C     0.10015   0.70974   0.95792   0.00000  Uiso   1.00
C939   C     0.13833   0.71617   0.97427   0.00000  Uiso   1.00
C940   C     0.43530   0.80481   0.50943   0.00000  Uiso   1.00
C941   C     0.42872   0.83253   0.54200   0.00000  Uiso   1.00
C942   C     0.42078   0.87051   0.52585   0.00000  Uiso   1.00
C943   C     0.04447   0.82185   0.49040   0.00000  Uiso   1.00
C944   C     0.04015   0.85015   0.45794   0.00000  Uiso   1.00
C945   C     0.26060   0.53178   0.54186   0.00000  Uiso   1.00
C946   C     0.03376   0.88833   0.47429   0.00000  Uiso   1.00
C947   C     0.19520   0.93528   0.50943   0.00000  Uiso   1.00
C948   C     0.16748   0.92869   0.54200   0.00000  Uiso   1.00
C949   C     0.12950   0.92077   0.52585   0.00000  Uiso   1.00
C950   C     0.17815   0.54448   0.49039   0.00000  Uiso   1.00
C951   C     0.14985   0.54027   0.45792   0.00000  Uiso   1.00
C952   C     0.11166   0.53383   0.47426   0.00000  Uiso   1.00
C953   C     0.06474   0.69524   0.50941   0.00000  Uiso   1.00
C954   C     0.07125   0.66749   0.54197   0.00000  Uiso   1.00
C955   C     0.07919   0.62952   0.52580   0.00000  Uiso   1.00
C956   C     0.26959   0.97280   0.45775   0.00000  Uiso   1.00
C957   C     0.45553   0.67816   0.49038   0.00000  Uiso   1.00
C958   C     0.45957   0.64984   0.45790   0.00000  Uiso   1.00
C959   C     0.46606   0.61166   0.47422   0.00000  Uiso   1.00
C960   C     0.30477   0.56472   0.50942   0.00000  Uiso   1.00
C961   C     0.33251   0.57128   0.54198   0.00000  Uiso   1.00
C962   C     0.37048   0.57922   0.52582   0.00000  Uiso   1.00
C963   C     0.32184   0.95553   0.49040   0.00000  Uiso   1.00
C964   C     0.35014   0.95972   0.45792   0.00000  Uiso   1.00
C965   C     0.38832   0.96617   0.47427   0.00000  Uiso   1.00
C966   C     0.21827   0.50917   0.08212   0.00000  Uiso   1.00
C967   C     0.27775   0.51791   0.91750   0.00000  Uiso   1.00
C968   C     0.49083   0.71827   0.08212   0.00000  Uiso   1.00
C969   C     0.27720   0.51960   0.95774   0.00000  Uiso   1.00
C970   C     0.48209   0.77775   0.91750   0.00000  Uiso   1.00
C971   C     0.28173   0.99083   0.08212   0.00000  Uiso   1.00
C972   C     0.22225   0.98209   0.91750   0.00000  Uiso   1.00
C973   C     0.00917   0.78173   0.08212   0.00000  Uiso   1.00
C974   C     0.01791   0.72225   0.91750   0.00000  Uiso   1.00
C975   C     0.46827   0.75918   0.58212   0.00000  Uiso   1.00
C976   C     0.02775   0.76792   0.41749   0.00000  Uiso   1.00
C977   C     0.24082   0.96827   0.58212   0.00000  Uiso   1.00
C978   C     0.23208   0.52775   0.41750   0.00000  Uiso   1.00
C979   C     0.03174   0.74083   0.58212   0.00000  Uiso   1.00
C980   C     0.48939   0.71822   0.04186   0.00000  Uiso   1.00
C981   C     0.47225   0.73209   0.41750   0.00000  Uiso   1.00
C982   C     0.25916   0.53174   0.58212   0.00000  Uiso   1.00
C983   C     0.26791   0.97225   0.41750   0.00000  Uiso   1.00
C984   C     0.25000   0.50000   0.02118   0.00000  Uiso   1.00
C985   C     0.25000   0.50000   0.97845   0.00000  Uiso   1.00
C986   C    -0.00000   0.75000   0.02118   0.00000  Uiso   1.00
C987   C     0.00000   0.75000   0.97845   0.00000  Uiso   1.00
C988   C     0.00001   0.75001   0.52118   0.00000  Uiso   1.00
C989   C     0.00000   0.75001   0.47845   0.00000  Uiso   1.00
C990   C     0.24999   0.50000   0.52118   0.00000  Uiso   1.00
C991   C     0.48040   0.77720   0.95774   0.00000  Uiso   1.00
C992   C     0.24999   0.50000   0.47845   0.00000  Uiso   1.00
C993   C     0.25000   0.50000   0.35515   0.00000  Uiso   1.00
C994   C     0.25000   0.50000   0.64476   0.00000  Uiso   1.00
C995   C     0.00000   0.75000   0.35515   0.00000  Uiso   1.00
C996   C     0.00000   0.75000   0.64476   0.00000  Uiso   1.00
C997   C     0.00000   0.75000   0.85515   0.00000  Uiso   1.00
C998   C    -0.00000   0.75000   0.14476   0.00000  Uiso   1.00
C999   C     0.25000   0.50000   0.85515   0.00000  Uiso   1.00
C1000  C     0.25000   0.50000   0.14476   0.00000  Uiso   1.00
C1001  C     0.18002   0.56998   0.25000   0.00000  Uiso   1.00
C1002  C     0.28178   0.98939   0.04186   0.00000  Uiso   1.00
C1003  C     0.31998   0.93002   0.75000   0.00000  Uiso   1.00
C1004  C     0.43002   0.68002   0.25000   0.00000  Uiso   1.00
C1005  C     0.06998   0.81998   0.75000   0.00000  Uiso   1.00
C1006  C     0.31998   0.93002   0.25000   0.00000  Uiso   1.00
C1007  C     0.18002   0.56998   0.75000   0.00000  Uiso   1.00
C1008  C     0.06998   0.81998   0.25000   0.00000  Uiso   1.00
C1009  C     0.43002   0.68002   0.75000   0.00000  Uiso   1.00
C1010  C     0.18002   0.93002   0.75000   0.00000  Uiso   1.00
C1011  C     0.31998   0.56998   0.25000   0.00000  Uiso   1.00
C1012  C     0.43002   0.81998   0.75000   0.00000  Uiso   1.00
C1013  C     0.22280   0.98040   0.95774   0.00000  Uiso   1.00
C1014  C     0.06998   0.68002   0.25000   0.00000  Uiso   1.00
C1015  C     0.31998   0.56998   0.75000   0.00000  Uiso   1.00
C1016  C     0.18002   0.93002   0.25000   0.00000  Uiso   1.00
C1017  C     0.06998   0.68002   0.75000   0.00000  Uiso   1.00
C1018  C     0.43002   0.81998   0.25000   0.00000  Uiso   1.00
C1019  C     0.11526   0.91162   0.25788   0.00000  Uiso   1.00
C1020  C     0.38473   0.58838   0.74213   0.00000  Uiso   1.00
C1021  C     0.08838   0.61526   0.25788   0.00000  Uiso   1.00
C1022  C     0.41162   0.88473   0.74212   0.00000  Uiso   1.00
C1023  C     0.38474   0.58838   0.25788   0.00000  Uiso   1.00
C1024  C     0.01061   0.78178   0.04186   0.00000  Uiso   1.00
C1025  C     0.11527   0.91162   0.74212   0.00000  Uiso   1.00
C1026  C     0.41162   0.88474   0.25788   0.00000  Uiso   1.00
C1027  C     0.08838   0.61527   0.74212   0.00000  Uiso   1.00
C1028  C     0.11526   0.58838   0.74213   0.00000  Uiso   1.00
C1029  C     0.38474   0.91162   0.25788   0.00000  Uiso   1.00
C1030  C     0.08838   0.88474   0.74212   0.00000  Uiso   1.00
C1031  C     0.41162   0.61526   0.25788   0.00000  Uiso   1.00
C1032  C     0.38474   0.91162   0.74212   0.00000  Uiso   1.00
C1033  C     0.11526   0.58838   0.25788   0.00000  Uiso   1.00
C1034  C     0.41162   0.61526   0.74213   0.00000  Uiso   1.00
C1035  C     0.01960   0.72280   0.95774   0.00000  Uiso   1.00
C1036  C     0.08838   0.88474   0.25788   0.00000  Uiso   1.00
C1037  C     0.36526   0.66162   0.75787   0.00000  Uiso   1.00
C1038  C     0.13473   0.83838   0.24212   0.00000  Uiso   1.00
C1039  C     0.33838   0.86526   0.75788   0.00000  Uiso   1.00
C1040  C     0.16162   0.63473   0.24212   0.00000  Uiso   1.00
C1041  C     0.13474   0.83838   0.75788   0.00000  Uiso   1.00
C1042  C     0.36527   0.66162   0.24212   0.00000  Uiso   1.00
C1043  C     0.16162   0.63474   0.75788   0.00000  Uiso   1.00
C1044  C     0.33838   0.86527   0.24212   0.00000  Uiso   1.00
C1045  C     0.36526   0.83838   0.24213   0.00000  Uiso   1.00
C1046  C     0.46823   0.76062   0.54186   0.00000  Uiso   1.00
C1047  C     0.13474   0.66162   0.75788   0.00000  Uiso   1.00
C1048  C     0.33838   0.63474   0.24212   0.00000  Uiso   1.00
C1049  C     0.16162   0.86526   0.75788   0.00000  Uiso   1.00
C1050  C     0.13474   0.66162   0.24212   0.00000  Uiso   1.00
C1051  C     0.36526   0.83838   0.75788   0.00000  Uiso   1.00
C1052  C     0.16162   0.86526   0.24212   0.00000  Uiso   1.00
C1053  C     0.33838   0.63474   0.75788   0.00000  Uiso   1.00
C1054  C     0.09802   0.84802   0.25000   0.00000  Uiso   1.00
C1055  C     0.40198   0.65198   0.75000   0.00000  Uiso   1.00
C1056  C     0.15198   0.59802   0.25000   0.00000  Uiso   1.00
H1057  H     0.19342   0.51606   0.09751   0.00000  Uiso   1.00
H1058  H     0.04940   0.78178   0.40193   0.00000  Uiso   1.00
H1059  H     0.10289   0.55759   0.49192   0.00000  Uiso   1.00
H1060  H     0.08769   0.69321   0.48849   0.00000  Uiso   1.00
H1061  H     0.03973   0.68841   0.49279   0.00000  Uiso   1.00
H1062  H     0.09482   0.67644   0.55989   0.00000  Uiso   1.00
H1063  H     0.04665   0.66594   0.56073   0.00000  Uiso   1.00
H1064  H     0.05621   0.62012   0.50737   0.00000  Uiso   1.00
H1065  H     0.08275   0.60989   0.54999   0.00000  Uiso   1.00
H1066  H     0.10468   0.62990   0.50836   0.00000  Uiso   1.00
H1067  H     0.43393   0.66855   0.51053   0.00000  Uiso   1.00
H1068  H     0.48085   0.67996   0.50789   0.00000  Uiso   1.00
H1069  H     0.23394   0.94342   0.59751   0.00000  Uiso   1.00
H1070  H     0.43435   0.64956   0.44000   0.00000  Uiso   1.00
H1071  H     0.48305   0.65722   0.43910   0.00000  Uiso   1.00
H1072  H     0.49112   0.61133   0.49230   0.00000  Uiso   1.00
H1073  H     0.46953   0.59194   0.45011   0.00000  Uiso   1.00
H1074  H     0.44241   0.60293   0.49206   0.00000  Uiso   1.00
H1075  H     0.30681   0.58764   0.48846   0.00000  Uiso   1.00
H1076  H     0.31162   0.53969   0.49284   0.00000  Uiso   1.00
H1077  H     0.32354   0.59487   0.55987   0.00000  Uiso   1.00
H1078  H     0.33406   0.54671   0.56078   0.00000  Uiso   1.00
H1079  H     0.37990   0.55623   0.50742   0.00000  Uiso   1.00
H1080  H     0.21823   0.54941   0.40193   0.00000  Uiso   1.00
H1081  H     0.39010   0.58281   0.55002   0.00000  Uiso   1.00
H1082  H     0.37010   0.60469   0.50836   0.00000  Uiso   1.00
H1083  H     0.33148   0.93388   0.51047   0.00000  Uiso   1.00
H1084  H     0.32000   0.98080   0.50800   0.00000  Uiso   1.00
H1085  H     0.35043   0.93458   0.43990   0.00000  Uiso   1.00
H1086  H     0.34275   0.98328   0.43924   0.00000  Uiso   1.00
H1087  H     0.38864   0.99112   0.49250   0.00000  Uiso   1.00
H1088  H     0.40803   0.96979   0.45016   0.00000  Uiso   1.00
H1089  H     0.39709   0.94242   0.49195   0.00000  Uiso   1.00
H1090  H     0.12562   0.96158   0.27519   0.00000  Uiso   1.00
H1091  H     0.05658   0.73395   0.59751   0.00000  Uiso   1.00
H1092  H     0.37437   0.53842   0.72480   0.00000  Uiso   1.00
H1093  H     0.03842   0.62562   0.27519   0.00000  Uiso   1.00
H1094  H     0.46157   0.87437   0.72480   0.00000  Uiso   1.00
H1095  H     0.37438   0.53842   0.27519   0.00000  Uiso   1.00
H1096  H     0.12563   0.96158   0.72479   0.00000  Uiso   1.00
H1097  H     0.46158   0.87438   0.27519   0.00000  Uiso   1.00
H1098  H     0.03842   0.62563   0.72480   0.00000  Uiso   1.00
H1099  H     0.12562   0.53842   0.72481   0.00000  Uiso   1.00
H1100  H     0.37437   0.96158   0.27521   0.00000  Uiso   1.00
H1101  H     0.03842   0.87437   0.72481   0.00000  Uiso   1.00
H1102  H     0.45059   0.71824   0.40194   0.00000  Uiso   1.00
H1103  H     0.46158   0.62563   0.27521   0.00000  Uiso   1.00
H1104  H     0.37437   0.96158   0.72481   0.00000  Uiso   1.00
H1105  H     0.12563   0.53842   0.27521   0.00000  Uiso   1.00
H1106  H     0.46158   0.62562   0.72482   0.00000  Uiso   1.00
H1107  H     0.03842   0.87437   0.27521   0.00000  Uiso   1.00
H1108  H     0.37562   0.71158   0.77518   0.00000  Uiso   1.00
H1109  H     0.12437   0.78843   0.22480   0.00000  Uiso   1.00
H1110  H     0.28842   0.87562   0.77519   0.00000  Uiso   1.00
H1111  H     0.21157   0.62437   0.22480   0.00000  Uiso   1.00
H1112  H     0.12438   0.78842   0.77519   0.00000  Uiso   1.00
H1113  H     0.26605   0.55658   0.59751   0.00000  Uiso   1.00
H1114  H     0.37563   0.71158   0.22480   0.00000  Uiso   1.00
H1115  H     0.21158   0.62438   0.77519   0.00000  Uiso   1.00
H1116  H     0.28842   0.87563   0.22480   0.00000  Uiso   1.00
H1117  H     0.37562   0.78842   0.22481   0.00000  Uiso   1.00
H1118  H     0.12437   0.71158   0.77521   0.00000  Uiso   1.00
H1119  H     0.28842   0.62437   0.22481   0.00000  Uiso   1.00
H1120  H     0.21158   0.87563   0.77521   0.00000  Uiso   1.00
H1121  H     0.12437   0.71158   0.22481   0.00000  Uiso   1.00
H1122  H     0.37563   0.78842   0.77521   0.00000  Uiso   1.00
H1123  H     0.21158   0.87563   0.22481   0.00000  Uiso   1.00
H1124  H     0.28176   0.95060   0.40194   0.00000  Uiso   1.00
H1125  H     0.28842   0.62437   0.77520   0.00000  Uiso   1.00
H1126  H     0.16237   0.55683   0.98846   0.00000  Uiso   1.00
H1127  H     0.21032   0.56164   0.99285   0.00000  Uiso   1.00
H1128  H     0.15513   0.57355   0.05987   0.00000  Uiso   1.00
H1129  H     0.29940   0.53177   0.90194   0.00000  Uiso   1.00
H1130  H     0.20329   0.58407   0.06079   0.00000  Uiso   1.00
H1131  H     0.19378   0.62992   0.00743   0.00000  Uiso   1.00
H1132  H     0.16719   0.64011   0.05003   0.00000  Uiso   1.00
H1133  H     0.14531   0.62012   0.00836   0.00000  Uiso   1.00
H1134  H     0.31613   0.58149   0.01046   0.00000  Uiso   1.00
H1135  H     0.26922   0.57000   0.00801   0.00000  Uiso   1.00
H1136  H     0.31539   0.60044   0.93988   0.00000  Uiso   1.00
H1137  H     0.26669   0.59275   0.93926   0.00000  Uiso   1.00
H1138  H     0.25889   0.63865   0.99253   0.00000  Uiso   1.00
H1139  H     0.28018   0.65803   0.95016   0.00000  Uiso   1.00
H1140  H     0.48394   0.69342   0.09751   0.00000  Uiso   1.00
H1141  H     0.30759   0.64710   0.99192   0.00000  Uiso   1.00
H1142  H     0.44317   0.66237   0.98847   0.00000  Uiso   1.00
H1143  H     0.43836   0.71032   0.99284   0.00000  Uiso   1.00
H1144  H     0.42644   0.65515   0.05988   0.00000  Uiso   1.00
H1145  H     0.41592   0.70332   0.06077   0.00000  Uiso   1.00
H1146  H     0.37008   0.69379   0.00741   0.00000  Uiso   1.00
H1147  H     0.35988   0.66722   0.05002   0.00000  Uiso   1.00
H1148  H     0.37988   0.64532   0.00837   0.00000  Uiso   1.00
H1149  H     0.41851   0.81612   0.01046   0.00000  Uiso   1.00
H1150  H     0.43000   0.76921   0.00800   0.00000  Uiso   1.00
H1151  H     0.46823   0.79940   0.90194   0.00000  Uiso   1.00
H1152  H     0.39957   0.81540   0.93989   0.00000  Uiso   1.00
H1153  H     0.40725   0.76670   0.93925   0.00000  Uiso   1.00
H1154  H     0.36135   0.75890   0.99252   0.00000  Uiso   1.00
H1155  H     0.34196   0.78019   0.95016   0.00000  Uiso   1.00
H1156  H     0.35290   0.80759   0.99192   0.00000  Uiso   1.00
H1157  H     0.33763   0.94318   0.98846   0.00000  Uiso   1.00
H1158  H     0.28968   0.93836   0.99285   0.00000  Uiso   1.00
H1159  H     0.34487   0.92645   0.05987   0.00000  Uiso   1.00
H1160  H     0.29671   0.91593   0.06078   0.00000  Uiso   1.00
H1161  H     0.30622   0.87008   0.00743   0.00000  Uiso   1.00
H1162  H     0.30658   0.98394   0.09751   0.00000  Uiso   1.00
H1163  H     0.33281   0.85989   0.05002   0.00000  Uiso   1.00
H1164  H     0.35468   0.87989   0.00836   0.00000  Uiso   1.00
H1165  H     0.18387   0.91851   0.01046   0.00000  Uiso   1.00
H1166  H     0.23078   0.93000   0.00801   0.00000  Uiso   1.00
H1167  H     0.18460   0.89957   0.93989   0.00000  Uiso   1.00
H1168  H     0.23331   0.90725   0.93926   0.00000  Uiso   1.00
H1169  H     0.24111   0.86135   0.99253   0.00000  Uiso   1.00
H1170  H     0.21982   0.84197   0.95016   0.00000  Uiso   1.00
H1171  H     0.19241   0.85290   0.99193   0.00000  Uiso   1.00
H1172  H     0.05682   0.83762   0.98846   0.00000  Uiso   1.00
H1173  H     0.20059   0.96823   0.90194   0.00000  Uiso   1.00
H1174  H     0.06164   0.78968   0.99286   0.00000  Uiso   1.00
H1175  H     0.07355   0.84488   0.05986   0.00000  Uiso   1.00
H1176  H     0.08407   0.79671   0.06079   0.00000  Uiso   1.00
H1177  H     0.12992   0.80622   0.00744   0.00000  Uiso   1.00
H1178  H     0.14011   0.83282   0.05002   0.00000  Uiso   1.00
H1179  H     0.12011   0.85468   0.00836   0.00000  Uiso   1.00
H1180  H     0.08149   0.68387   0.01046   0.00000  Uiso   1.00
H1181  H     0.07000   0.73078   0.00802   0.00000  Uiso   1.00
H1182  H     0.10043   0.68462   0.93988   0.00000  Uiso   1.00
H1183  H     0.09275   0.73332   0.93926   0.00000  Uiso   1.00
H1184  H     0.01606   0.80658   0.09751   0.00000  Uiso   1.00
H1185  H     0.13865   0.74111   0.99254   0.00000  Uiso   1.00
H1186  H     0.15803   0.71983   0.95017   0.00000  Uiso   1.00
H1187  H     0.14710   0.69241   0.99192   0.00000  Uiso   1.00
H1188  H     0.41241   0.80685   0.48845   0.00000  Uiso   1.00
H1189  H     0.46035   0.81167   0.49289   0.00000  Uiso   1.00
H1190  H     0.40512   0.82355   0.55987   0.00000  Uiso   1.00
H1191  H     0.45328   0.83408   0.56081   0.00000  Uiso   1.00
H1192  H     0.44377   0.87994   0.50747   0.00000  Uiso   1.00
H1193  H     0.41717   0.89012   0.55005   0.00000  Uiso   1.00
H1194  H     0.39531   0.87012   0.50838   0.00000  Uiso   1.00
H1195  H     0.03177   0.70060   0.90194   0.00000  Uiso   1.00
H1196  H     0.06616   0.83153   0.51041   0.00000  Uiso   1.00
H1197  H     0.01926   0.81998   0.50809   0.00000  Uiso   1.00
H1198  H     0.06522   0.85043   0.43981   0.00000  Uiso   1.00
H1199  H     0.01652   0.84274   0.43936   0.00000  Uiso   1.00
H1200  H     0.00890   0.88864   0.49267   0.00000  Uiso   1.00
H1201  H     0.03000   0.90802   0.45020   0.00000  Uiso   1.00
H1202  H     0.05759   0.89713   0.49183   0.00000  Uiso   1.00
H1203  H     0.19317   0.91238   0.48846   0.00000  Uiso   1.00
H1204  H     0.18834   0.96033   0.49288   0.00000  Uiso   1.00
H1205  H     0.17646   0.90509   0.55985   0.00000  Uiso   1.00
H1206  H     0.44342   0.76606   0.59751   0.00000  Uiso   1.00
H1207  H     0.16593   0.95325   0.56082   0.00000  Uiso   1.00
H1208  H     0.12007   0.94378   0.50749   0.00000  Uiso   1.00
H1209  H     0.10990   0.91714   0.55005   0.00000  Uiso   1.00
H1210  H     0.12988   0.89531   0.50834   0.00000  Uiso   1.00
H1211  H     0.16850   0.56614   0.51045   0.00000  Uiso   1.00
H1212  H     0.17999   0.51923   0.50801   0.00000  Uiso   1.00
H1213  H     0.14956   0.56540   0.43988   0.00000  Uiso   1.00
H1214  H     0.15724   0.51669   0.43925   0.00000  Uiso   1.00
H1215  H     0.11134   0.50889   0.49252   0.00000  Uiso   1.00
H1216  H     0.09196   0.53018   0.45015   0.00000  Uiso   1.00
O1217  O     0.25000   0.50000   0.25000   0.00000  Uiso   1.00
O1218  O     0.25000   0.96964   0.66317   0.00000  Uiso   1.00
O1219  O     0.30318   0.64562   0.76701   0.00000  Uiso   1.00
O1220  O     0.46964   0.75000   0.33683   0.00000  Uiso   1.00
O1221  O     0.03036   0.75000   0.66317   0.00000  Uiso   1.00
O1222  O     0.00000   0.71964   0.83683   0.00000  Uiso   1.00
O1223  O     0.00000   0.78036   0.16317   0.00000  Uiso   1.00
O1224  O     0.28036   0.50000   0.83683   0.00000  Uiso   1.00
O1225  O     0.21964   0.50000   0.16317   0.00000  Uiso   1.00
O1226  O    -0.00000   0.78036   0.83683   0.00000  Uiso   1.00
O1227  O     0.00000   0.71964   0.16317   0.00000  Uiso   1.00
O1228  O     0.21964   0.50000   0.83683   0.00000  Uiso   1.00
O1229  O     0.25000   0.50000   0.75000   0.00000  Uiso   1.00
O1230  O     0.28036   0.50000   0.16317   0.00000  Uiso   1.00
O1231  O     0.20725   0.57307   0.27282   0.00000  Uiso   1.00
O1232  O     0.29274   0.92693   0.72718   0.00000  Uiso   1.00
O1233  O     0.42693   0.70726   0.27282   0.00000  Uiso   1.00
O1234  O     0.07307   0.79275   0.72718   0.00000  Uiso   1.00
O1235  O     0.29274   0.92693   0.27282   0.00000  Uiso   1.00
O1236  O     0.20725   0.57307   0.72718   0.00000  Uiso   1.00
O1237  O     0.07307   0.79275   0.27282   0.00000  Uiso   1.00
O1238  O     0.42693   0.70726   0.72718   0.00000  Uiso   1.00
O1239  O     0.20725   0.92693   0.72718   0.00000  Uiso   1.00
O1240  O     0.00000   0.75000   0.25000   0.00000  Uiso   1.00
O1241  O     0.29274   0.57307   0.27282   0.00000  Uiso   1.00
O1242  O     0.42693   0.79275   0.72718   0.00000  Uiso   1.00
O1243  O     0.07307   0.70726   0.27282   0.00000  Uiso   1.00
O1244  O     0.29274   0.57307   0.72718   0.00000  Uiso   1.00
O1245  O     0.20725   0.92693   0.27282   0.00000  Uiso   1.00
O1246  O     0.07307   0.70726   0.72718   0.00000  Uiso   1.00
O1247  O     0.42693   0.79275   0.27282   0.00000  Uiso   1.00
O1248  O     0.45725   0.82307   0.77282   0.00000  Uiso   1.00
O1249  O     0.04274   0.67693   0.22718   0.00000  Uiso   1.00
O1250  O     0.17693   0.95726   0.77282   0.00000  Uiso   1.00
O1251  O     0.00000   0.75000   0.75000   0.00000  Uiso   1.00
O1252  O     0.32307   0.54275   0.22718   0.00000  Uiso   1.00
O1253  O     0.04274   0.67693   0.77282   0.00000  Uiso   1.00
O1254  O     0.45725   0.82307   0.22718   0.00000  Uiso   1.00
O1255  O     0.32307   0.54275   0.77282   0.00000  Uiso   1.00
O1256  O     0.17693   0.95726   0.22718   0.00000  Uiso   1.00
O1257  O     0.45725   0.67693   0.22718   0.00000  Uiso   1.00
O1258  O     0.04274   0.82307   0.77282   0.00000  Uiso   1.00
O1259  O     0.17693   0.54275   0.22718   0.00000  Uiso   1.00
O1260  O     0.32307   0.95726   0.77282   0.00000  Uiso   1.00
O1261  O     0.04274   0.82307   0.22718   0.00000  Uiso   1.00
O1262  O     0.25000   0.96964   0.33683   0.00000  Uiso   1.00
O1263  O     0.45725   0.67693   0.77282   0.00000  Uiso   1.00
O1264  O     0.32307   0.95726   0.22718   0.00000  Uiso   1.00
O1265  O     0.17693   0.54275   0.77282   0.00000  Uiso   1.00
O1266  O     0.18547   0.51853   0.02354   0.00000  Uiso   1.00
O1267  O     0.30581   0.53750   0.97598   0.00000  Uiso   1.00
O1268  O     0.48147   0.68547   0.02354   0.00000  Uiso   1.00
O1269  O     0.46250   0.80581   0.97598   0.00000  Uiso   1.00
O1270  O     0.31452   0.98147   0.02354   0.00000  Uiso   1.00
O1271  O     0.19419   0.96251   0.97598   0.00000  Uiso   1.00
O1272  O     0.01853   0.81452   0.02354   0.00000  Uiso   1.00
O1273  O     0.25000   0.53036   0.66317   0.00000  Uiso   1.00
O1274  O     0.03749   0.69419   0.97598   0.00000  Uiso   1.00
O1275  O     0.43548   0.76855   0.52354   0.00000  Uiso   1.00
O1276  O     0.05581   0.78751   0.47597   0.00000  Uiso   1.00
O1277  O     0.23147   0.93548   0.52354   0.00000  Uiso   1.00
O1278  O     0.21250   0.55581   0.47598   0.00000  Uiso   1.00
O1279  O     0.06454   0.73150   0.52354   0.00000  Uiso   1.00
O1280  O     0.44420   0.71252   0.47599   0.00000  Uiso   1.00
O1281  O     0.26851   0.56453   0.52354   0.00000  Uiso   1.00
O1282  O     0.28749   0.94420   0.47598   0.00000  Uiso   1.00
O1283  O     0.10438   0.94682   0.26701   0.00000  Uiso   1.00
O1284  O     0.03036   0.75000   0.33683   0.00000  Uiso   1.00
O1285  O     0.39562   0.55318   0.73300   0.00000  Uiso   1.00
O1286  O     0.05318   0.60438   0.26701   0.00000  Uiso   1.00
O1287  O     0.44681   0.89562   0.73299   0.00000  Uiso   1.00
O1288  O     0.39562   0.55318   0.26701   0.00000  Uiso   1.00
O1289  O     0.10438   0.94682   0.73299   0.00000  Uiso   1.00
O1290  O     0.44682   0.89562   0.26700   0.00000  Uiso   1.00
O1291  O     0.05318   0.60438   0.73299   0.00000  Uiso   1.00
O1292  O     0.10438   0.55319   0.73300   0.00000  Uiso   1.00
O1293  O     0.39562   0.94682   0.26701   0.00000  Uiso   1.00
O1294  O     0.05319   0.89562   0.73300   0.00000  Uiso   1.00
O1295  O     0.46964   0.75000   0.66317   0.00000  Uiso   1.00
O1296  O     0.44682   0.60438   0.26702   0.00000  Uiso   1.00
O1297  O     0.39562   0.94681   0.73300   0.00000  Uiso   1.00
O1298  O     0.10438   0.55318   0.26702   0.00000  Uiso   1.00
O1299  O     0.44682   0.60438   0.73301   0.00000  Uiso   1.00
O1300  O     0.05318   0.89562   0.26702   0.00000  Uiso   1.00
O1301  O     0.35438   0.69682   0.76700   0.00000  Uiso   1.00
O1302  O     0.14562   0.80319   0.23299   0.00000  Uiso   1.00
O1303  O     0.30318   0.85438   0.76701   0.00000  Uiso   1.00
O1304  O     0.19681   0.64562   0.23299   0.00000  Uiso   1.00
O1305  O     0.14562   0.80318   0.76701   0.00000  Uiso   1.00
O1306  O     0.25000   0.53036   0.33683   0.00000  Uiso   1.00
O1307  O     0.35438   0.69681   0.23299   0.00000  Uiso   1.00
O1308  O     0.19682   0.64562   0.76700   0.00000  Uiso   1.00
O1309  O     0.30318   0.85438   0.23299   0.00000  Uiso   1.00
O1310  O     0.35438   0.80319   0.23300   0.00000  Uiso   1.00
O1311  O     0.14562   0.69682   0.76701   0.00000  Uiso   1.00
O1312  O     0.30319   0.64562   0.23299   0.00000  Uiso   1.00
O1313  O     0.19682   0.85438   0.76702   0.00000  Uiso   1.00
O1314  O     0.14562   0.69681   0.23300   0.00000  Uiso   1.00
O1315  O     0.35438   0.80318   0.76702   0.00000  Uiso   1.00
O1316  O     0.19681   0.85438   0.23300   0.00000  Uiso   1.00
Zn1317 Zn    0.20660   0.50000   0.21760   0.00000  Uiso   1.00
Zn1318 Zn    0.04340   0.75000   0.28240   0.00000  Uiso   1.00
Zn1319 Zn    0.25000   0.95660   0.71760   0.00000  Uiso   1.00
Zn1320 Zn    0.25000   0.54340   0.28240   0.00000  Uiso   1.00
Zn1321 Zn    0.04340   0.75000   0.71760   0.00000  Uiso   1.00
Zn1322 Zn    0.45660   0.75000   0.28240   0.00000  Uiso   1.00
Zn1323 Zn    0.25000   0.54340   0.71760   0.00000  Uiso   1.00
Zn1324 Zn    0.25000   0.95660   0.28240   0.00000  Uiso   1.00
Zn1325 Zn    0.29340   0.50000   0.78240   0.00000  Uiso   1.00
Zn1326 Zn    0.00000   0.70660   0.21760   0.00000  Uiso   1.00
Zn1327 Zn    0.00000   0.79340   0.78240   0.00000  Uiso   1.00
Zn1328 Zn    0.29340   0.50000   0.21760   0.00000  Uiso   1.00
Zn1329 Zn    0.20660   0.50000   0.78240   0.00000  Uiso   1.00
Zn1330 Zn    0.00000   0.79340   0.21760   0.00000  Uiso   1.00
Zn1331 Zn    0.00000   0.70660   0.78240   0.00000  Uiso   1.00
Zn1332 Zn    0.45660   0.75000   0.71760   0.00000  Uiso   1.00
C1333  C     0.71822   0.51061   0.04186   0.00000  Uiso   1.00
C1334  C     0.52720   0.76961   0.45774   0.00000  Uiso   1.00
C1335  C     0.84802   0.90198   0.75000   0.00000  Uiso   1.00
C1336  C     0.90198   0.65198   0.25000   0.00000  Uiso   1.00
C1337  C     0.59802   0.84802   0.75000   0.00000  Uiso   1.00
C1338  C     0.84802   0.90198   0.25000   0.00000  Uiso   1.00
C1339  C     0.65198   0.59802   0.75000   0.00000  Uiso   1.00
C1340  C     0.59802   0.65198   0.75000   0.00000  Uiso   1.00
C1341  C     0.90198   0.84802   0.25000   0.00000  Uiso   1.00
C1342  C     0.65198   0.90198   0.75000   0.00000  Uiso   1.00
C1343  C     0.84802   0.59802   0.25000   0.00000  Uiso   1.00
C1344  C     0.90198   0.84802   0.75000   0.00000  Uiso   1.00
C1345  C     0.73938   0.96822   0.54186   0.00000  Uiso   1.00
C1346  C     0.59802   0.65198   0.25000   0.00000  Uiso   1.00
C1347  C     0.84802   0.59802   0.75000   0.00000  Uiso   1.00
C1348  C     0.65198   0.90198   0.25000   0.00000  Uiso   1.00
C1349  C     0.75000   0.50000   0.10241   0.00000  Uiso   1.00
C1350  C     0.75000   0.50000   0.89733   0.00000  Uiso   1.00
C1351  C     0.50000   0.75000   0.10241   0.00000  Uiso   1.00
C1352  C     0.50000   0.75000   0.89733   0.00000  Uiso   1.00
C1353  C     0.50000   0.75000   0.60240   0.00000  Uiso   1.00
C1354  C     0.50000   0.75000   0.39733   0.00000  Uiso   1.00
C1355  C     0.75000   0.50000   0.60241   0.00000  Uiso   1.00
C1356  C     0.73039   0.52720   0.45774   0.00000  Uiso   1.00
C1357  C     0.75000   0.50000   0.39733   0.00000  Uiso   1.00
C1358  C     0.68528   0.55479   0.00942   0.00000  Uiso   1.00
C1359  C     0.67872   0.58252   0.04199   0.00000  Uiso   1.00
C1360  C     0.67079   0.62050   0.02583   0.00000  Uiso   1.00
C1361  C     0.79447   0.57185   0.99040   0.00000  Uiso   1.00
C1362  C     0.79026   0.60015   0.95792   0.00000  Uiso   1.00
C1363  C     0.78383   0.63833   0.97427   0.00000  Uiso   1.00
C1364  C     0.94521   0.68528   0.00942   0.00000  Uiso   1.00
C1365  C     0.91747   0.67874   0.04198   0.00000  Uiso   1.00
C1366  C     0.87950   0.67080   0.02582   0.00000  Uiso   1.00
C1367  C     0.53179   0.73940   0.54186   0.00000  Uiso   1.00
C1368  C     0.92815   0.79447   0.99040   0.00000  Uiso   1.00
C1369  C     0.89985   0.79027   0.95792   0.00000  Uiso   1.00
C1370  C     0.86167   0.78384   0.97426   0.00000  Uiso   1.00
C1371  C     0.81472   0.94521   0.00942   0.00000  Uiso   1.00
C1372  C     0.82128   0.91748   0.04199   0.00000  Uiso   1.00
C1373  C     0.82921   0.87950   0.02583   0.00000  Uiso   1.00
C1374  C     0.70553   0.92815   0.99040   0.00000  Uiso   1.00
C1375  C     0.70974   0.89985   0.95792   0.00000  Uiso   1.00
C1376  C     0.71617   0.86167   0.97427   0.00000  Uiso   1.00
C1377  C     0.55479   0.81472   0.00942   0.00000  Uiso   1.00
C1378  C     0.97280   0.73041   0.45775   0.00000  Uiso   1.00
C1379  C     0.58252   0.82128   0.04199   0.00000  Uiso   1.00
C1380  C     0.62050   0.82922   0.02583   0.00000  Uiso   1.00
C1381  C     0.57185   0.70553   0.99040   0.00000  Uiso   1.00
C1382  C     0.60015   0.70974   0.95792   0.00000  Uiso   1.00
C1383  C     0.63833   0.71617   0.97427   0.00000  Uiso   1.00
C1384  C     0.93530   0.80481   0.50943   0.00000  Uiso   1.00
C1385  C     0.92872   0.83253   0.54200   0.00000  Uiso   1.00
C1386  C     0.92078   0.87051   0.52585   0.00000  Uiso   1.00
C1387  C     0.54447   0.82185   0.49040   0.00000  Uiso   1.00
C1388  C     0.54015   0.85015   0.45794   0.00000  Uiso   1.00
C1389  C     0.76060   0.53178   0.54186   0.00000  Uiso   1.00
C1390  C     0.53376   0.88833   0.47429   0.00000  Uiso   1.00
C1391  C     0.69520   0.93528   0.50943   0.00000  Uiso   1.00
C1392  C     0.66748   0.92869   0.54200   0.00000  Uiso   1.00
C1393  C     0.62950   0.92077   0.52585   0.00000  Uiso   1.00
C1394  C     0.67815   0.54448   0.49039   0.00000  Uiso   1.00
C1395  C     0.64985   0.54027   0.45792   0.00000  Uiso   1.00
C1396  C     0.61166   0.53383   0.47426   0.00000  Uiso   1.00
C1397  C     0.56474   0.69524   0.50941   0.00000  Uiso   1.00
C1398  C     0.57125   0.66749   0.54197   0.00000  Uiso   1.00
C1399  C     0.57919   0.62952   0.52580   0.00000  Uiso   1.00
C1400  C     0.76959   0.97280   0.45775   0.00000  Uiso   1.00
C1401  C     0.95553   0.67816   0.49038   0.00000  Uiso   1.00
C1402  C     0.95957   0.64984   0.45790   0.00000  Uiso   1.00
C1403  C     0.96606   0.61166   0.47422   0.00000  Uiso   1.00
C1404  C     0.80477   0.56472   0.50942   0.00000  Uiso   1.00
C1405  C     0.83251   0.57128   0.54198   0.00000  Uiso   1.00
C1406  C     0.87048   0.57922   0.52582   0.00000  Uiso   1.00
C1407  C     0.82184   0.95553   0.49040   0.00000  Uiso   1.00
C1408  C     0.85014   0.95972   0.45792   0.00000  Uiso   1.00
C1409  C     0.88832   0.96617   0.47427   0.00000  Uiso   1.00
C1410  C     0.71827   0.50917   0.08212   0.00000  Uiso   1.00
C1411  C     0.77775   0.51791   0.91750   0.00000  Uiso   1.00
C1412  C     0.99083   0.71827   0.08212   0.00000  Uiso   1.00
C1413  C     0.77720   0.51960   0.95774   0.00000  Uiso   1.00
C1414  C     0.98209   0.77775   0.91750   0.00000  Uiso   1.00
C1415  C     0.78173   0.99083   0.08212   0.00000  Uiso   1.00
C1416  C     0.72225   0.98209   0.91750   0.00000  Uiso   1.00
C1417  C     0.50917   0.78173   0.08212   0.00000  Uiso   1.00
C1418  C     0.51791   0.72225   0.91750   0.00000  Uiso   1.00
C1419  C     0.96827   0.75918   0.58212   0.00000  Uiso   1.00
C1420  C     0.52775   0.76792   0.41749   0.00000  Uiso   1.00
C1421  C     0.74082   0.96827   0.58212   0.00000  Uiso   1.00
C1422  C     0.73208   0.52775   0.41750   0.00000  Uiso   1.00
C1423  C     0.53174   0.74083   0.58212   0.00000  Uiso   1.00
C1424  C     0.98939   0.71822   0.04186   0.00000  Uiso   1.00
C1425  C     0.97225   0.73209   0.41750   0.00000  Uiso   1.00
C1426  C     0.75916   0.53174   0.58212   0.00000  Uiso   1.00
C1427  C     0.76791   0.97225   0.41750   0.00000  Uiso   1.00
C1428  C     0.75000   0.50000   0.02118   0.00000  Uiso   1.00
C1429  C     0.75000   0.50000   0.97845   0.00000  Uiso   1.00
C1430  C     0.50000   0.75000   0.02118   0.00000  Uiso   1.00
C1431  C     0.50000   0.75000   0.97845   0.00000  Uiso   1.00
C1432  C     0.50001   0.75001   0.52118   0.00000  Uiso   1.00
C1433  C     0.50000   0.75001   0.47845   0.00000  Uiso   1.00
C1434  C     0.74999   0.50000   0.52118   0.00000  Uiso   1.00
C1435  C     0.98040   0.77720   0.95774   0.00000  Uiso   1.00
C1436  C     0.74999   0.50000   0.47845   0.00000  Uiso   1.00
C1437  C     0.75000   0.50000   0.35515   0.00000  Uiso   1.00
C1438  C     0.75000   0.50000   0.64476   0.00000  Uiso   1.00
C1439  C     0.50000   0.75000   0.35515   0.00000  Uiso   1.00
C1440  C     0.50000   0.75000   0.64476   0.00000  Uiso   1.00
C1441  C     0.50000   0.75000   0.85515   0.00000  Uiso   1.00
C1442  C     0.50000   0.75000   0.14476   0.00000  Uiso   1.00
C1443  C     0.75000   0.50000   0.85515   0.00000  Uiso   1.00
C1444  C     0.75000   0.50000   0.14476   0.00000  Uiso   1.00
C1445  C     0.68002   0.56998   0.25000   0.00000  Uiso   1.00
C1446  C     0.78178   0.98939   0.04186   0.00000  Uiso   1.00
C1447  C     0.81998   0.93002   0.75000   0.00000  Uiso   1.00
C1448  C     0.93002   0.68002   0.25000   0.00000  Uiso   1.00
C1449  C     0.56998   0.81998   0.75000   0.00000  Uiso   1.00
C1450  C     0.81998   0.93002   0.25000   0.00000  Uiso   1.00
C1451  C     0.68002   0.56998   0.75000   0.00000  Uiso   1.00
C1452  C     0.56998   0.81998   0.25000   0.00000  Uiso   1.00
C1453  C     0.93002   0.68002   0.75000   0.00000  Uiso   1.00
C1454  C     0.68002   0.93002   0.75000   0.00000  Uiso   1.00
C1455  C     0.81998   0.56998   0.25000   0.00000  Uiso   1.00
C1456  C     0.93002   0.81998   0.75000   0.00000  Uiso   1.00
C1457  C     0.72280   0.98040   0.95774   0.00000  Uiso   1.00
C1458  C     0.56998   0.68002   0.25000   0.00000  Uiso   1.00
C1459  C     0.81998   0.56998   0.75000   0.00000  Uiso   1.00
C1460  C     0.68002   0.93002   0.25000   0.00000  Uiso   1.00
C1461  C     0.56998   0.68002   0.75000   0.00000  Uiso   1.00
C1462  C     0.93002   0.81998   0.25000   0.00000  Uiso   1.00
C1463  C     0.61526   0.91162   0.25788   0.00000  Uiso   1.00
C1464  C     0.88473   0.58838   0.74213   0.00000  Uiso   1.00
C1465  C     0.58838   0.61526   0.25788   0.00000  Uiso   1.00
C1466  C     0.91162   0.88473   0.74212   0.00000  Uiso   1.00
C1467  C     0.88474   0.58838   0.25788   0.00000  Uiso   1.00
C1468  C     0.51061   0.78178   0.04186   0.00000  Uiso   1.00
C1469  C     0.61527   0.91162   0.74212   0.00000  Uiso   1.00
C1470  C     0.91162   0.88474   0.25788   0.00000  Uiso   1.00
C1471  C     0.58838   0.61527   0.74212   0.00000  Uiso   1.00
C1472  C     0.61526   0.58838   0.74213   0.00000  Uiso   1.00
C1473  C     0.88474   0.91162   0.25788   0.00000  Uiso   1.00
C1474  C     0.58838   0.88474   0.74212   0.00000  Uiso   1.00
C1475  C     0.91162   0.61526   0.25788   0.00000  Uiso   1.00
C1476  C     0.88474   0.91162   0.74212   0.00000  Uiso   1.00
C1477  C     0.61526   0.58838   0.25788   0.00000  Uiso   1.00
C1478  C     0.91162   0.61526   0.74213   0.00000  Uiso   1.00
C1479  C     0.51960   0.72280   0.95774   0.00000  Uiso   1.00
C1480  C     0.58838   0.88474   0.25788   0.00000  Uiso   1.00
C1481  C     0.86526   0.66162   0.75787   0.00000  Uiso   1.00
C1482  C     0.63473   0.83838   0.24212   0.00000  Uiso   1.00
C1483  C     0.83838   0.86526   0.75788   0.00000  Uiso   1.00
C1484  C     0.66162   0.63473   0.24212   0.00000  Uiso   1.00
C1485  C     0.63474   0.83838   0.75788   0.00000  Uiso   1.00
C1486  C     0.86527   0.66162   0.24212   0.00000  Uiso   1.00
C1487  C     0.66162   0.63474   0.75788   0.00000  Uiso   1.00
C1488  C     0.83838   0.86527   0.24212   0.00000  Uiso   1.00
C1489  C     0.86526   0.83838   0.24213   0.00000  Uiso   1.00
C1490  C     0.96823   0.76062   0.54186   0.00000  Uiso   1.00
C1491  C     0.63474   0.66162   0.75788   0.00000  Uiso   1.00
C1492  C     0.83838   0.63474   0.24212   0.00000  Uiso   1.00
C1493  C     0.66162   0.86526   0.75788   0.00000  Uiso   1.00
C1494  C     0.63474   0.66162   0.24212   0.00000  Uiso   1.00
C1495  C     0.86526   0.83838   0.75788   0.00000  Uiso   1.00
C1496  C     0.66162   0.86526   0.24212   0.00000  Uiso   1.00
C1497  C     0.83838   0.63474   0.75788   0.00000  Uiso   1.00
C1498  C     0.59802   0.84802   0.25000   0.00000  Uiso   1.00
C1499  C     0.90198   0.65198   0.75000   0.00000  Uiso   1.00
C1500  C     0.65198   0.59802   0.25000   0.00000  Uiso   1.00
H1501  H     0.69342   0.51606   0.09751   0.00000  Uiso   1.00
H1502  H     0.54940   0.78178   0.40193   0.00000  Uiso   1.00
H1503  H     0.60289   0.55759   0.49192   0.00000  Uiso   1.00
H1504  H     0.58769   0.69321   0.48849   0.00000  Uiso   1.00
H1505  H     0.53973   0.68841   0.49279   0.00000  Uiso   1.00
H1506  H     0.59482   0.67644   0.55989   0.00000  Uiso   1.00
H1507  H     0.54665   0.66594   0.56073   0.00000  Uiso   1.00
H1508  H     0.55621   0.62012   0.50737   0.00000  Uiso   1.00
H1509  H     0.58275   0.60989   0.54999   0.00000  Uiso   1.00
H1510  H     0.60468   0.62990   0.50836   0.00000  Uiso   1.00
H1511  H     0.93393   0.66855   0.51053   0.00000  Uiso   1.00
H1512  H     0.98085   0.67996   0.50789   0.00000  Uiso   1.00
H1513  H     0.73394   0.94342   0.59751   0.00000  Uiso   1.00
H1514  H     0.93435   0.64956   0.44000   0.00000  Uiso   1.00
H1515  H     0.98305   0.65722   0.43910   0.00000  Uiso   1.00
H1516  H     0.99112   0.61133   0.49230   0.00000  Uiso   1.00
H1517  H     0.96953   0.59194   0.45011   0.00000  Uiso   1.00
H1518  H     0.94241   0.60293   0.49206   0.00000  Uiso   1.00
H1519  H     0.80681   0.58764   0.48846   0.00000  Uiso   1.00
H1520  H     0.81162   0.53969   0.49284   0.00000  Uiso   1.00
H1521  H     0.82354   0.59487   0.55987   0.00000  Uiso   1.00
H1522  H     0.83406   0.54671   0.56078   0.00000  Uiso   1.00
H1523  H     0.87990   0.55623   0.50742   0.00000  Uiso   1.00
H1524  H     0.71823   0.54941   0.40193   0.00000  Uiso   1.00
H1525  H     0.89010   0.58281   0.55002   0.00000  Uiso   1.00
H1526  H     0.87010   0.60469   0.50836   0.00000  Uiso   1.00
H1527  H     0.83148   0.93388   0.51047   0.00000  Uiso   1.00
H1528  H     0.82000   0.98080   0.50800   0.00000  Uiso   1.00
H1529  H     0.85043   0.93458   0.43990   0.00000  Uiso   1.00
H1530  H     0.84275   0.98328   0.43924   0.00000  Uiso   1.00
H1531  H     0.88864   0.99112   0.49250   0.00000  Uiso   1.00
H1532  H     0.90803   0.96979   0.45016   0.00000  Uiso   1.00
H1533  H     0.89709   0.94242   0.49195   0.00000  Uiso   1.00
H1534  H     0.62562   0.96158   0.27519   0.00000  Uiso   1.00
H1535  H     0.55658   0.73395   0.59751   0.00000  Uiso   1.00
H1536  H     0.87437   0.53842   0.72480   0.00000  Uiso   1.00
H1537  H     0.53842   0.62562   0.27519   0.00000  Uiso   1.00
H1538  H     0.96157   0.87437   0.72480   0.00000  Uiso   1.00
H1539  H     0.87438   0.53842   0.27519   0.00000  Uiso   1.00
H1540  H     0.62563   0.96158   0.72479   0.00000  Uiso   1.00
H1541  H     0.96158   0.87438   0.27519   0.00000  Uiso   1.00
H1542  H     0.53842   0.62563   0.72480   0.00000  Uiso   1.00
H1543  H     0.62562   0.53842   0.72481   0.00000  Uiso   1.00
H1544  H     0.87437   0.96158   0.27521   0.00000  Uiso   1.00
H1545  H     0.53842   0.87437   0.72481   0.00000  Uiso   1.00
H1546  H     0.95059   0.71824   0.40194   0.00000  Uiso   1.00
H1547  H     0.96158   0.62563   0.27521   0.00000  Uiso   1.00
H1548  H     0.87437   0.96158   0.72481   0.00000  Uiso   1.00
H1549  H     0.62563   0.53842   0.27521   0.00000  Uiso   1.00
H1550  H     0.96158   0.62562   0.72482   0.00000  Uiso   1.00
H1551  H     0.53842   0.87437   0.27521   0.00000  Uiso   1.00
H1552  H     0.87562   0.71158   0.77518   0.00000  Uiso   1.00
H1553  H     0.62437   0.78843   0.22480   0.00000  Uiso   1.00
H1554  H     0.78842   0.87562   0.77519   0.00000  Uiso   1.00
H1555  H     0.71157   0.62437   0.22480   0.00000  Uiso   1.00
H1556  H     0.62438   0.78842   0.77519   0.00000  Uiso   1.00
H1557  H     0.76605   0.55658   0.59751   0.00000  Uiso   1.00
H1558  H     0.87563   0.71158   0.22480   0.00000  Uiso   1.00
H1559  H     0.71158   0.62438   0.77519   0.00000  Uiso   1.00
H1560  H     0.78842   0.87563   0.22480   0.00000  Uiso   1.00
H1561  H     0.87562   0.78842   0.22481   0.00000  Uiso   1.00
H1562  H     0.62437   0.71158   0.77521   0.00000  Uiso   1.00
H1563  H     0.78842   0.62437   0.22481   0.00000  Uiso   1.00
H1564  H     0.71158   0.87563   0.77521   0.00000  Uiso   1.00
H1565  H     0.62437   0.71158   0.22481   0.00000  Uiso   1.00
H1566  H     0.87563   0.78842   0.77521   0.00000  Uiso   1.00
H1567  H     0.71158   0.87563   0.22481   0.00000  Uiso   1.00
H1568  H     0.78176   0.95060   0.40194   0.00000  Uiso   1.00
H1569  H     0.78842   0.62437   0.77520   0.00000  Uiso   1.00
H1570  H     0.66237   0.55683   0.98846   0.00000  Uiso   1.00
H1571  H     0.71032   0.56164   0.99285   0.00000  Uiso   1.00
H1572  H     0.65513   0.57355   0.05987   0.00000  Uiso   1.00
H1573  H     0.79940   0.53177   0.90194   0.00000  Uiso   1.00
H1574  H     0.70329   0.58407   0.06079   0.00000  Uiso   1.00
H1575  H     0.69378   0.62992   0.00743   0.00000  Uiso   1.00
H1576  H     0.66719   0.64011   0.05003   0.00000  Uiso   1.00
H1577  H     0.64531   0.62012   0.00836   0.00000  Uiso   1.00
H1578  H     0.81613   0.58149   0.01046   0.00000  Uiso   1.00
H1579  H     0.76922   0.57000   0.00801   0.00000  Uiso   1.00
H1580  H     0.81539   0.60044   0.93988   0.00000  Uiso   1.00
H1581  H     0.76669   0.59275   0.93926   0.00000  Uiso   1.00
H1582  H     0.75889   0.63865   0.99253   0.00000  Uiso   1.00
H1583  H     0.78018   0.65803   0.95016   0.00000  Uiso   1.00
H1584  H     0.98394   0.69342   0.09751   0.00000  Uiso   1.00
H1585  H     0.80759   0.64710   0.99192   0.00000  Uiso   1.00
H1586  H     0.94317   0.66237   0.98847   0.00000  Uiso   1.00
H1587  H     0.93836   0.71032   0.99284   0.00000  Uiso   1.00
H1588  H     0.92644   0.65515   0.05988   0.00000  Uiso   1.00
H1589  H     0.91592   0.70332   0.06077   0.00000  Uiso   1.00
H1590  H     0.87008   0.69379   0.00741   0.00000  Uiso   1.00
H1591  H     0.85988   0.66722   0.05002   0.00000  Uiso   1.00
H1592  H     0.87988   0.64532   0.00837   0.00000  Uiso   1.00
H1593  H     0.91851   0.81612   0.01046   0.00000  Uiso   1.00
H1594  H     0.93000   0.76921   0.00800   0.00000  Uiso   1.00
H1595  H     0.96823   0.79940   0.90194   0.00000  Uiso   1.00
H1596  H     0.89957   0.81540   0.93989   0.00000  Uiso   1.00
H1597  H     0.90725   0.76670   0.93925   0.00000  Uiso   1.00
H1598  H     0.86135   0.75890   0.99252   0.00000  Uiso   1.00
H1599  H     0.84196   0.78019   0.95016   0.00000  Uiso   1.00
H1600  H     0.85290   0.80759   0.99192   0.00000  Uiso   1.00
H1601  H     0.83763   0.94318   0.98846   0.00000  Uiso   1.00
H1602  H     0.78968   0.93836   0.99285   0.00000  Uiso   1.00
H1603  H     0.84487   0.92645   0.05987   0.00000  Uiso   1.00
H1604  H     0.79671   0.91593   0.06078   0.00000  Uiso   1.00
H1605  H     0.80622   0.87008   0.00743   0.00000  Uiso   1.00
H1606  H     0.80658   0.98394   0.09751   0.00000  Uiso   1.00
H1607  H     0.83281   0.85989   0.05002   0.00000  Uiso   1.00
H1608  H     0.85468   0.87989   0.00836   0.00000  Uiso   1.00
H1609  H     0.68387   0.91851   0.01046   0.00000  Uiso   1.00
H1610  H     0.73078   0.93000   0.00801   0.00000  Uiso   1.00
H1611  H     0.68460   0.89957   0.93989   0.00000  Uiso   1.00
H1612  H     0.73331   0.90725   0.93926   0.00000  Uiso   1.00
H1613  H     0.74111   0.86135   0.99253   0.00000  Uiso   1.00
H1614  H     0.71982   0.84197   0.95016   0.00000  Uiso   1.00
H1615  H     0.69241   0.85290   0.99193   0.00000  Uiso   1.00
H1616  H     0.55682   0.83762   0.98846   0.00000  Uiso   1.00
H1617  H     0.70059   0.96823   0.90194   0.00000  Uiso   1.00
H1618  H     0.56164   0.78968   0.99286   0.00000  Uiso   1.00
H1619  H     0.57355   0.84488   0.05986   0.00000  Uiso   1.00
H1620  H     0.58407   0.79671   0.06079   0.00000  Uiso   1.00
H1621  H     0.62992   0.80622   0.00744   0.00000  Uiso   1.00
H1622  H     0.64011   0.83282   0.05002   0.00000  Uiso   1.00
H1623  H     0.62011   0.85468   0.00836   0.00000  Uiso   1.00
H1624  H     0.58149   0.68387   0.01046   0.00000  Uiso   1.00
H1625  H     0.57000   0.73078   0.00802   0.00000  Uiso   1.00
H1626  H     0.60043   0.68462   0.93988   0.00000  Uiso   1.00
H1627  H     0.59275   0.73332   0.93926   0.00000  Uiso   1.00
H1628  H     0.51606   0.80658   0.09751   0.00000  Uiso   1.00
H1629  H     0.63865   0.74111   0.99254   0.00000  Uiso   1.00
H1630  H     0.65803   0.71983   0.95017   0.00000  Uiso   1.00
H1631  H     0.64710   0.69241   0.99192   0.00000  Uiso   1.00
H1632  H     0.91241   0.80685   0.48845   0.00000  Uiso   1.00
H1633  H     0.96035   0.81167   0.49289   0.00000  Uiso   1.00
H1634  H     0.90512   0.82355   0.55987   0.00000  Uiso   1.00
H1635  H     0.95328   0.83408   0.56081   0.00000  Uiso   1.00
H1636  H     0.94377   0.87994   0.50747   0.00000  Uiso   1.00
H1637  H     0.91717   0.89012   0.55005   0.00000  Uiso   1.00
H1638  H     0.89531   0.87012   0.50838   0.00000  Uiso   1.00
H1639  H     0.53177   0.70060   0.90194   0.00000  Uiso   1.00
H1640  H     0.56616   0.83153   0.51041   0.00000  Uiso   1.00
H1641  H     0.51926   0.81998   0.50809   0.00000  Uiso   1.00
H1642  H     0.56522   0.85043   0.43981   0.00000  Uiso   1.00
H1643  H     0.51652   0.84274   0.43936   0.00000  Uiso   1.00
H1644  H     0.50890   0.88864   0.49267   0.00000  Uiso   1.00
H1645  H     0.53000   0.90802   0.45020   0.00000  Uiso   1.00
H1646  H     0.55759   0.89713   0.49183   0.00000  Uiso   1.00
H1647  H     0.69317   0.91238   0.48846   0.00000  Uiso   1.00
H1648  H     0.68834   0.96033   0.49288   0.00000  Uiso   1.00
H1649  H     0.67646   0.90509   0.55985   0.00000  Uiso   1.00
H1650  H     0.94342   0.76606   0.59751   0.00000  Uiso   1.00
H1651  H     0.66593   0.95325   0.56082   0.00000  Uiso   1.00
H1652  H     0.62007   0.94378   0.50749   0.00000  Uiso   1.00
H1653  H     0.60990   0.91714   0.55005   0.00000  Uiso   1.00
H1654  H     0.62988   0.89531   0.50834   0.00000  Uiso   1.00
H1655  H     0.66850   0.56614   0.51045   0.00000  Uiso   1.00
H1656  H     0.67999   0.51923   0.50801   0.00000  Uiso   1.00
H1657  H     0.64956   0.56540   0.43988   0.00000  Uiso   1.00
H1658  H     0.65724   0.51669   0.43925   0.00000  Uiso   1.00
H1659  H     0.61134   0.50889   0.49252   0.00000  Uiso   1.00
H1660  H     0.59196   0.53018   0.45015   0.00000  Uiso   1.00
O1661  O     0.75000   0.50000   0.25000   0.00000  Uiso   1.00
O1662  O     0.75000   0.96964   0.66317   0.00000  Uiso   1.00
O1663  O     0.80318   0.64562   0.76701   0.00000  Uiso   1.00
O1664  O     0.96964   0.75000   0.33683   0.00000  Uiso   1.00
O1665  O     0.53036   0.75000   0.66317   0.00000  Uiso   1.00
O1666  O     0.50000   0.71964   0.83683   0.00000  Uiso   1.00
O1667  O     0.50000   0.78036   0.16317   0.00000  Uiso   1.00
O1668  O     0.78036   0.50000   0.83683   0.00000  Uiso   1.00
O1669  O     0.71964   0.50000   0.16317   0.00000  Uiso   1.00
O1670  O     0.50000   0.78036   0.83683   0.00000  Uiso   1.00
O1671  O     0.50000   0.71964   0.16317   0.00000  Uiso   1.00
O1672  O     0.71964   0.50000   0.83683   0.00000  Uiso   1.00
O1673  O     0.75000   0.50000   0.75000   0.00000  Uiso   1.00
O1674  O     0.78036   0.50000   0.16317   0.00000  Uiso   1.00
O1675  O     0.70725   0.57307   0.27282   0.00000  Uiso   1.00
O1676  O     0.79274   0.92693   0.72718   0.00000  Uiso   1.00
O1677  O     0.92693   0.70726   0.27282   0.00000  Uiso   1.00
O1678  O     0.57307   0.79275   0.72718   0.00000  Uiso   1.00
O1679  O     0.79274   0.92693   0.27282   0.00000  Uiso   1.00
O1680  O     0.70725   0.57307   0.72718   0.00000  Uiso   1.00
O1681  O     0.57307   0.79275   0.27282   0.00000  Uiso   1.00
O1682  O     0.92693   0.70726   0.72718   0.00000  Uiso   1.00
O1683  O     0.70725   0.92693   0.72718   0.00000  Uiso   1.00
O1684  O     0.50000   0.75000   0.25000   0.00000  Uiso   1.00
O1685  O     0.79274   0.57307   0.27282   0.00000  Uiso   1.00
O1686  O     0.92693   0.79275   0.72718   0.00000  Uiso   1.00
O1687  O     0.57307   0.70726   0.27282   0.00000  Uiso   1.00
O1688  O     0.79274   0.57307   0.72718   0.00000  Uiso   1.00
O1689  O     0.70725   0.92693   0.27282   0.00000  Uiso   1.00
O1690  O     0.57307   0.70726   0.72718   0.00000  Uiso   1.00
O1691  O     0.92693   0.79275   0.27282   0.00000  Uiso   1.00
O1692  O     0.95725   0.82307   0.77282   0.00000  Uiso   1.00
O1693  O     0.54274   0.67693   0.22718   0.00000  Uiso   1.00
O1694  O     0.67693   0.95726   0.77282   0.00000  Uiso   1.00
O1695  O     0.50000   0.75000   0.75000   0.00000  Uiso   1.00
O1696  O     0.82307   0.54275   0.22718   0.00000  Uiso   1.00
O1697  O     0.54274   0.67693   0.77282   0.00000  Uiso   1.00
O1698  O     0.95725   0.82307   0.22718   0.00000  Uiso   1.00
O1699  O     0.82307   0.54275   0.77282   0.00000  Uiso   1.00
O1700  O     0.67693   0.95726   0.22718   0.00000  Uiso   1.00
O1701  O     0.95725   0.67693   0.22718   0.00000  Uiso   1.00
O1702  O     0.54274   0.82307   0.77282   0.00000  Uiso   1.00
O1703  O     0.67693   0.54275   0.22718   0.00000  Uiso   1.00
O1704  O     0.82307   0.95726   0.77282   0.00000  Uiso   1.00
O1705  O     0.54274   0.82307   0.22718   0.00000  Uiso   1.00
O1706  O     0.75000   0.96964   0.33683   0.00000  Uiso   1.00
O1707  O     0.95725   0.67693   0.77282   0.00000  Uiso   1.00
O1708  O     0.82307   0.95726   0.22718   0.00000  Uiso   1.00
O1709  O     0.67693   0.54275   0.77282   0.00000  Uiso   1.00
O1710  O     0.68547   0.51853   0.02354   0.00000  Uiso   1.00
O1711  O     0.80581   0.53750   0.97598   0.00000  Uiso   1.00
O1712  O     0.98147   0.68547   0.02354   0.00000  Uiso   1.00
O1713  O     0.96250   0.80581   0.97598   0.00000  Uiso   1.00
O1714  O     0.81452   0.98147   0.02354   0.00000  Uiso   1.00
O1715  O     0.69419   0.96251   0.97598   0.00000  Uiso   1.00
O1716  O     0.51853   0.81452   0.02354   0.00000  Uiso   1.00
O1717  O     0.75000   0.53036   0.66317   0.00000  Uiso   1.00
O1718  O     0.53749   0.69419   0.97598   0.00000  Uiso   1.00
O1719  O     0.93548   0.76855   0.52354   0.00000  Uiso   1.00
O1720  O     0.55581   0.78751   0.47597   0.00000  Uiso   1.00
O1721  O     0.73147   0.93548   0.52354   0.00000  Uiso   1.00
O1722  O     0.71250   0.55581   0.47598   0.00000  Uiso   1.00
O1723  O     0.56454   0.73150   0.52354   0.00000  Uiso   1.00
O1724  O     0.94420   0.71252   0.47599   0.00000  Uiso   1.00
O1725  O     0.76851   0.56453   0.52354   0.00000  Uiso   1.00
O1726  O     0.78749   0.94420   0.47598   0.00000  Uiso   1.00
O1727  O     0.60438   0.94682   0.26701   0.00000  Uiso   1.00
O1728  O     0.53036   0.75000   0.33683   0.00000  Uiso   1.00
O1729  O     0.89562   0.55318   0.73300   0.00000  Uiso   1.00
O1730  O     0.55318   0.60438   0.26701   0.00000  Uiso   1.00
O1731  O     0.94681   0.89562   0.73299   0.00000  Uiso   1.00
O1732  O     0.89562   0.55318   0.26701   0.00000  Uiso   1.00
O1733  O     0.60438   0.94682   0.73299   0.00000  Uiso   1.00
O1734  O     0.94682   0.89562   0.26700   0.00000  Uiso   1.00
O1735  O     0.55318   0.60438   0.73299   0.00000  Uiso   1.00
O1736  O     0.60438   0.55319   0.73300   0.00000  Uiso   1.00
O1737  O     0.89562   0.94682   0.26701   0.00000  Uiso   1.00
O1738  O     0.55319   0.89562   0.73300   0.00000  Uiso   1.00
O1739  O     0.96964   0.75000   0.66317   0.00000  Uiso   1.00
O1740  O     0.94682   0.60438   0.26702   0.00000  Uiso   1.00
O1741  O     0.89562   0.94681   0.73300   0.00000  Uiso   1.00
O1742  O     0.60438   0.55318   0.26702   0.00000  Uiso   1.00
O1743  O     0.94682   0.60438   0.73301   0.00000  Uiso   1.00
O1744  O     0.55318   0.89562   0.26702   0.00000  Uiso   1.00
O1745  O     0.85438   0.69682   0.76700   0.00000  Uiso   1.00
O1746  O     0.64562   0.80319   0.23299   0.00000  Uiso   1.00
O1747  O     0.80318   0.85438   0.76701   0.00000  Uiso   1.00
O1748  O     0.69681   0.64562   0.23299   0.00000  Uiso   1.00
O1749  O     0.64562   0.80318   0.76701   0.00000  Uiso   1.00
O1750  O     0.75000   0.53036   0.33683   0.00000  Uiso   1.00
O1751  O     0.85438   0.69681   0.23299   0.00000  Uiso   1.00
O1752  O     0.69682   0.64562   0.76700   0.00000  Uiso   1.00
O1753  O     0.80318   0.85438   0.23299   0.00000  Uiso   1.00
O1754  O     0.85438   0.80319   0.23300   0.00000  Uiso   1.00
O1755  O     0.64562   0.69682   0.76701   0.00000  Uiso   1.00
O1756  O     0.80319   0.64562   0.23299   0.00000  Uiso   1.00
O1757  O     0.69682   0.85438   0.76702   0.00000  Uiso   1.00
O1758  O     0.64562   0.69681   0.23300   0.00000  Uiso   1.00
O1759  O     0.85438   0.80318   0.76702   0.00000  Uiso   1.00
O1760  O     0.69681   0.85438   0.23300   0.00000  Uiso   1.00
Zn1761 Zn    0.70660   0.50000   0.21760   0.00000  Uiso   1.00
Zn1762 Zn    0.54340   0.75000   0.28240   0.00000  Uiso   1.00
Zn1763 Zn    0.75000   0.95660   0.71760   0.00000  Uiso   1.00
Zn1764 Zn    0.75000   0.54340   0.28240   0.00000  Uiso   1.00
Zn1765 Zn    0.54340   0.75000   0.71760   0.00000  Uiso   1.00
Zn1766 Zn    0.95660   0.75000   0.28240   0.00000  Uiso   1.00
Zn1767 Zn    0.75000   0.54340   0.71760   0.00000  Uiso   1.00
Zn1768 Zn    0.75000   0.95660   0.28240   0.00000  Uiso   1.00
Zn1769 Zn    0.79340   0.50000   0.78240   0.00000  Uiso   1.00
Zn1770 Zn    0.50000   0.70660   0.21760   0.00000  Uiso   1.00
Zn1771 Zn    0.50000   0.79340   0.78240   0.00000  Uiso   1.00
Zn1772 Zn    0.79340   0.50000   0.21760   0.00000  Uiso   1.00
Zn1773 Zn    0.70660   0.50000   0.78240   0.00000  Uiso   1.00
Zn1774 Zn    0.50000   0.79340   0.21760   0.00000  Uiso   1.00
Zn1775 Zn    0.50000   0.70660   0.78240   0.00000  Uiso   1.00
Zn1776 Zn    0.95660   0.75000   0.71760   0.00000  Uiso   1.00
loop_
_geom_bond_atom_site_label_1
_geom_bond_atom_site_label_2
_geom_bond_distance
_geom_bond_site_symmetry_2
_ccdc_geom_bond_type
C1     O378    1.386   .     S
C1     C78     1.393   .     A
C1     C96     1.419   .     A
C2     C88     1.393   .     A
C2     C101    1.421   .     A
C2     O388    1.387   .     S
C3     C115    1.451   .     S
C3     C144    1.416   .     A
C3     C151    1.416   .     A
C4     C154    1.416   .     A
C4     C116    1.451   .     S
C4     C143    1.416   .     A
C5     C142    1.416   .     A
C5     C117    1.451   .     S
C5     C153    1.416   .     A
C6     C141    1.416   .     A
C6     C156    1.416   .     A
C6     C118    1.451   .     S
C7     C119    1.451   .     S
C7     C140    1.416   .     A
C7     C155    1.416   .     A
C8     C129    1.451   .     S
C8     C159    1.416   .     A
C8     C139    1.416   .     A
C9     C138    1.416   .     A
C9     C130    1.451   .     S
C9     C157    1.416   .     A
C10    C122    1.451   .     S
C10    C161    1.416   .     A
C10    C137    1.416   .     A
C11    C160    1.416   .     A
C11    C135    1.416   .     A
C11    C123    1.451   .     S
C12    C163    1.416   .     A
C12    C134    1.416   .     A
C12    C124    1.451   .     S
C13    O389    1.386   .     S
C13    C89     1.393   .     A
C13    C990    1.419   .     S
C14    C126    1.451   .     S
C14    C133    1.416   .     A
C14    C162    1.416   .     A
C15    C132    1.416   .     A
C15    C127    1.451   .     S
C15    C165    1.416   .     A
C16    C164    1.416   .     A
C16    C131    1.416   .     A
C16    C128    1.451   .     S
C17    C78     1.398   .     A
C17    C112    1.465   .     S
C17    C971    1.398   1_545 S
C18    C111    1.459   .     S
C18    C79     1.396   .     A
C18    C972    1.396   1_545 S
C19    C524    1.398   1_455 A
C19    C110    1.465   .     S
C19    C85     1.398   .     S
C20    C86     1.396   .     A
C20    C109    1.459   .     S
C20    C526    1.396   1_455 S
C21    C108    1.465   .     S
C21    C91     1.398   .     A
C21    C531    1.398   1_455 S
C22    C107    1.459   .     S
C22    C88     1.396   .     A
C22    C537    1.396   1_455 S
C23    C94     1.398   .     A
C23    C106    1.465   .     S
C23    C977    1.398   1_545 S
C24    C90     1.393   .     A
C24    O390    1.387   .     S
C24    C104    1.421   .     A
C25    C105    1.459   .     S
C25    C90     1.396   .     A
C25    C983    1.396   1_545 S
C26    C27     1.535   .     S
C26    O378    1.414   .     S
C26    H238    1.111   1_554 S
C26    H239    1.109   1_554 S
C27    H240    1.112   .     S
C27    H242    1.111   .     S
C27    C28     1.526   .     S
C28    H244    1.110   .     S
C28    H243    1.110   .     S
C28    H245    1.111   .     S
C29    O379    1.415   .     S
C29    C30     1.536   .     S
C29    H246    1.111   1_556 S
C29    H247    1.109   1_556 S
C30    H248    1.112   .     S
C30    C31     1.526   .     S
C30    H249    1.111   .     S
C31    H253    1.110   .     S
C31    H251    1.110   .     S
C31    H250    1.110   .     S
C32    O380    1.414   .     S
C32    C33     1.535   .     S
C32    H254    1.111   1_554 S
C32    H255    1.109   1_554 S
C33    H257    1.111   .     S
C33    H256    1.112   .     S
C33    C34     1.526   .     S
C34    H260    1.111   .     S
C34    H258    1.110   .     S
C34    H259    1.110   .     S
C35    C100    1.420   .     A
C35    O391    1.386   .     S
C35    C91     1.393   .     A
C36    C37     1.535   .     S
C36    O381    1.415   .     S
C36    H261    1.111   1_556 S
C36    H262    1.109   1_556 S
C37    C38     1.526   .     S
C37    H264    1.112   .     S
C37    H265    1.111   .     S
C38    H267    1.110   .     S
C38    H268    1.110   .     S
C38    H266    1.110   .     S
C39    O382    1.414   .     S
C39    C40     1.535   .     S
C39    H269    1.111   1_554 S
C39    H270    1.109   1_554 S
C40    H272    1.111   .     S
C40    H271    1.112   .     S
C40    C41     1.526   .     S
C41    H273    1.110   .     S
C41    H275    1.110   .     S
C41    H276    1.111   .     S
C42    O383    1.415   .     S
C42    C43     1.536   .     S
C42    H277    1.111   1_556 S
C42    H278    1.109   1_556 S
C43    H279    1.111   .     S
C43    C44     1.526   .     S
C43    H280    1.111   .     S
C44    H282    1.110   .     S
C44    H283    1.110   .     S
C44    H281    1.110   .     S
C45    C47     1.535   .     S
C45    O384    1.414   .     S
C45    H284    1.111   1_554 S
C45    H286    1.109   1_554 S
C46    O392    1.387   .     S
C46    C93     1.393   .     A
C46    C545    1.421   .     S
C47    H287    1.112   .     S
C47    H288    1.111   .     S
C47    C48     1.526   .     S
C48    H289    1.110   .     S
C48    H291    1.111   .     S
C48    H290    1.110   .     S
C49    O386    1.415   .     S
C49    C50     1.535   .     S
C49    H292    1.111   1_556 S
C49    H293    1.109   1_556 S
C50    H295    1.111   .     S
C50    C51     1.526   .     S
C50    H294    1.112   .     S
C51    H298    1.110   .     S
C51    H299    1.110   .     S
C51    H297    1.110   .     S
C52    O387    1.414   .     S
C52    C53     1.535   .     S
C52    H300    1.111   .     S
C52    H301    1.109   .     S
C53    H302    1.112   .     S
C53    C54     1.526   .     S
C53    H303    1.111   .     S
C54    H305    1.110   .     S
C54    H304    1.110   .     S
C54    H306    1.111   .     S
C55    C56     1.536   .     S
C55    H309    1.109   .     S
C55    H308    1.111   .     S
C55    O388    1.415   .     S
C56    H311    1.111   .     S
C56    H310    1.111   .     S
C56    C58     1.526   .     S
C57    O393    1.386   .     S
C57    C102    1.419   .     A
C57    C94     1.393   .     A
C58    H312    1.110   .     S
C58    H314    1.110   .     S
C58    H313    1.110   .     S
C59    C60     1.535   .     S
C59    O389    1.414   .     S
C59    H315    1.111   .     S
C59    H316    1.109   .     S
C60    H319    1.111   .     S
C60    C61     1.526   .     S
C60    H317    1.112   .     S
C61    H320    1.110   .     S
C61    H322    1.111   .     S
C61    H321    1.110   .     S
C62    H323    1.111   .     S
C62    O390    1.415   .     S
C62    C63     1.535   .     S
C62    H324    1.109   .     S
C63    H326    1.111   .     S
C63    C64     1.526   .     S
C63    H325    1.112   .     S
C64    H327    1.110   .     S
C64    H171    1.110   .     S
C64    H328    1.110   .     S
C65    H172    1.111   .     S
C65    H173    1.109   .     S
C65    O391    1.414   .     S
C65    C66     1.535   .     S
C66    H174    1.112   .     S
C66    C67     1.526   .     S
C66    H175    1.111   .     S
C67    H176    1.110   .     S
C67    H178    1.111   .     S
C67    H177    1.110   .     S
C68    C95     1.393   .     A
C68    O394    1.387   .     S
C68    C992    1.421   .     S
C69    O392    1.415   .     S
C69    H180    1.109   .     S
C69    C70     1.535   .     S
C69    H179    1.111   .     S
C70    H182    1.112   .     S
C70    C71     1.526   .     S
C70    H183    1.111   .     S
C71    H185    1.110   .     S
C71    H186    1.110   .     S
C71    H184    1.110   .     S
C72    C73     1.535   .     S
C72    O393    1.414   .     S
C72    H187    1.111   .     S
C72    H188    1.109   .     S
C73    H190    1.111   .     S
C73    C74     1.526   .     S
C73    H189    1.112   .     S
C74    H194    1.111   .     S
C74    H193    1.110   .     S
C74    H191    1.110   .     S
C75    C76     1.536   .     S
C75    H196    1.109   .     S
C75    H195    1.111   .     S
C75    O394    1.415   .     S
C76    H197    1.112   .     S
C76    H198    1.111   .     S
C76    C77     1.526   .     S
C77    H199    1.110   .     S
C77    H201    1.110   .     S
C77    H200    1.110   .     S
C78    H169    1.084   .     S
C79    H241    1.084   .     S
C79    C81     1.393   .     A
C80    C92     1.393   .     A
C80    C463    1.398   .     A
C80    H252    1.084   .     S
C81    O379    1.387   .     S
C81    C97     1.421   .     A
C82    C103    1.393   .     A
C82    H263    1.084   .     S
C82    C464    1.396   .     S
C83    H274    1.084   .     S
C83    C114    1.393   .     A
C83    C905    1.398   .     S
C84    H285    1.084   .     S
C84    C125    1.393   .     A
C84    C906    1.396   .     S
C85    H296    1.084   .     S
C85    C136    1.393   .     A
C86    C147    1.393   .     A
C86    H307    1.084   .     S
C87    H318    1.084   .     S
C87    C158    1.393   .     A
C87    C465    1.398   .     S
C88    H170    1.084   .     S
C89    H181    1.084   .     S
C89    C911    1.398   .     S
C90    H192    1.084   .     S
C91    H203    1.084   .     S
C92    C542    1.419   .     A
C92    O380    1.386   .     S
C93    H214    1.084   .     S
C93    C466    1.396   .     S
C94    H225    1.084   .     S
C95    H236    1.084   .     S
C95    C913    1.396   .     S
C96    C97     1.478   1_554 S
C96    C1002   1.419   1_545 S
C97    C96     1.478   1_556 S
C97    C1013   1.421   1_545 S
C98    C536    1.419   1_455 A
C98    C99     1.478   1_554 S
C98    C136    1.419   .     S
C99    C147    1.421   .     A
C99    C98     1.478   1_556 S
C99    C547    1.421   1_455 S
C100   C101    1.478   .     S
C100   C602    1.419   1_455 S
C101   C490    1.421   1_455 S
C102   C104    1.478   .     S
C102   C901    1.419   1_545 S
C103   O381    1.387   .     S
C103   C543    1.421   .     S
C104   C956    1.421   1_545 S
C105   O418    1.279   .     A
C105   O1262   1.279   1_545 S
C106   O385    1.281   .     A
C106   O1218   1.281   1_545 S
C107   O396    1.279   .     A
C107   O776    1.279   1_455 S
C108   O333    1.281   .     A
C108   O851    1.281   1_455 S
C109   O334    1.279   .     A
C109   O338    1.279   .     S
C110   O335    1.281   .     S
C110   O339    1.281   .     S
C111   O336    1.279   .     A
C111   O340    1.279   .     A
C112   O337    1.281   .     S
C112   O342    1.281   .     S
C113   C168    1.451   .     S
C113   O343    1.276   .     A
C113   O371    1.276   .     A
C114   O382    1.386   .     S
C114   C984    1.419   .     S
C115   O344    1.276   .     A
C115   O372    1.276   .     A
C116   O369    1.276   .     A
C116   O345    1.276   .     A
C117   O346    1.276   .     A
C117   O370    1.276   .     A
C118   O347    1.276   .     A
C118   O376    1.276   .     A
C119   O348    1.276   .     A
C119   O377    1.276   .     A
C120   O373    1.276   .     A
C120   C166    1.451   .     S
C120   O349    1.276   .     A
C121   O375    1.276   .     A
C121   C167    1.451   .     S
C121   O350    1.276   .     A
C122   O351    1.276   .     A
C122   O362    1.276   .     A
C123   O353    1.276   .     A
C123   O364    1.276   .     A
C124   O354    1.276   .     A
C124   O360    1.276   .     A
C125   O383    1.387   .     S
C125   C985    1.421   .     S
C126   O355    1.276   .     A
C126   O361    1.276   .     A
C127   O356    1.276   .     A
C127   O367    1.276   .     A
C128   O357    1.276   .     A
C128   O368    1.276   .     A
C129   O365    1.276   .     A
C129   O358    1.276   .     A
C130   O359    1.276   .     A
C130   O366    1.276   .     A
C131   O395    1.385   .     S
C131   C148    1.392   .     A
C132   C146    1.392   .     A
C132   O397    1.385   .     S
C133   C145    1.392   .     A
C133   O398    1.385   .     S
C134   O399    1.385   .     S
C134   C144    1.392   .     A
C135   C143    1.392   .     A
C135   O400    1.385   .     S
C136   O384    1.386   .     S
C137   O401    1.385   .     S
C137   C142    1.392   .     A
C138   C141    1.392   .     A
C138   O402    1.385   .     S
C139   O403    1.385   .     S
C139   C140    1.392   .     A
C140   O404    1.385   .     S
C141   O405    1.385   .     S
C142   O406    1.385   .     S
C143   O408    1.385   .     S
C144   O409    1.385   .     S
C145   O410    1.385   .     S
C145   C168    1.416   .     A
C146   O411    1.385   .     S
C146   C167    1.416   .     A
C147   O386    1.387   .     S
C148   O412    1.385   .     S
C148   C166    1.416   .     A
C149   O413    1.385   .     S
C149   C165    1.392   .     A
C149   C167    1.416   .     A
C150   C166    1.416   .     A
C150   O414    1.385   .     S
C150   C164    1.392   .     A
C151   C163    1.392   .     A
C151   O415    1.385   .     S
C152   O416    1.385   .     S
C152   C162    1.392   .     A
C152   C168    1.416   .     A
C153   C161    1.392   .     A
C153   O417    1.385   .     S
C154   O419    1.385   .     S
C154   C160    1.392   .     A
C155   C159    1.392   .     A
C155   O420    1.385   .     S
C156   O421    1.385   .     S
C156   C157    1.392   .     A
C157   O422    1.385   .     S
C158   O387    1.386   .     S
C158   C544    1.419   .     S
C159   O423    1.385   .     S
C160   O424    1.385   .     S
C161   O425    1.385   .     S
C162   O426    1.385   .     S
C163   O427    1.385   .     S
C164   O428    1.385   .     S
C165   O331    1.385   .     S
H202   O395    0.988   .     S
H204   O397    0.988   .     S
H205   O398    0.988   .     S
H206   O399    0.988   .     S
H207   O400    0.988   .     S
H208   O401    0.988   .     S
H209   O402    0.988   .     S
H210   O403    0.988   .     S
H211   O404    0.988   .     S
H212   O405    0.988   .     S
H213   O406    0.988   .     S
H215   O408    0.988   .     S
H216   O409    0.988   .     S
H217   O410    0.988   .     S
H218   O411    0.988   .     S
H219   O412    0.988   .     S
H220   O413    0.988   .     S
H221   O414    0.988   .     S
H222   O415    0.988   .     S
H223   O416    0.988   .     S
H224   O417    0.988   .     S
H226   O419    0.988   .     S
H227   O420    0.988   .     S
H228   O421    0.988   .     S
H229   O422    0.988   .     S
H230   O423    0.988   .     S
H231   O424    0.988   .     S
H232   O425    0.988   .     S
H233   O426    0.988   .     S
H234   O427    0.988   .     S
H235   O428    0.988   .     S
H237   O331    0.988   .     S
H238   C26     1.111   1_556 S
H239   C26     1.109   1_556 S
H246   C29     1.111   1_554 S
H247   C29     1.109   1_554 S
H254   C32     1.111   1_556 S
H255   C32     1.109   1_556 S
H261   C36     1.111   1_554 S
H262   C36     1.109   1_554 S
H269   C39     1.111   1_556 S
H270   C39     1.109   1_556 S
H277   C42     1.111   1_554 S
H278   C42     1.109   1_554 S
H284   C45     1.111   1_556 S
H286   C45     1.109   1_556 S
H292   C49     1.111   1_554 S
H293   C49     1.109   1_554 S
O329   Zn440   1.944   .     S
O329   Zn429   1.944   .     S
O329   Zn432   1.944   .     S
O329   Zn1324  1.944   1_545 S
O330   Zn431   1.942   .     S
O330   C994    1.281   .     S
O332   Zn434   1.942   .     S
O332   C551    1.279   .     S
O333   Zn433   1.942   .     S
O334   Zn443   1.942   .     S
O335   Zn442   1.942   .     S
O336   Zn437   1.942   .     S
O337   Zn429   1.942   .     S
O338   Zn439   1.942   .     S
O339   Zn438   1.942   .     S
O340   Zn441   1.942   .     S
O341   Zn435   1.944   .     S
O341   Zn441   1.944   .     S
O341   Zn437   1.944   .     S
O341   Zn1319  1.944   1_545 S
O342   Zn440   1.942   .     S
O343   Zn432   1.933   .     S
O344   Zn431   1.933   .     S
O345   Zn434   1.933   .     S
O346   Zn433   1.933   .     S
O347   Zn436   1.933   .     S
O348   Zn435   1.933   .     S
O349   Zn430   1.933   .     S
O350   Zn444   1.933   .     S
O351   Zn431   1.933   .     S
O352   Zn438   1.944   .     S
O352   Zn430   1.944   .     S
O352   Zn442   1.944   .     S
O352   Zn878   1.944   1_455 S
O353   Zn432   1.933   .     S
O354   Zn444   1.933   .     S
O355   Zn430   1.933   .     S
O356   Zn435   1.933   .     S
O357   Zn436   1.933   .     S
O358   Zn433   1.933   .     S
O359   Zn434   1.933   .     S
O360   Zn883   1.933   .     S
O361   Zn438   1.933   .     S
O362   Zn1329  1.933   .     S
O363   Zn443   1.944   .     S
O363   Zn439   1.944   .     S
O363   Zn433   1.944   .     S
O363   Zn888   1.944   1_455 S
O364   Zn440   1.933   .     S
O365   Zn443   1.933   .     S
O366   Zn886   1.933   .     S
O367   Zn437   1.933   .     S
O368   Zn1317  1.933   .     S
O369   Zn882   1.933   .     S
O370   Zn439   1.933   .     S
O371   Zn429   1.933   .     S
O372   Zn1325  1.933   .     S
O373   Zn442   1.933   .     S
O374   Zn436   1.942   .     S
O374   C993    1.279   .     S
O375   Zn887   1.933   .     S
O376   Zn1328  1.933   .     S
O377   Zn441   1.933   .     S
O385   Zn435   1.942   .     S
O396   Zn430   1.942   .     S
O407   Zn444   1.942   .     S
O407   C552    1.281   .     S
O418   Zn432   1.942   .     S
Zn429  O1256   1.933   1_545 S
Zn431  O1229   1.944   .     S
Zn434  O796    1.944   .     S
Zn436  O1217   1.944   .     S
Zn437  O1260   1.933   1_545 S
Zn438  O813    1.933   1_455 S
Zn439  O804    1.933   1_455 S
Zn440  O1264   1.933   1_545 S
Zn441  O1250   1.933   1_545 S
Zn442  O810    1.933   1_455 S
Zn443  O819    1.933   1_455 S
Zn444  O807    1.944   .     S
C445   O822    1.386   .     S
C445   C522    1.393   .     A
C445   C540    1.419   .     A
C446   C532    1.393   .     A
C446   C545    1.421   .     A
C446   O832    1.387   .     S
C447   C559    1.451   .     S
C447   C588    1.416   .     A
C447   C595    1.416   .     A
C448   C598    1.416   .     A
C448   C560    1.451   .     S
C448   C587    1.416   .     A
C449   C586    1.416   .     A
C449   C561    1.451   .     S
C449   C597    1.416   .     A
C450   C585    1.416   .     A
C450   C600    1.416   .     A
C450   C562    1.451   .     S
C451   C563    1.451   .     S
C451   C584    1.416   .     A
C451   C599    1.416   .     A
C452   C573    1.451   .     S
C452   C603    1.416   .     A
C452   C583    1.416   .     A
C453   C582    1.416   .     A
C453   C574    1.451   .     S
C453   C601    1.416   .     A
C454   C566    1.451   .     S
C454   C605    1.416   .     A
C454   C581    1.416   .     A
C455   C604    1.416   .     A
C455   C579    1.416   .     A
C455   C567    1.451   .     S
C456   C607    1.416   .     A
C456   C578    1.416   .     A
C456   C568    1.451   .     S
C457   O833    1.386   .     S
C457   C533    1.393   .     A
C457   C1434   1.419   .     S
C458   C570    1.451   .     S
C458   C577    1.416   .     A
C458   C606    1.416   .     A
C459   C576    1.416   .     A
C459   C571    1.451   .     S
C459   C609    1.416   .     A
C460   C608    1.416   .     A
C460   C575    1.416   .     A
C460   C572    1.451   .     S
C461   C522    1.398   .     A
C461   C556    1.465   .     S
C461   C1415   1.398   1_545 S
C462   C555    1.459   .     S
C462   C523    1.396   .     A
C462   C1416   1.396   1_545 S
C463   C554    1.465   .     S
C463   C529    1.398   .     S
C464   C530    1.396   .     A
C464   C553    1.459   .     S
C465   C552    1.465   .     S
C465   C535    1.398   .     A
C466   C551    1.459   .     S
C466   C532    1.396   .     A
C467   C538    1.398   .     A
C467   C550    1.465   .     S
C467   C1421   1.398   1_545 S
C468   C534    1.393   .     A
C468   O834    1.387   .     S
C468   C548    1.421   .     A
C469   C549    1.459   .     S
C469   C534    1.396   .     A
C469   C1427   1.396   1_545 S
C470   C471    1.535   .     S
C470   O822    1.414   .     S
C470   H682    1.111   1_554 S
C470   H683    1.109   1_554 S
C471   H684    1.112   .     S
C471   H686    1.111   .     S
C471   C472    1.526   .     S
C472   H688    1.110   .     S
C472   H687    1.110   .     S
C472   H689    1.111   .     S
C473   O823    1.415   .     S
C473   C474    1.536   .     S
C473   H690    1.111   1_556 S
C473   H691    1.109   1_556 S
C474   H692    1.112   .     S
C474   C475    1.526   .     S
C474   H693    1.111   .     S
C475   H697    1.110   .     S
C475   H695    1.110   .     S
C475   H694    1.110   .     S
C476   O824    1.414   .     S
C476   C477    1.535   .     S
C476   H698    1.111   1_554 S
C476   H699    1.109   1_554 S
C477   H701    1.111   .     S
C477   H700    1.112   .     S
C477   C478    1.526   .     S
C478   H704    1.111   .     S
C478   H702    1.110   .     S
C478   H703    1.110   .     S
C479   C544    1.420   .     A
C479   O835    1.386   .     S
C479   C535    1.393   .     A
C480   C481    1.535   .     S
C480   O825    1.415   .     S
C480   H705    1.111   1_556 S
C480   H706    1.109   1_556 S
C481   C482    1.526   .     S
C481   H708    1.112   .     S
C481   H709    1.111   .     S
C482   H711    1.110   .     S
C482   H712    1.110   .     S
C482   H710    1.110   .     S
C483   O826    1.414   .     S
C483   C484    1.535   .     S
C483   H713    1.111   1_554 S
C483   H714    1.109   1_554 S
C484   H716    1.111   .     S
C484   H715    1.112   .     S
C484   C485    1.526   .     S
C485   H717    1.110   .     S
C485   H719    1.110   .     S
C485   H720    1.111   .     S
C486   O827    1.415   .     S
C486   C487    1.536   .     S
C486   H721    1.111   1_556 S
C486   H722    1.109   1_556 S
C487   H723    1.111   .     S
C487   C488    1.526   .     S
C487   H724    1.111   .     S
C488   H726    1.110   .     S
C488   H727    1.110   .     S
C488   H725    1.110   .     S
C489   C491    1.535   .     S
C489   O828    1.414   .     S
C489   H728    1.111   1_554 S
C489   H730    1.109   1_554 S
C490   O836    1.387   .     S
C490   C537    1.393   .     A
C490   C101    1.421   1_655 S
C491   H731    1.112   .     S
C491   H732    1.111   .     S
C491   C492    1.526   .     S
C492   H733    1.110   .     S
C492   H735    1.111   .     S
C492   H734    1.110   .     S
C493   O830    1.415   .     S
C493   C494    1.535   .     S
C493   H736    1.111   1_556 S
C493   H737    1.109   1_556 S
C494   H739    1.111   .     S
C494   C495    1.526   .     S
C494   H738    1.112   .     S
C495   H742    1.110   .     S
C495   H743    1.110   .     S
C495   H741    1.110   .     S
C496   O831    1.414   .     S
C496   C497    1.535   .     S
C496   H744    1.111   .     S
C496   H745    1.109   .     S
C497   H746    1.112   .     S
C497   C498    1.526   .     S
C497   H747    1.111   .     S
C498   H749    1.110   .     S
C498   H748    1.110   .     S
C498   H750    1.111   .     S
C499   C500    1.536   .     S
C499   H753    1.109   .     S
C499   H752    1.111   .     S
C499   O832    1.415   .     S
C500   H755    1.111   .     S
C500   H754    1.111   .     S
C500   C502    1.526   .     S
C501   O837    1.386   .     S
C501   C546    1.419   .     A
C501   C538    1.393   .     A
C502   H756    1.110   .     S
C502   H758    1.110   .     S
C502   H757    1.110   .     S
C503   C504    1.535   .     S
C503   O833    1.414   .     S
C503   H759    1.111   .     S
C503   H760    1.109   .     S
C504   H763    1.111   .     S
C504   C505    1.526   .     S
C504   H761    1.112   .     S
C505   H764    1.110   .     S
C505   H766    1.111   .     S
C505   H765    1.110   .     S
C506   H767    1.111   .     S
C506   O834    1.415   .     S
C506   C507    1.535   .     S
C506   H768    1.109   .     S
C507   H770    1.111   .     S
C507   C508    1.526   .     S
C507   H769    1.112   .     S
C508   H771    1.110   .     S
C508   H615    1.110   .     S
C508   H772    1.110   .     S
C509   H616    1.111   .     S
C509   H617    1.109   .     S
C509   O835    1.414   .     S
C509   C510    1.535   .     S
C510   H618    1.112   .     S
C510   C511    1.526   .     S
C510   H619    1.111   .     S
C511   H620    1.110   .     S
C511   H622    1.111   .     S
C511   H621    1.110   .     S
C512   C539    1.393   .     A
C512   O838    1.387   .     S
C512   C1436   1.421   .     S
C513   O836    1.415   .     S
C513   H624    1.109   .     S
C513   C514    1.535   .     S
C513   H623    1.111   .     S
C514   H626    1.112   .     S
C514   C515    1.526   .     S
C514   H627    1.111   .     S
C515   H629    1.110   .     S
C515   H630    1.110   .     S
C515   H628    1.110   .     S
C516   C517    1.535   .     S
C516   O837    1.414   .     S
C516   H631    1.111   .     S
C516   H632    1.109   .     S
C517   H634    1.111   .     S
C517   C518    1.526   .     S
C517   H633    1.112   .     S
C518   H638    1.111   .     S
C518   H637    1.110   .     S
C518   H635    1.110   .     S
C519   C520    1.536   .     S
C519   H640    1.109   .     S
C519   H639    1.111   .     S
C519   O838    1.415   .     S
C520   H641    1.112   .     S
C520   H642    1.111   .     S
C520   C521    1.526   .     S
C521   H643    1.110   .     S
C521   H645    1.110   .     S
C521   H644    1.110   .     S
C522   H613    1.084   .     S
C523   H685    1.084   .     S
C523   C525    1.393   .     A
C524   C536    1.393   .     A
C524   C19     1.398   1_655 A
C524   H696    1.084   .     S
C525   O823    1.387   .     S
C525   C541    1.421   .     A
C526   C547    1.393   .     A
C526   H707    1.084   .     S
C526   C20     1.396   1_655 S
C527   H718    1.084   .     S
C527   C558    1.393   .     A
C527   C1349   1.398   .     S
C528   H729    1.084   .     S
C528   C569    1.393   .     A
C528   C1350   1.396   .     S
C529   H740    1.084   .     S
C529   C580    1.393   .     A
C530   C591    1.393   .     A
C530   H751    1.084   .     S
C531   H762    1.084   .     S
C531   C602    1.393   .     A
C531   C21     1.398   1_655 S
C532   H614    1.084   .     S
C533   H625    1.084   .     S
C533   C1355   1.398   .     S
C534   H636    1.084   .     S
C535   H647    1.084   .     S
C536   C98     1.419   1_655 A
C536   O824    1.386   .     S
C537   H658    1.084   .     S
C537   C22     1.396   1_655 S
C538   H669    1.084   .     S
C539   H680    1.084   .     S
C539   C1357   1.396   .     S
C540   C541    1.478   1_554 S
C540   C1446   1.419   1_545 S
C541   C540    1.478   1_556 S
C541   C1457   1.421   1_545 S
C542   C543    1.478   1_554 S
C542   C580    1.419   .     S
C543   C591    1.421   .     A
C543   C542    1.478   1_556 S
C544   C545    1.478   .     S
C546   C548    1.478   .     S
C546   C1345   1.419   1_545 S
C547   O825    1.387   .     S
C547   C99     1.421   1_655 S
C548   C1400   1.421   1_545 S
C549   O862    1.279   .     A
C549   O1706   1.279   1_545 S
C550   O829    1.281   .     A
C550   O1662   1.281   1_545 S
C551   O840    1.279   .     A
C552   O777    1.281   .     A
C553   O778    1.279   .     A
C553   O782    1.279   .     S
C554   O779    1.281   .     S
C554   O783    1.281   .     S
C555   O780    1.279   .     A
C555   O784    1.279   .     A
C556   O781    1.281   .     S
C556   O786    1.281   .     S
C557   C612    1.451   .     S
C557   O787    1.276   .     A
C557   O815    1.276   .     A
C558   O826    1.386   .     S
C558   C1428   1.419   .     S
C559   O788    1.276   .     A
C559   O816    1.276   .     A
C560   O813    1.276   .     A
C560   O789    1.276   .     A
C561   O790    1.276   .     A
C561   O814    1.276   .     A
C562   O791    1.276   .     A
C562   O820    1.276   .     A
C563   O792    1.276   .     A
C563   O821    1.276   .     A
C564   O817    1.276   .     A
C564   C610    1.451   .     S
C564   O793    1.276   .     A
C565   O819    1.276   .     A
C565   C611    1.451   .     S
C565   O794    1.276   .     A
C566   O795    1.276   .     A
C566   O806    1.276   .     A
C567   O797    1.276   .     A
C567   O808    1.276   .     A
C568   O798    1.276   .     A
C568   O804    1.276   .     A
C569   O827    1.387   .     S
C569   C1429   1.421   .     S
C570   O799    1.276   .     A
C570   O805    1.276   .     A
C571   O800    1.276   .     A
C571   O811    1.276   .     A
C572   O801    1.276   .     A
C572   O812    1.276   .     A
C573   O809    1.276   .     A
C573   O802    1.276   .     A
C574   O803    1.276   .     A
C574   O810    1.276   .     A
C575   O839    1.385   .     S
C575   C592    1.392   .     A
C576   C590    1.392   .     A
C576   O841    1.385   .     S
C577   C589    1.392   .     A
C577   O842    1.385   .     S
C578   O843    1.385   .     S
C578   C588    1.392   .     A
C579   C587    1.392   .     A
C579   O844    1.385   .     S
C580   O828    1.386   .     S
C581   O845    1.385   .     S
C581   C586    1.392   .     A
C582   C585    1.392   .     A
C582   O846    1.385   .     S
C583   O847    1.385   .     S
C583   C584    1.392   .     A
C584   O848    1.385   .     S
C585   O849    1.385   .     S
C586   O850    1.385   .     S
C587   O852    1.385   .     S
C588   O853    1.385   .     S
C589   O854    1.385   .     S
C589   C612    1.416   .     A
C590   O855    1.385   .     S
C590   C611    1.416   .     A
C591   O830    1.387   .     S
C592   O856    1.385   .     S
C592   C610    1.416   .     A
C593   O857    1.385   .     S
C593   C609    1.392   .     A
C593   C611    1.416   .     A
C594   C610    1.416   .     A
C594   O858    1.385   .     S
C594   C608    1.392   .     A
C595   C607    1.392   .     A
C595   O859    1.385   .     S
C596   O860    1.385   .     S
C596   C606    1.392   .     A
C596   C612    1.416   .     A
C597   C605    1.392   .     A
C597   O861    1.385   .     S
C598   O863    1.385   .     S
C598   C604    1.392   .     A
C599   C603    1.392   .     A
C599   O864    1.385   .     S
C600   O865    1.385   .     S
C600   C601    1.392   .     A
C601   O866    1.385   .     S
C602   O831    1.386   .     S
C602   C100    1.419   1_655 S
C603   O867    1.385   .     S
C604   O868    1.385   .     S
C605   O869    1.385   .     S
C606   O870    1.385   .     S
C607   O871    1.385   .     S
C608   O872    1.385   .     S
C609   O775    1.385   .     S
H646   O839    0.988   .     S
H648   O841    0.988   .     S
H649   O842    0.988   .     S
H650   O843    0.988   .     S
H651   O844    0.988   .     S
H652   O845    0.988   .     S
H653   O846    0.988   .     S
H654   O847    0.988   .     S
H655   O848    0.988   .     S
H656   O849    0.988   .     S
H657   O850    0.988   .     S
H659   O852    0.988   .     S
H660   O853    0.988   .     S
H661   O854    0.988   .     S
H662   O855    0.988   .     S
H663   O856    0.988   .     S
H664   O857    0.988   .     S
H665   O858    0.988   .     S
H666   O859    0.988   .     S
H667   O860    0.988   .     S
H668   O861    0.988   .     S
H670   O863    0.988   .     S
H671   O864    0.988   .     S
H672   O865    0.988   .     S
H673   O866    0.988   .     S
H674   O867    0.988   .     S
H675   O868    0.988   .     S
H676   O869    0.988   .     S
H677   O870    0.988   .     S
H678   O871    0.988   .     S
H679   O872    0.988   .     S
H681   O775    0.988   .     S
H682   C470    1.111   1_556 S
H683   C470    1.109   1_556 S
H690   C473    1.111   1_554 S
H691   C473    1.109   1_554 S
H698   C476    1.111   1_556 S
H699   C476    1.109   1_556 S
H705   C480    1.111   1_554 S
H706   C480    1.109   1_554 S
H713   C483    1.111   1_556 S
H714   C483    1.109   1_556 S
H721   C486    1.111   1_554 S
H722   C486    1.109   1_554 S
H728   C489    1.111   1_556 S
H730   C489    1.109   1_556 S
H736   C493    1.111   1_554 S
H737   C493    1.109   1_554 S
O773   Zn884   1.944   .     S
O773   Zn873   1.944   .     S
O773   Zn876   1.944   .     S
O773   Zn1768  1.944   1_545 S
O774   Zn875   1.942   .     S
O774   C1438   1.281   .     S
O776   Zn878   1.942   .     S
O776   C107    1.279   1_655 S
O777   Zn877   1.942   .     S
O778   Zn887   1.942   .     S
O779   Zn886   1.942   .     S
O780   Zn881   1.942   .     S
O781   Zn873   1.942   .     S
O782   Zn883   1.942   .     S
O783   Zn882   1.942   .     S
O784   Zn885   1.942   .     S
O785   Zn879   1.944   .     S
O785   Zn885   1.944   .     S
O785   Zn881   1.944   .     S
O785   Zn1763  1.944   1_545 S
O786   Zn884   1.942   .     S
O787   Zn876   1.933   .     S
O788   Zn875   1.933   .     S
O789   Zn878   1.933   .     S
O790   Zn877   1.933   .     S
O791   Zn880   1.933   .     S
O792   Zn879   1.933   .     S
O793   Zn874   1.933   .     S
O794   Zn888   1.933   .     S
O795   Zn875   1.933   .     S
O796   Zn882   1.944   .     S
O796   Zn874   1.944   .     S
O796   Zn886   1.944   .     S
O797   Zn876   1.933   .     S
O798   Zn888   1.933   .     S
O799   Zn874   1.933   .     S
O800   Zn879   1.933   .     S
O801   Zn880   1.933   .     S
O802   Zn877   1.933   .     S
O803   Zn878   1.933   .     S
O804   Zn439   1.933   1_655 S
O805   Zn882   1.933   .     S
O806   Zn1773  1.933   .     S
O807   Zn887   1.944   .     S
O807   Zn883   1.944   .     S
O807   Zn877   1.944   .     S
O808   Zn884   1.933   .     S
O809   Zn887   1.933   .     S
O810   Zn442   1.933   1_655 S
O811   Zn881   1.933   .     S
O812   Zn1761  1.933   .     S
O813   Zn438   1.933   1_655 S
O814   Zn883   1.933   .     S
O815   Zn873   1.933   .     S
O816   Zn1769  1.933   .     S
O817   Zn886   1.933   .     S
O818   Zn880   1.942   .     S
O818   C1437   1.279   .     S
O819   Zn443   1.933   1_655 S
O820   Zn1772  1.933   .     S
O821   Zn885   1.933   .     S
O829   Zn879   1.942   .     S
O840   Zn874   1.942   .     S
O851   Zn888   1.942   .     S
O851   C108    1.281   1_655 S
O862   Zn876   1.942   .     S
Zn873  O1700   1.933   1_545 S
Zn875  O1673   1.944   .     S
Zn878  O352    1.944   1_655 S
Zn880  O1661   1.944   .     S
Zn881  O1704   1.933   1_545 S
Zn884  O1708   1.933   1_545 S
Zn885  O1694   1.933   1_545 S
Zn888  O363    1.944   1_655 S
C889   O1266   1.386   .     S
C889   C966    1.393   .     A
C889   C984    1.419   .     A
C890   C976    1.393   .     A
C890   C989    1.421   .     A
C890   O1276   1.387   .     S
C891   C1003   1.451   .     S
C891   C1032   1.416   .     A
C891   C1039   1.416   .     A
C892   C1042   1.416   .     A
C892   C1004   1.451   .     S
C892   C1031   1.416   .     A
C893   C1030   1.416   .     A
C893   C1005   1.451   .     S
C893   C1041   1.416   .     A
C894   C1029   1.416   .     A
C894   C1044   1.416   .     A
C894   C1006   1.451   .     S
C895   C1007   1.451   .     S
C895   C1028   1.416   .     A
C895   C1043   1.416   .     A
C896   C1017   1.451   .     S
C896   C1047   1.416   .     A
C896   C1027   1.416   .     A
C897   C1026   1.416   .     A
C897   C1018   1.451   .     S
C897   C1045   1.416   .     A
C898   C1010   1.451   .     S
C898   C1049   1.416   .     A
C898   C1025   1.416   .     A
C899   C1048   1.416   .     A
C899   C1023   1.416   .     A
C899   C1011   1.451   .     S
C900   C1051   1.416   .     A
C900   C1022   1.416   .     A
C900   C1012   1.451   .     S
C901   O1277   1.386   .     S
C901   C977    1.393   .     A
C901   C102    1.419   1_565 S
C902   C1014   1.451   .     S
C902   C1021   1.416   .     A
C902   C1050   1.416   .     A
C903   C1020   1.416   .     A
C903   C1015   1.451   .     S
C903   C1053   1.416   .     A
C904   C1052   1.416   .     A
C904   C1019   1.416   .     A
C904   C1016   1.451   .     S
C905   C966    1.398   .     A
C905   C1000   1.465   .     S
C906   C999    1.459   .     S
C906   C967    1.396   .     A
C907   C1412   1.398   1_455 A
C907   C998    1.465   .     S
C907   C973    1.398   .     S
C908   C974    1.396   .     A
C908   C997    1.459   .     S
C908   C1414   1.396   1_455 S
C909   C996    1.465   .     S
C909   C979    1.398   .     A
C909   C1419   1.398   1_455 S
C910   C995    1.459   .     S
C910   C976    1.396   .     A
C910   C1425   1.396   1_455 S
C911   C982    1.398   .     A
C911   C994    1.465   .     S
C912   C978    1.393   .     A
C912   O1278   1.387   .     S
C912   C992    1.421   .     A
C913   C993    1.459   .     S
C913   C978    1.396   .     A
C914   C915    1.535   .     S
C914   O1266   1.414   .     S
C914   H1126   1.111   1_554 S
C914   H1127   1.109   1_554 S
C915   H1128   1.112   .     S
C915   H1130   1.111   .     S
C915   C916    1.526   .     S
C916   H1132   1.110   .     S
C916   H1131   1.110   .     S
C916   H1133   1.111   .     S
C917   O1267   1.415   .     S
C917   C918    1.536   .     S
C917   H1134   1.111   1_556 S
C917   H1135   1.109   1_556 S
C918   H1136   1.112   .     S
C918   C919    1.526   .     S
C918   H1137   1.111   .     S
C919   H1141   1.110   .     S
C919   H1139   1.110   .     S
C919   H1138   1.110   .     S
C920   O1268   1.414   .     S
C920   C921    1.535   .     S
C920   H1142   1.111   1_554 S
C920   H1143   1.109   1_554 S
C921   H1145   1.111   .     S
C921   H1144   1.112   .     S
C921   C922    1.526   .     S
C922   H1148   1.111   .     S
C922   H1146   1.110   .     S
C922   H1147   1.110   .     S
C923   C988    1.420   .     A
C923   O1279   1.386   .     S
C923   C979    1.393   .     A
C924   C925    1.535   .     S
C924   O1269   1.415   .     S
C924   H1149   1.111   1_556 S
C924   H1150   1.109   1_556 S
C925   C926    1.526   .     S
C925   H1152   1.112   .     S
C925   H1153   1.111   .     S
C926   H1155   1.110   .     S
C926   H1156   1.110   .     S
C926   H1154   1.110   .     S
C927   O1270   1.414   .     S
C927   C928    1.535   .     S
C927   H1157   1.111   1_554 S
C927   H1158   1.109   1_554 S
C928   H1160   1.111   .     S
C928   H1159   1.112   .     S
C928   C929    1.526   .     S
C929   H1161   1.110   .     S
C929   H1163   1.110   .     S
C929   H1164   1.111   .     S
C930   O1271   1.415   .     S
C930   C931    1.536   .     S
C930   H1165   1.111   1_556 S
C930   H1166   1.109   1_556 S
C931   H1167   1.111   .     S
C931   C932    1.526   .     S
C931   H1168   1.111   .     S
C932   H1170   1.110   .     S
C932   H1171   1.110   .     S
C932   H1169   1.110   .     S
C933   C935    1.535   .     S
C933   O1272   1.414   .     S
C933   H1172   1.111   1_554 S
C933   H1174   1.109   1_554 S
C934   O1280   1.387   .     S
C934   C981    1.393   .     A
C934   C1433   1.421   .     S
C935   H1175   1.112   .     S
C935   H1176   1.111   .     S
C935   C936    1.526   .     S
C936   H1177   1.110   .     S
C936   H1179   1.111   .     S
C936   H1178   1.110   .     S
C937   O1274   1.415   .     S
C937   C938    1.535   .     S
C937   H1180   1.111   1_556 S
C937   H1181   1.109   1_556 S
C938   H1183   1.111   .     S
C938   C939    1.526   .     S
C938   H1182   1.112   .     S
C939   H1186   1.110   .     S
C939   H1187   1.110   .     S
C939   H1185   1.110   .     S
C940   O1275   1.414   .     S
C940   C941    1.535   .     S
C940   H1188   1.111   .     S
C940   H1189   1.109   .     S
C941   H1190   1.112   .     S
C941   C942    1.526   .     S
C941   H1191   1.111   .     S
C942   H1193   1.110   .     S
C942   H1192   1.110   .     S
C942   H1194   1.111   .     S
C943   C944    1.536   .     S
C943   H1197   1.109   .     S
C943   H1196   1.111   .     S
C943   O1276   1.415   .     S
C944   H1199   1.111   .     S
C944   H1198   1.111   .     S
C944   C946    1.526   .     S
C945   O1281   1.386   .     S
C945   C990    1.419   .     A
C945   C982    1.393   .     A
C946   H1200   1.110   .     S
C946   H1202   1.110   .     S
C946   H1201   1.110   .     S
C947   C948    1.535   .     S
C947   O1277   1.414   .     S
C947   H1203   1.111   .     S
C947   H1204   1.109   .     S
C948   H1207   1.111   .     S
C948   C949    1.526   .     S
C948   H1205   1.112   .     S
C949   H1208   1.110   .     S
C949   H1210   1.111   .     S
C949   H1209   1.110   .     S
C950   H1211   1.111   .     S
C950   O1278   1.415   .     S
C950   C951    1.535   .     S
C950   H1212   1.109   .     S
C951   H1214   1.111   .     S
C951   C952    1.526   .     S
C951   H1213   1.112   .     S
C952   H1215   1.110   .     S
C952   H1059   1.110   .     S
C952   H1216   1.110   .     S
C953   H1060   1.111   .     S
C953   H1061   1.109   .     S
C953   O1279   1.414   .     S
C953   C954    1.535   .     S
C954   H1062   1.112   .     S
C954   C955    1.526   .     S
C954   H1063   1.111   .     S
C955   H1064   1.110   .     S
C955   H1066   1.111   .     S
C955   H1065   1.110   .     S
C956   C983    1.393   .     A
C956   O1282   1.387   .     S
C956   C104    1.421   1_565 S
C957   O1280   1.415   .     S
C957   H1068   1.109   .     S
C957   C958    1.535   .     S
C957   H1067   1.111   .     S
C958   H1070   1.112   .     S
C958   C959    1.526   .     S
C958   H1071   1.111   .     S
C959   H1073   1.110   .     S
C959   H1074   1.110   .     S
C959   H1072   1.110   .     S
C960   C961    1.535   .     S
C960   O1281   1.414   .     S
C960   H1075   1.111   .     S
C960   H1076   1.109   .     S
C961   H1078   1.111   .     S
C961   C962    1.526   .     S
C961   H1077   1.112   .     S
C962   H1082   1.111   .     S
C962   H1081   1.110   .     S
C962   H1079   1.110   .     S
C963   C964    1.536   .     S
C963   H1084   1.109   .     S
C963   H1083   1.111   .     S
C963   O1282   1.415   .     S
C964   H1085   1.112   .     S
C964   H1086   1.111   .     S
C964   C965    1.526   .     S
C965   H1087   1.110   .     S
C965   H1089   1.110   .     S
C965   H1088   1.110   .     S
C966   H1057   1.084   .     S
C967   H1129   1.084   .     S
C967   C969    1.393   .     A
C968   C980    1.393   .     A
C968   C1351   1.398   .     A
C968   H1140   1.084   .     S
C969   O1267   1.387   .     S
C969   C985    1.421   .     A
C970   C991    1.393   .     A
C970   H1151   1.084   .     S
C970   C1352   1.396   .     S
C971   H1162   1.084   .     S
C971   C1002   1.393   .     A
C971   C17     1.398   1_565 S
C972   H1173   1.084   .     S
C972   C1013   1.393   .     A
C972   C18     1.396   1_565 S
C973   H1184   1.084   .     S
C973   C1024   1.393   .     A
C974   C1035   1.393   .     A
C974   H1195   1.084   .     S
C975   H1206   1.084   .     S
C975   C1046   1.393   .     A
C975   C1353   1.398   .     S
C976   H1058   1.084   .     S
C977   H1069   1.084   .     S
C977   C23     1.398   1_565 S
C978   H1080   1.084   .     S
C979   H1091   1.084   .     S
C980   C1430   1.419   .     A
C980   O1268   1.386   .     S
C981   H1102   1.084   .     S
C981   C1354   1.396   .     S
C982   H1113   1.084   .     S
C983   H1124   1.084   .     S
C983   C25     1.396   1_565 S
C984   C985    1.478   1_554 S
C985   C984    1.478   1_556 S
C986   C1424   1.419   1_455 A
C986   C987    1.478   1_554 S
C986   C1024   1.419   .     S
C987   C1035   1.421   .     A
C987   C986    1.478   1_556 S
C987   C1435   1.421   1_455 S
C988   C989    1.478   .     S
C988   C1490   1.419   1_455 S
C989   C1378   1.421   1_455 S
C990   C992    1.478   .     S
C991   O1269   1.387   .     S
C991   C1431   1.421   .     S
C993   O1306   1.279   .     A
C994   O1273   1.281   .     A
C995   O1284   1.279   .     A
C995   O1664   1.279   1_455 S
C996   O1221   1.281   .     A
C996   O1739   1.281   1_455 S
C997   O1222   1.279   .     A
C997   O1226   1.279   .     S
C998   O1223   1.281   .     S
C998   O1227   1.281   .     S
C999   O1224   1.279   .     A
C999   O1228   1.279   .     A
C1000  O1225   1.281   .     S
C1000  O1230   1.281   .     S
C1001  C1056   1.451   .     S
C1001  O1231   1.276   .     A
C1001  O1259   1.276   .     A
C1002  O1270   1.386   .     S
C1002  C96     1.419   1_565 S
C1003  O1232   1.276   .     A
C1003  O1260   1.276   .     A
C1004  O1257   1.276   .     A
C1004  O1233   1.276   .     A
C1005  O1234   1.276   .     A
C1005  O1258   1.276   .     A
C1006  O1235   1.276   .     A
C1006  O1264   1.276   .     A
C1007  O1236   1.276   .     A
C1007  O1265   1.276   .     A
C1008  O1261   1.276   .     A
C1008  C1054   1.451   .     S
C1008  O1237   1.276   .     A
C1009  O1263   1.276   .     A
C1009  C1055   1.451   .     S
C1009  O1238   1.276   .     A
C1010  O1239   1.276   .     A
C1010  O1250   1.276   .     A
C1011  O1241   1.276   .     A
C1011  O1252   1.276   .     A
C1012  O1242   1.276   .     A
C1012  O1248   1.276   .     A
C1013  O1271   1.387   .     S
C1013  C97     1.421   1_565 S
C1014  O1243   1.276   .     A
C1014  O1249   1.276   .     A
C1015  O1244   1.276   .     A
C1015  O1255   1.276   .     A
C1016  O1245   1.276   .     A
C1016  O1256   1.276   .     A
C1017  O1253   1.276   .     A
C1017  O1246   1.276   .     A
C1018  O1247   1.276   .     A
C1018  O1254   1.276   .     A
C1019  O1283   1.385   .     S
C1019  C1036   1.392   .     A
C1020  C1034   1.392   .     A
C1020  O1285   1.385   .     S
C1021  C1033   1.392   .     A
C1021  O1286   1.385   .     S
C1022  O1287   1.385   .     S
C1022  C1032   1.392   .     A
C1023  C1031   1.392   .     A
C1023  O1288   1.385   .     S
C1024  O1272   1.386   .     S
C1025  O1289   1.385   .     S
C1025  C1030   1.392   .     A
C1026  C1029   1.392   .     A
C1026  O1290   1.385   .     S
C1027  O1291   1.385   .     S
C1027  C1028   1.392   .     A
C1028  O1292   1.385   .     S
C1029  O1293   1.385   .     S
C1030  O1294   1.385   .     S
C1031  O1296   1.385   .     S
C1032  O1297   1.385   .     S
C1033  O1298   1.385   .     S
C1033  C1056   1.416   .     A
C1034  O1299   1.385   .     S
C1034  C1055   1.416   .     A
C1035  O1274   1.387   .     S
C1036  O1300   1.385   .     S
C1036  C1054   1.416   .     A
C1037  O1301   1.385   .     S
C1037  C1053   1.392   .     A
C1037  C1055   1.416   .     A
C1038  C1054   1.416   .     A
C1038  O1302   1.385   .     S
C1038  C1052   1.392   .     A
C1039  C1051   1.392   .     A
C1039  O1303   1.385   .     S
C1040  O1304   1.385   .     S
C1040  C1050   1.392   .     A
C1040  C1056   1.416   .     A
C1041  C1049   1.392   .     A
C1041  O1305   1.385   .     S
C1042  O1307   1.385   .     S
C1042  C1048   1.392   .     A
C1043  C1047   1.392   .     A
C1043  O1308   1.385   .     S
C1044  O1309   1.385   .     S
C1044  C1045   1.392   .     A
C1045  O1310   1.385   .     S
C1046  O1275   1.386   .     S
C1046  C1432   1.419   .     S
C1047  O1311   1.385   .     S
C1048  O1312   1.385   .     S
C1049  O1313   1.385   .     S
C1050  O1314   1.385   .     S
C1051  O1315   1.385   .     S
C1052  O1316   1.385   .     S
C1053  O1219   1.385   .     S
H1090  O1283   0.988   .     S
H1092  O1285   0.988   .     S
H1093  O1286   0.988   .     S
H1094  O1287   0.988   .     S
H1095  O1288   0.988   .     S
H1096  O1289   0.988   .     S
H1097  O1290   0.988   .     S
H1098  O1291   0.988   .     S
H1099  O1292   0.988   .     S
H1100  O1293   0.988   .     S
H1101  O1294   0.988   .     S
H1103  O1296   0.988   .     S
H1104  O1297   0.988   .     S
H1105  O1298   0.988   .     S
H1106  O1299   0.988   .     S
H1107  O1300   0.988   .     S
H1108  O1301   0.988   .     S
H1109  O1302   0.988   .     S
H1110  O1303   0.988   .     S
H1111  O1304   0.988   .     S
H1112  O1305   0.988   .     S
H1114  O1307   0.988   .     S
H1115  O1308   0.988   .     S
H1116  O1309   0.988   .     S
H1117  O1310   0.988   .     S
H1118  O1311   0.988   .     S
H1119  O1312   0.988   .     S
H1120  O1313   0.988   .     S
H1121  O1314   0.988   .     S
H1122  O1315   0.988   .     S
H1123  O1316   0.988   .     S
H1125  O1219   0.988   .     S
H1126  C914    1.111   1_556 S
H1127  C914    1.109   1_556 S
H1134  C917    1.111   1_554 S
H1135  C917    1.109   1_554 S
H1142  C920    1.111   1_556 S
H1143  C920    1.109   1_556 S
H1149  C924    1.111   1_554 S
H1150  C924    1.109   1_554 S
H1157  C927    1.111   1_556 S
H1158  C927    1.109   1_556 S
H1165  C930    1.111   1_554 S
H1166  C930    1.109   1_554 S
H1172  C933    1.111   1_556 S
H1174  C933    1.109   1_556 S
H1180  C937    1.111   1_554 S
H1181  C937    1.109   1_554 S
O1217  Zn1328  1.944   .     S
O1217  Zn1317  1.944   .     S
O1217  Zn1320  1.944   .     S
O1218  Zn1319  1.942   .     S
O1218  C106    1.281   1_565 S
O1220  Zn1322  1.942   .     S
O1220  C1439   1.279   .     S
O1221  Zn1321  1.942   .     S
O1222  Zn1331  1.942   .     S
O1223  Zn1330  1.942   .     S
O1224  Zn1325  1.942   .     S
O1225  Zn1317  1.942   .     S
O1226  Zn1327  1.942   .     S
O1227  Zn1326  1.942   .     S
O1228  Zn1329  1.942   .     S
O1229  Zn1323  1.944   .     S
O1229  Zn1329  1.944   .     S
O1229  Zn1325  1.944   .     S
O1230  Zn1328  1.942   .     S
O1231  Zn1320  1.933   .     S
O1232  Zn1319  1.933   .     S
O1233  Zn1322  1.933   .     S
O1234  Zn1321  1.933   .     S
O1235  Zn1324  1.933   .     S
O1236  Zn1323  1.933   .     S
O1237  Zn1318  1.933   .     S
O1238  Zn1332  1.933   .     S
O1239  Zn1319  1.933   .     S
O1240  Zn1326  1.944   .     S
O1240  Zn1318  1.944   .     S
O1240  Zn1330  1.944   .     S
O1240  Zn1766  1.944   1_455 S
O1241  Zn1320  1.933   .     S
O1242  Zn1332  1.933   .     S
O1243  Zn1318  1.933   .     S
O1244  Zn1323  1.933   .     S
O1245  Zn1324  1.933   .     S
O1246  Zn1321  1.933   .     S
O1247  Zn1322  1.933   .     S
O1248  Zn1771  1.933   .     S
O1249  Zn1326  1.933   .     S
O1250  Zn441   1.933   1_565 S
O1251  Zn1331  1.944   .     S
O1251  Zn1327  1.944   .     S
O1251  Zn1321  1.944   .     S
O1251  Zn1776  1.944   1_455 S
O1252  Zn1328  1.933   .     S
O1253  Zn1331  1.933   .     S
O1254  Zn1774  1.933   .     S
O1255  Zn1325  1.933   .     S
O1256  Zn429   1.933   1_565 S
O1257  Zn1770  1.933   .     S
O1258  Zn1327  1.933   .     S
O1259  Zn1317  1.933   .     S
O1260  Zn437   1.933   1_565 S
O1261  Zn1330  1.933   .     S
O1262  Zn1324  1.942   .     S
O1262  C105    1.279   1_565 S
O1263  Zn1775  1.933   .     S
O1264  Zn440   1.933   1_565 S
O1265  Zn1329  1.933   .     S
O1273  Zn1323  1.942   .     S
O1284  Zn1318  1.942   .     S
O1295  Zn1332  1.942   .     S
O1295  C1440   1.281   .     S
O1306  Zn1320  1.942   .     S
Zn1319 O341    1.944   1_565 S
Zn1322 O1684   1.944   .     S
Zn1324 O329    1.944   1_565 S
Zn1326 O1701   1.933   1_455 S
Zn1327 O1692   1.933   1_455 S
Zn1330 O1698   1.933   1_455 S
Zn1331 O1707   1.933   1_455 S
Zn1332 O1695   1.944   .     S
C1333  O1710   1.386   .     S
C1333  C1410   1.393   .     A
C1333  C1428   1.419   .     A
C1334  C1420   1.393   .     A
C1334  C1433   1.421   .     A
C1334  O1720   1.387   .     S
C1335  C1447   1.451   .     S
C1335  C1476   1.416   .     A
C1335  C1483   1.416   .     A
C1336  C1486   1.416   .     A
C1336  C1448   1.451   .     S
C1336  C1475   1.416   .     A
C1337  C1474   1.416   .     A
C1337  C1449   1.451   .     S
C1337  C1485   1.416   .     A
C1338  C1473   1.416   .     A
C1338  C1488   1.416   .     A
C1338  C1450   1.451   .     S
C1339  C1451   1.451   .     S
C1339  C1472   1.416   .     A
C1339  C1487   1.416   .     A
C1340  C1461   1.451   .     S
C1340  C1491   1.416   .     A
C1340  C1471   1.416   .     A
C1341  C1470   1.416   .     A
C1341  C1462   1.451   .     S
C1341  C1489   1.416   .     A
C1342  C1454   1.451   .     S
C1342  C1493   1.416   .     A
C1342  C1469   1.416   .     A
C1343  C1492   1.416   .     A
C1343  C1467   1.416   .     A
C1343  C1455   1.451   .     S
C1344  C1495   1.416   .     A
C1344  C1466   1.416   .     A
C1344  C1456   1.451   .     S
C1345  O1721   1.386   .     S
C1345  C1421   1.393   .     A
C1345  C546    1.419   1_565 S
C1346  C1458   1.451   .     S
C1346  C1465   1.416   .     A
C1346  C1494   1.416   .     A
C1347  C1464   1.416   .     A
C1347  C1459   1.451   .     S
C1347  C1497   1.416   .     A
C1348  C1496   1.416   .     A
C1348  C1463   1.416   .     A
C1348  C1460   1.451   .     S
C1349  C1410   1.398   .     A
C1349  C1444   1.465   .     S
C1350  C1443   1.459   .     S
C1350  C1411   1.396   .     A
C1351  C1442   1.465   .     S
C1351  C1417   1.398   .     S
C1352  C1418   1.396   .     A
C1352  C1441   1.459   .     S
C1353  C1440   1.465   .     S
C1353  C1423   1.398   .     A
C1354  C1439   1.459   .     S
C1354  C1420   1.396   .     A
C1355  C1426   1.398   .     A
C1355  C1438   1.465   .     S
C1356  C1422   1.393   .     A
C1356  O1722   1.387   .     S
C1356  C1436   1.421   .     A
C1357  C1437   1.459   .     S
C1357  C1422   1.396   .     A
C1358  C1359   1.535   .     S
C1358  O1710   1.414   .     S
C1358  H1570   1.111   1_554 S
C1358  H1571   1.109   1_554 S
C1359  H1572   1.112   .     S
C1359  H1574   1.111   .     S
C1359  C1360   1.526   .     S
C1360  H1576   1.110   .     S
C1360  H1575   1.110   .     S
C1360  H1577   1.111   .     S
C1361  O1711   1.415   .     S
C1361  C1362   1.536   .     S
C1361  H1578   1.111   1_556 S
C1361  H1579   1.109   1_556 S
C1362  H1580   1.112   .     S
C1362  C1363   1.526   .     S
C1362  H1581   1.111   .     S
C1363  H1585   1.110   .     S
C1363  H1583   1.110   .     S
C1363  H1582   1.110   .     S
C1364  O1712   1.414   .     S
C1364  C1365   1.535   .     S
C1364  H1586   1.111   1_554 S
C1364  H1587   1.109   1_554 S
C1365  H1589   1.111   .     S
C1365  H1588   1.112   .     S
C1365  C1366   1.526   .     S
C1366  H1592   1.111   .     S
C1366  H1590   1.110   .     S
C1366  H1591   1.110   .     S
C1367  C1432   1.420   .     A
C1367  O1723   1.386   .     S
C1367  C1423   1.393   .     A
C1368  C1369   1.535   .     S
C1368  O1713   1.415   .     S
C1368  H1593   1.111   1_556 S
C1368  H1594   1.109   1_556 S
C1369  C1370   1.526   .     S
C1369  H1596   1.112   .     S
C1369  H1597   1.111   .     S
C1370  H1599   1.110   .     S
C1370  H1600   1.110   .     S
C1370  H1598   1.110   .     S
C1371  O1714   1.414   .     S
C1371  C1372   1.535   .     S
C1371  H1601   1.111   1_554 S
C1371  H1602   1.109   1_554 S
C1372  H1604   1.111   .     S
C1372  H1603   1.112   .     S
C1372  C1373   1.526   .     S
C1373  H1605   1.110   .     S
C1373  H1607   1.110   .     S
C1373  H1608   1.111   .     S
C1374  O1715   1.415   .     S
C1374  C1375   1.536   .     S
C1374  H1609   1.111   1_556 S
C1374  H1610   1.109   1_556 S
C1375  H1611   1.111   .     S
C1375  C1376   1.526   .     S
C1375  H1612   1.111   .     S
C1376  H1614   1.110   .     S
C1376  H1615   1.110   .     S
C1376  H1613   1.110   .     S
C1377  C1379   1.535   .     S
C1377  O1716   1.414   .     S
C1377  H1616   1.111   1_554 S
C1377  H1618   1.109   1_554 S
C1378  O1724   1.387   .     S
C1378  C1425   1.393   .     A
C1378  C989    1.421   1_655 S
C1379  H1619   1.112   .     S
C1379  H1620   1.111   .     S
C1379  C1380   1.526   .     S
C1380  H1621   1.110   .     S
C1380  H1623   1.111   .     S
C1380  H1622   1.110   .     S
C1381  O1718   1.415   .     S
C1381  C1382   1.535   .     S
C1381  H1624   1.111   1_556 S
C1381  H1625   1.109   1_556 S
C1382  H1627   1.111   .     S
C1382  C1383   1.526   .     S
C1382  H1626   1.112   .     S
C1383  H1630   1.110   .     S
C1383  H1631   1.110   .     S
C1383  H1629   1.110   .     S
C1384  O1719   1.414   .     S
C1384  C1385   1.535   .     S
C1384  H1632   1.111   .     S
C1384  H1633   1.109   .     S
C1385  H1634   1.112   .     S
C1385  C1386   1.526   .     S
C1385  H1635   1.111   .     S
C1386  H1637   1.110   .     S
C1386  H1636   1.110   .     S
C1386  H1638   1.111   .     S
C1387  C1388   1.536   .     S
C1387  H1641   1.109   .     S
C1387  H1640   1.111   .     S
C1387  O1720   1.415   .     S
C1388  H1643   1.111   .     S
C1388  H1642   1.111   .     S
C1388  C1390   1.526   .     S
C1389  O1725   1.386   .     S
C1389  C1434   1.419   .     A
C1389  C1426   1.393   .     A
C1390  H1644   1.110   .     S
C1390  H1646   1.110   .     S
C1390  H1645   1.110   .     S
C1391  C1392   1.535   .     S
C1391  O1721   1.414   .     S
C1391  H1647   1.111   .     S
C1391  H1648   1.109   .     S
C1392  H1651   1.111   .     S
C1392  C1393   1.526   .     S
C1392  H1649   1.112   .     S
C1393  H1652   1.110   .     S
C1393  H1654   1.111   .     S
C1393  H1653   1.110   .     S
C1394  H1655   1.111   .     S
C1394  O1722   1.415   .     S
C1394  C1395   1.535   .     S
C1394  H1656   1.109   .     S
C1395  H1658   1.111   .     S
C1395  C1396   1.526   .     S
C1395  H1657   1.112   .     S
C1396  H1659   1.110   .     S
C1396  H1503   1.110   .     S
C1396  H1660   1.110   .     S
C1397  H1504   1.111   .     S
C1397  H1505   1.109   .     S
C1397  O1723   1.414   .     S
C1397  C1398   1.535   .     S
C1398  H1506   1.112   .     S
C1398  C1399   1.526   .     S
C1398  H1507   1.111   .     S
C1399  H1508   1.110   .     S
C1399  H1510   1.111   .     S
C1399  H1509   1.110   .     S
C1400  C1427   1.393   .     A
C1400  O1726   1.387   .     S
C1400  C548    1.421   1_565 S
C1401  O1724   1.415   .     S
C1401  H1512   1.109   .     S
C1401  C1402   1.535   .     S
C1401  H1511   1.111   .     S
C1402  H1514   1.112   .     S
C1402  C1403   1.526   .     S
C1402  H1515   1.111   .     S
C1403  H1517   1.110   .     S
C1403  H1518   1.110   .     S
C1403  H1516   1.110   .     S
C1404  C1405   1.535   .     S
C1404  O1725   1.414   .     S
C1404  H1519   1.111   .     S
C1404  H1520   1.109   .     S
C1405  H1522   1.111   .     S
C1405  C1406   1.526   .     S
C1405  H1521   1.112   .     S
C1406  H1526   1.111   .     S
C1406  H1525   1.110   .     S
C1406  H1523   1.110   .     S
C1407  C1408   1.536   .     S
C1407  H1528   1.109   .     S
C1407  H1527   1.111   .     S
C1407  O1726   1.415   .     S
C1408  H1529   1.112   .     S
C1408  H1530   1.111   .     S
C1408  C1409   1.526   .     S
C1409  H1531   1.110   .     S
C1409  H1533   1.110   .     S
C1409  H1532   1.110   .     S
C1410  H1501   1.084   .     S
C1411  H1573   1.084   .     S
C1411  C1413   1.393   .     A
C1412  C1424   1.393   .     A
C1412  C907    1.398   1_655 A
C1412  H1584   1.084   .     S
C1413  O1711   1.387   .     S
C1413  C1429   1.421   .     A
C1414  C1435   1.393   .     A
C1414  H1595   1.084   .     S
C1414  C908    1.396   1_655 S
C1415  H1606   1.084   .     S
C1415  C1446   1.393   .     A
C1415  C461    1.398   1_565 S
C1416  H1617   1.084   .     S
C1416  C1457   1.393   .     A
C1416  C462    1.396   1_565 S
C1417  H1628   1.084   .     S
C1417  C1468   1.393   .     A
C1418  C1479   1.393   .     A
C1418  H1639   1.084   .     S
C1419  H1650   1.084   .     S
C1419  C1490   1.393   .     A
C1419  C909    1.398   1_655 S
C1420  H1502   1.084   .     S
C1421  H1513   1.084   .     S
C1421  C467    1.398   1_565 S
C1422  H1524   1.084   .     S
C1423  H1535   1.084   .     S
C1424  C986    1.419   1_655 A
C1424  O1712   1.386   .     S
C1425  H1546   1.084   .     S
C1425  C910    1.396   1_655 S
C1426  H1557   1.084   .     S
C1427  H1568   1.084   .     S
C1427  C469    1.396   1_565 S
C1428  C1429   1.478   1_554 S
C1429  C1428   1.478   1_556 S
C1430  C1431   1.478   1_554 S
C1430  C1468   1.419   .     S
C1431  C1479   1.421   .     A
C1431  C1430   1.478   1_556 S
C1432  C1433   1.478   .     S
C1434  C1436   1.478   .     S
C1435  O1713   1.387   .     S
C1435  C987    1.421   1_655 S
C1437  O1750   1.279   .     A
C1438  O1717   1.281   .     A
C1439  O1728   1.279   .     A
C1440  O1665   1.281   .     A
C1441  O1666   1.279   .     A
C1441  O1670   1.279   .     S
C1442  O1667   1.281   .     S
C1442  O1671   1.281   .     S
C1443  O1668   1.279   .     A
C1443  O1672   1.279   .     A
C1444  O1669   1.281   .     S
C1444  O1674   1.281   .     S
C1445  C1500   1.451   .     S
C1445  O1675   1.276   .     A
C1445  O1703   1.276   .     A
C1446  O1714   1.386   .     S
C1446  C540    1.419   1_565 S
C1447  O1676   1.276   .     A
C1447  O1704   1.276   .     A
C1448  O1701   1.276   .     A
C1448  O1677   1.276   .     A
C1449  O1678   1.276   .     A
C1449  O1702   1.276   .     A
C1450  O1679   1.276   .     A
C1450  O1708   1.276   .     A
C1451  O1680   1.276   .     A
C1451  O1709   1.276   .     A
C1452  O1705   1.276   .     A
C1452  C1498   1.451   .     S
C1452  O1681   1.276   .     A
C1453  O1707   1.276   .     A
C1453  C1499   1.451   .     S
C1453  O1682   1.276   .     A
C1454  O1683   1.276   .     A
C1454  O1694   1.276   .     A
C1455  O1685   1.276   .     A
C1455  O1696   1.276   .     A
C1456  O1686   1.276   .     A
C1456  O1692   1.276   .     A
C1457  O1715   1.387   .     S
C1457  C541    1.421   1_565 S
C1458  O1687   1.276   .     A
C1458  O1693   1.276   .     A
C1459  O1688   1.276   .     A
C1459  O1699   1.276   .     A
C1460  O1689   1.276   .     A
C1460  O1700   1.276   .     A
C1461  O1697   1.276   .     A
C1461  O1690   1.276   .     A
C1462  O1691   1.276   .     A
C1462  O1698   1.276   .     A
C1463  O1727   1.385   .     S
C1463  C1480   1.392   .     A
C1464  C1478   1.392   .     A
C1464  O1729   1.385   .     S
C1465  C1477   1.392   .     A
C1465  O1730   1.385   .     S
C1466  O1731   1.385   .     S
C1466  C1476   1.392   .     A
C1467  C1475   1.392   .     A
C1467  O1732   1.385   .     S
C1468  O1716   1.386   .     S
C1469  O1733   1.385   .     S
C1469  C1474   1.392   .     A
C1470  C1473   1.392   .     A
C1470  O1734   1.385   .     S
C1471  O1735   1.385   .     S
C1471  C1472   1.392   .     A
C1472  O1736   1.385   .     S
C1473  O1737   1.385   .     S
C1474  O1738   1.385   .     S
C1475  O1740   1.385   .     S
C1476  O1741   1.385   .     S
C1477  O1742   1.385   .     S
C1477  C1500   1.416   .     A
C1478  O1743   1.385   .     S
C1478  C1499   1.416   .     A
C1479  O1718   1.387   .     S
C1480  O1744   1.385   .     S
C1480  C1498   1.416   .     A
C1481  O1745   1.385   .     S
C1481  C1497   1.392   .     A
C1481  C1499   1.416   .     A
C1482  C1498   1.416   .     A
C1482  O1746   1.385   .     S
C1482  C1496   1.392   .     A
C1483  C1495   1.392   .     A
C1483  O1747   1.385   .     S
C1484  O1748   1.385   .     S
C1484  C1494   1.392   .     A
C1484  C1500   1.416   .     A
C1485  C1493   1.392   .     A
C1485  O1749   1.385   .     S
C1486  O1751   1.385   .     S
C1486  C1492   1.392   .     A
C1487  C1491   1.392   .     A
C1487  O1752   1.385   .     S
C1488  O1753   1.385   .     S
C1488  C1489   1.392   .     A
C1489  O1754   1.385   .     S
C1490  O1719   1.386   .     S
C1490  C988    1.419   1_655 S
C1491  O1755   1.385   .     S
C1492  O1756   1.385   .     S
C1493  O1757   1.385   .     S
C1494  O1758   1.385   .     S
C1495  O1759   1.385   .     S
C1496  O1760   1.385   .     S
C1497  O1663   1.385   .     S
H1534  O1727   0.988   .     S
H1536  O1729   0.988   .     S
H1537  O1730   0.988   .     S
H1538  O1731   0.988   .     S
H1539  O1732   0.988   .     S
H1540  O1733   0.988   .     S
H1541  O1734   0.988   .     S
H1542  O1735   0.988   .     S
H1543  O1736   0.988   .     S
H1544  O1737   0.988   .     S
H1545  O1738   0.988   .     S
H1547  O1740   0.988   .     S
H1548  O1741   0.988   .     S
H1549  O1742   0.988   .     S
H1550  O1743   0.988   .     S
H1551  O1744   0.988   .     S
H1552  O1745   0.988   .     S
H1553  O1746   0.988   .     S
H1554  O1747   0.988   .     S
H1555  O1748   0.988   .     S
H1556  O1749   0.988   .     S
H1558  O1751   0.988   .     S
H1559  O1752   0.988   .     S
H1560  O1753   0.988   .     S
H1561  O1754   0.988   .     S
H1562  O1755   0.988   .     S
H1563  O1756   0.988   .     S
H1564  O1757   0.988   .     S
H1565  O1758   0.988   .     S
H1566  O1759   0.988   .     S
H1567  O1760   0.988   .     S
H1569  O1663   0.988   .     S
H1570  C1358   1.111   1_556 S
H1571  C1358   1.109   1_556 S
H1578  C1361   1.111   1_554 S
H1579  C1361   1.109   1_554 S
H1586  C1364   1.111   1_556 S
H1587  C1364   1.109   1_556 S
H1593  C1368   1.111   1_554 S
H1594  C1368   1.109   1_554 S
H1601  C1371   1.111   1_556 S
H1602  C1371   1.109   1_556 S
H1609  C1374   1.111   1_554 S
H1610  C1374   1.109   1_554 S
H1616  C1377   1.111   1_556 S
H1618  C1377   1.109   1_556 S
H1624  C1381   1.111   1_554 S
H1625  C1381   1.109   1_554 S
O1661  Zn1772  1.944   .     S
O1661  Zn1761  1.944   .     S
O1661  Zn1764  1.944   .     S
O1662  Zn1763  1.942   .     S
O1662  C550    1.281   1_565 S
O1664  Zn1766  1.942   .     S
O1664  C995    1.279   1_655 S
O1665  Zn1765  1.942   .     S
O1666  Zn1775  1.942   .     S
O1667  Zn1774  1.942   .     S
O1668  Zn1769  1.942   .     S
O1669  Zn1761  1.942   .     S
O1670  Zn1771  1.942   .     S
O1671  Zn1770  1.942   .     S
O1672  Zn1773  1.942   .     S
O1673  Zn1767  1.944   .     S
O1673  Zn1773  1.944   .     S
O1673  Zn1769  1.944   .     S
O1674  Zn1772  1.942   .     S
O1675  Zn1764  1.933   .     S
O1676  Zn1763  1.933   .     S
O1677  Zn1766  1.933   .     S
O1678  Zn1765  1.933   .     S
O1679  Zn1768  1.933   .     S
O1680  Zn1767  1.933   .     S
O1681  Zn1762  1.933   .     S
O1682  Zn1776  1.933   .     S
O1683  Zn1763  1.933   .     S
O1684  Zn1770  1.944   .     S
O1684  Zn1762  1.944   .     S
O1684  Zn1774  1.944   .     S
O1685  Zn1764  1.933   .     S
O1686  Zn1776  1.933   .     S
O1687  Zn1762  1.933   .     S
O1688  Zn1767  1.933   .     S
O1689  Zn1768  1.933   .     S
O1690  Zn1765  1.933   .     S
O1691  Zn1766  1.933   .     S
O1692  Zn1327  1.933   1_655 S
O1693  Zn1770  1.933   .     S
O1694  Zn885   1.933   1_565 S
O1695  Zn1775  1.944   .     S
O1695  Zn1771  1.944   .     S
O1695  Zn1765  1.944   .     S
O1696  Zn1772  1.933   .     S
O1697  Zn1775  1.933   .     S
O1698  Zn1330  1.933   1_655 S
O1699  Zn1769  1.933   .     S
O1700  Zn873   1.933   1_565 S
O1701  Zn1326  1.933   1_655 S
O1702  Zn1771  1.933   .     S
O1703  Zn1761  1.933   .     S
O1704  Zn881   1.933   1_565 S
O1705  Zn1774  1.933   .     S
O1706  Zn1768  1.942   .     S
O1706  C549    1.279   1_565 S
O1707  Zn1331  1.933   1_655 S
O1708  Zn884   1.933   1_565 S
O1709  Zn1773  1.933   .     S
O1717  Zn1767  1.942   .     S
O1728  Zn1762  1.942   .     S
O1739  Zn1776  1.942   .     S
O1739  C996    1.281   1_655 S
O1750  Zn1764  1.942   .     S
Zn1763 O785    1.944   1_565 S
Zn1766 O1240   1.944   1_655 S
Zn1768 O773    1.944   1_565 S
Zn1776 O1251   1.944   1_655 S
