data_str_m1_o1_o17_pcu_sym.131
_audit_creation_date              2020-01-03
_audit_creation_method            'Materials Studio'
_symmetry_space_group_name_H-M    'P1'
_symmetry_Int_Tables_number       1
_symmetry_cell_setting            triclinic
loop_
_symmetry_equiv_pos_as_xyz
  x,y,z
_cell_length_a                    36.6370
_cell_length_b                    36.6375
_cell_length_c                    34.4514
_cell_angle_alpha                 89.9997
_cell_angle_beta                  90.0001
_cell_angle_gamma                 89.9073
loop_
_atom_site_label
_atom_site_type_symbol
_atom_site_fract_x
_atom_site_fract_y
_atom_site_fract_z
_atom_site_U_iso_or_equiv
_atom_site_adp_type
_atom_site_occupancy
Zn1    Zn    0.20659  -0.00000   0.21735   0.00000  Uiso   1.00
Zn2    Zn    0.29340  -0.00000   0.78265   0.00000  Uiso   1.00
Zn3    Zn    0.00000   0.20660   0.21735   0.00000  Uiso   1.00
Zn4    Zn    0.00000   0.29341   0.78265   0.00000  Uiso   1.00
Zn5    Zn    0.29340  -0.00000   0.21735   0.00000  Uiso   1.00
Zn6    Zn    0.20659  -0.00000   0.78265   0.00000  Uiso   1.00
Zn7    Zn   -0.00000   0.29340   0.21735   0.00000  Uiso   1.00
Zn8    Zn   -0.00000   0.20659   0.78265   0.00000  Uiso   1.00
Zn9    Zn    0.45659   0.25000   0.71735   0.00000  Uiso   1.00
Zn10   Zn    0.04340   0.25000   0.28265   0.00000  Uiso   1.00
Zn11   Zn    0.25000   0.45659   0.71735   0.00000  Uiso   1.00
Zn12   Zn    0.25000   0.04340   0.28265   0.00000  Uiso   1.00
Zn13   Zn    0.04340   0.25000   0.71735   0.00000  Uiso   1.00
Zn14   Zn    0.45659   0.25000   0.28265   0.00000  Uiso   1.00
Zn15   Zn    0.25000   0.04340   0.71735   0.00000  Uiso   1.00
Zn16   Zn    0.25000   0.45659   0.28265   0.00000  Uiso   1.00
C17    C     0.48111   0.27748   0.41805   0.00000  Uiso   1.00
C18    C     0.01089   0.21853   0.58218   0.00000  Uiso   1.00
C19    C     0.21852   0.01086   0.41781   0.00000  Uiso   1.00
C20    C     0.27749   0.48112   0.58195   0.00000  Uiso   1.00
C21    C     0.01889   0.22252   0.41805   0.00000  Uiso   1.00
C22    C     0.48912   0.28147   0.58219   0.00000  Uiso   1.00
C23    C     0.28148   0.48914   0.41781   0.00000  Uiso   1.00
C24    C     0.22251   0.01888   0.58195   0.00000  Uiso   1.00
C25    C     0.23111   0.02748   0.91805   0.00000  Uiso   1.00
C26    C     0.26088   0.46853   0.08218   0.00000  Uiso   1.00
C27    C     0.46853   0.26086   0.91781   0.00000  Uiso   1.00
C28    C     0.02751   0.23116   0.08195   0.00000  Uiso   1.00
C29    C     0.26889   0.47252   0.91805   0.00000  Uiso   1.00
C30    C     0.23912   0.03147   0.08218   0.00000  Uiso   1.00
C31    C     0.03149   0.23916   0.91780   0.00000  Uiso   1.00
C32    C     0.47251   0.26888   0.08195   0.00000  Uiso   1.00
C33    C     0.00000   0.25000   0.39815   0.00000  Uiso   1.00
C34    C     0.00000   0.25000   0.60213   0.00000  Uiso   1.00
C35    C     0.25000  -0.00000   0.39787   0.00000  Uiso   1.00
C36    C     0.25000  -0.00000   0.60185   0.00000  Uiso   1.00
C37    C     0.25000  -0.00000   0.89815   0.00000  Uiso   1.00
C38    C     0.25000  -0.00000   0.10213   0.00000  Uiso   1.00
C39    C     0.00000   0.25000   0.89787   0.00000  Uiso   1.00
C40    C     0.00001   0.25001   0.10185   0.00000  Uiso   1.00
O41    O     0.25000  -0.00000   0.25000   0.00000  Uiso   1.00
O42    O     0.25000  -0.00000   0.75000   0.00000  Uiso   1.00
O43    O    -0.00000   0.25000   0.25000   0.00000  Uiso   1.00
O44    O    -0.00000   0.25000   0.75000   0.00000  Uiso   1.00
O45    O     0.25000   0.46963   0.33755   0.00000  Uiso   1.00
O46    O     0.25000   0.03036   0.66245   0.00000  Uiso   1.00
O47    O     0.03036   0.25000   0.33755   0.00000  Uiso   1.00
O48    O     0.46963   0.25000   0.66245   0.00000  Uiso   1.00
O49    O     0.25000   0.03036   0.33755   0.00000  Uiso   1.00
O50    O     0.25000   0.46963   0.66245   0.00000  Uiso   1.00
O51    O     0.46963   0.25000   0.33755   0.00000  Uiso   1.00
O52    O     0.03036   0.25000   0.66245   0.00000  Uiso   1.00
O53    O     0.00000   0.21964   0.83755   0.00000  Uiso   1.00
O54    O    -0.00000   0.28036   0.16245   0.00000  Uiso   1.00
O55    O     0.28036  -0.00000   0.83755   0.00000  Uiso   1.00
O56    O     0.21963  -0.00000   0.16245   0.00000  Uiso   1.00
O57    O     0.00000   0.28037   0.83755   0.00000  Uiso   1.00
O58    O     0.00000   0.21964   0.16245   0.00000  Uiso   1.00
O59    O     0.21963  -0.00000   0.83755   0.00000  Uiso   1.00
O60    O     0.28036  -0.00000   0.16245   0.00000  Uiso   1.00
O61    O     0.20724   0.07307   0.27302   0.00000  Uiso   1.00
O62    O     0.29275   0.42692   0.72698   0.00000  Uiso   1.00
O63    O     0.42692   0.20724   0.27302   0.00000  Uiso   1.00
O64    O     0.07307   0.29276   0.72698   0.00000  Uiso   1.00
O65    O     0.29275   0.42692   0.27302   0.00000  Uiso   1.00
O66    O     0.20724   0.07307   0.72698   0.00000  Uiso   1.00
O67    O     0.07307   0.29276   0.27302   0.00000  Uiso   1.00
O68    O     0.42692   0.20724   0.72698   0.00000  Uiso   1.00
O69    O     0.20724   0.42692   0.72698   0.00000  Uiso   1.00
O70    O     0.29275   0.07307   0.27302   0.00000  Uiso   1.00
O71    O     0.42692   0.29275   0.72698   0.00000  Uiso   1.00
O72    O     0.07307   0.20724   0.27302   0.00000  Uiso   1.00
O73    O     0.29275   0.07307   0.72698   0.00000  Uiso   1.00
O74    O     0.20724   0.42692   0.27302   0.00000  Uiso   1.00
O75    O     0.07307   0.20724   0.72698   0.00000  Uiso   1.00
O76    O     0.42692   0.29275   0.27302   0.00000  Uiso   1.00
O77    O     0.45724   0.32307   0.77302   0.00000  Uiso   1.00
O78    O     0.04275   0.17693   0.22698   0.00000  Uiso   1.00
O79    O     0.17692   0.45724   0.77302   0.00000  Uiso   1.00
O80    O     0.32307   0.04275   0.22698   0.00000  Uiso   1.00
O81    O     0.04275   0.17693   0.77302   0.00000  Uiso   1.00
O82    O     0.45724   0.32307   0.22698   0.00000  Uiso   1.00
O83    O     0.32307   0.04275   0.77302   0.00000  Uiso   1.00
O84    O     0.17692   0.45724   0.22698   0.00000  Uiso   1.00
O85    O     0.45724   0.17692   0.22698   0.00000  Uiso   1.00
O86    O     0.04275   0.32308   0.77302   0.00000  Uiso   1.00
O87    O     0.17692   0.04275   0.22698   0.00000  Uiso   1.00
O88    O     0.32307   0.45724   0.77302   0.00000  Uiso   1.00
O89    O     0.04275   0.32308   0.22698   0.00000  Uiso   1.00
O90    O     0.45724   0.17692   0.77302   0.00000  Uiso   1.00
O91    O     0.32307   0.45724   0.22698   0.00000  Uiso   1.00
O92    O     0.17692   0.04275   0.77302   0.00000  Uiso   1.00
C93    C     0.03220   0.19110   0.48012   0.00000  Uiso   1.00
C94    C     0.46824   0.30897   0.52072   0.00000  Uiso   1.00
C95    C     0.30907   0.46841   0.47929   0.00000  Uiso   1.00
C96    C     0.19098   0.03197   0.51990   0.00000  Uiso   1.00
C97    C     0.46783   0.30892   0.48011   0.00000  Uiso   1.00
C98    C     0.03179   0.19105   0.52073   0.00000  Uiso   1.00
C99    C     0.19093   0.03158   0.47929   0.00000  Uiso   1.00
C100   C     0.30902   0.46802   0.51990   0.00000  Uiso   1.00
C101   C     0.28219   0.44109   0.98012   0.00000  Uiso   1.00
C102   C     0.21822   0.05895   0.02073   0.00000  Uiso   1.00
C103   C     0.05917   0.21857   0.97931   0.00000  Uiso   1.00
C104   C     0.44097   0.28194   0.01991   0.00000  Uiso   1.00
C105   C     0.21780   0.05890   0.98012   0.00000  Uiso   1.00
C106   C     0.28178   0.44104   0.02073   0.00000  Uiso   1.00
C107   C     0.44092   0.28155   0.97930   0.00000  Uiso   1.00
C108   C     0.05912   0.21820   0.01992   0.00000  Uiso   1.00
C109   C     0.25000  -0.00000   0.35570   0.00000  Uiso   1.00
C110   C     0.25000  -0.00000   0.64421   0.00000  Uiso   1.00
C111   C     0.00000   0.25000   0.35579   0.00000  Uiso   1.00
C112   C    -0.00000   0.25000   0.64430   0.00000  Uiso   1.00
C113   C    -0.00000   0.25000   0.85570   0.00000  Uiso   1.00
C114   C     0.00000   0.25000   0.14421   0.00000  Uiso   1.00
C115   C     0.25000  -0.00000   0.85579   0.00000  Uiso   1.00
C116   C     0.25000  -0.00000   0.14430   0.00000  Uiso   1.00
C117   C     0.18004   0.06996   0.25000   0.00000  Uiso   1.00
C118   C     0.31996   0.43004   0.75000   0.00000  Uiso   1.00
C119   C     0.43004   0.18004   0.25000   0.00000  Uiso   1.00
C120   C     0.06997   0.31997   0.75000   0.00000  Uiso   1.00
C121   C     0.31996   0.43004   0.25000   0.00000  Uiso   1.00
C122   C     0.18004   0.06996   0.75000   0.00000  Uiso   1.00
C123   C     0.06996   0.31996   0.25000   0.00000  Uiso   1.00
C124   C     0.43003   0.18003   0.75000   0.00000  Uiso   1.00
C125   C     0.18004   0.43004   0.75000   0.00000  Uiso   1.00
C126   C     0.31997   0.06997   0.25000   0.00000  Uiso   1.00
C127   C     0.43004   0.31996   0.75000   0.00000  Uiso   1.00
C128   C     0.06996   0.18004   0.25000   0.00000  Uiso   1.00
C129   C     0.31996   0.06996   0.75000   0.00000  Uiso   1.00
C130   C     0.18003   0.43003   0.25000   0.00000  Uiso   1.00
C131   C     0.06996   0.18004   0.75000   0.00000  Uiso   1.00
C132   C     0.43004   0.31996   0.25000   0.00000  Uiso   1.00
C133   C     0.14087   0.38608   0.21459   0.00000  Uiso   1.00
C134   C     0.35902   0.11395   0.78540   0.00000  Uiso   1.00
C135   C     0.08805   0.11508   0.25484   0.00000  Uiso   1.00
C136   C     0.41195   0.38492   0.74516   0.00000  Uiso   1.00
C137   C     0.35912   0.11392   0.21459   0.00000  Uiso   1.00
C138   C     0.14097   0.38606   0.78540   0.00000  Uiso   1.00
C139   C     0.41195   0.38492   0.25485   0.00000  Uiso   1.00
C140   C     0.08805   0.11508   0.74515   0.00000  Uiso   1.00
C141   C     0.11508   0.08805   0.74516   0.00000  Uiso   1.00
C142   C     0.38492   0.41195   0.25486   0.00000  Uiso   1.00
C143   C     0.11389   0.35915   0.78541   0.00000  Uiso   1.00
C144   C     0.38604   0.14099   0.21460   0.00000  Uiso   1.00
C145   C     0.38492   0.41195   0.74517   0.00000  Uiso   1.00
C146   C     0.11508   0.08805   0.25485   0.00000  Uiso   1.00
C147   C     0.38609   0.14086   0.78541   0.00000  Uiso   1.00
C148   C     0.11396   0.35901   0.21460   0.00000  Uiso   1.00
C149   C     0.39087   0.13609   0.71459   0.00000  Uiso   1.00
C150   C     0.10901   0.36395   0.28540   0.00000  Uiso   1.00
C151   C     0.33805   0.36508   0.75484   0.00000  Uiso   1.00
C152   C     0.16195   0.13492   0.24516   0.00000  Uiso   1.00
C153   C     0.10914   0.36390   0.71458   0.00000  Uiso   1.00
C154   C     0.39099   0.13605   0.28540   0.00000  Uiso   1.00
C155   C     0.16195   0.13492   0.75484   0.00000  Uiso   1.00
C156   C     0.33805   0.36508   0.24514   0.00000  Uiso   1.00
C157   C     0.36508   0.33805   0.24515   0.00000  Uiso   1.00
C158   C     0.13492   0.16195   0.75485   0.00000  Uiso   1.00
C159   C     0.36391   0.10913   0.28541   0.00000  Uiso   1.00
C160   C     0.13606   0.39098   0.71459   0.00000  Uiso   1.00
C161   C     0.13492   0.16195   0.24516   0.00000  Uiso   1.00
C162   C     0.36508   0.33805   0.75484   0.00000  Uiso   1.00
C163   C     0.13609   0.39087   0.28541   0.00000  Uiso   1.00
C164   C     0.36395   0.10901   0.71460   0.00000  Uiso   1.00
C165   C     0.01705   0.22079   0.45905   0.00000  Uiso   1.00
C166   C     0.48550   0.28037   0.54135   0.00000  Uiso   1.00
C167   C     0.28040   0.48556   0.45866   0.00000  Uiso   1.00
C168   C     0.22075   0.01697   0.54095   0.00000  Uiso   1.00
C169   C     0.48296   0.27922   0.45905   0.00000  Uiso   1.00
C170   C     0.01451   0.21964   0.54135   0.00000  Uiso   1.00
C171   C     0.21959   0.01443   0.45866   0.00000  Uiso   1.00
C172   C     0.27925   0.48303   0.54095   0.00000  Uiso   1.00
C173   C     0.26704   0.47079   0.95905   0.00000  Uiso   1.00
C174   C     0.23550   0.03036   0.04135   0.00000  Uiso   1.00
C175   C     0.03045   0.23563   0.95866   0.00000  Uiso   1.00
C176   C     0.47076   0.26697   0.04095   0.00000  Uiso   1.00
C177   C     0.23295   0.02921   0.95905   0.00000  Uiso   1.00
C178   C     0.26450   0.46963   0.04135   0.00000  Uiso   1.00
C179   C     0.46960   0.26443   0.95866   0.00000  Uiso   1.00
C180   C     0.02929   0.23311   0.04095   0.00000  Uiso   1.00
C181   C     0.09806   0.34806   0.25000   0.00000  Uiso   1.00
C182   C     0.40192   0.15191   0.75000   0.00000  Uiso   1.00
C183   C     0.15194   0.09806   0.25000   0.00000  Uiso   1.00
C184   C     0.34806   0.40194   0.75000   0.00000  Uiso   1.00
C185   C     0.40194   0.15194   0.25000   0.00000  Uiso   1.00
C186   C     0.09808   0.34809   0.75000   0.00000  Uiso   1.00
C187   C     0.34806   0.40194   0.25000   0.00000  Uiso   1.00
C188   C     0.15194   0.09806   0.75000   0.00000  Uiso   1.00
C189   C     0.09806   0.15194   0.75000   0.00000  Uiso   1.00
C190   C     0.40194   0.34806   0.25000   0.00000  Uiso   1.00
C191   C     0.15194   0.40194   0.75000   0.00000  Uiso   1.00
C192   C     0.34808   0.09809   0.25000   0.00000  Uiso   1.00
C193   C     0.40194   0.34806   0.75000   0.00000  Uiso   1.00
C194   C     0.09806   0.15194   0.25000   0.00000  Uiso   1.00
C195   C     0.34806   0.09806   0.75000   0.00000  Uiso   1.00
C196   C     0.15192   0.40191   0.25000   0.00000  Uiso   1.00
C197   C     0.00001   0.25001   0.47959   0.00000  Uiso   1.00
C198   C     0.00001   0.25001   0.52072   0.00000  Uiso   1.00
C199   C     0.25000  -0.00000   0.47928   0.00000  Uiso   1.00
C200   C     0.25000  -0.00000   0.52041   0.00000  Uiso   1.00
C201   C     0.25000  -0.00000   0.97959   0.00000  Uiso   1.00
C202   C     0.25000  -0.00000   0.02072   0.00000  Uiso   1.00
C203   C     0.00003   0.25004   0.97928   0.00000  Uiso   1.00
C204   C     0.00003   0.25004   0.02041   0.00000  Uiso   1.00
N205   N     0.04713   0.15976   0.46084   0.00000  Uiso   1.00
O206   O     0.02523   0.13511   0.44690   0.00000  Uiso   1.00
O207   O     0.08187   0.15269   0.46337   0.00000  Uiso   1.00
N208   N     0.44828   0.33706   0.54064   0.00000  Uiso   1.00
O209   O     0.41830   0.32888   0.55889   0.00000  Uiso   1.00
O210   O     0.45733   0.37117   0.53647   0.00000  Uiso   1.00
N211   N     0.33727   0.44860   0.45940   0.00000  Uiso   1.00
O212   O     0.32928   0.41848   0.44129   0.00000  Uiso   1.00
O213   O     0.37132   0.45790   0.46350   0.00000  Uiso   1.00
N214   N     0.15952   0.04662   0.53921   0.00000  Uiso   1.00
O215   O     0.13517   0.02450   0.55337   0.00000  Uiso   1.00
O216   O     0.15205   0.08127   0.53657   0.00000  Uiso   1.00
N217   N     0.45293   0.34027   0.46083   0.00000  Uiso   1.00
O218   O     0.47486   0.36489   0.44686   0.00000  Uiso   1.00
O219   O     0.41820   0.34739   0.46338   0.00000  Uiso   1.00
N220   N     0.05176   0.16297   0.54065   0.00000  Uiso   1.00
O221   O     0.08173   0.17117   0.55892   0.00000  Uiso   1.00
O222   O     0.04274   0.12885   0.53647   0.00000  Uiso   1.00
N223   N     0.16272   0.05140   0.45940   0.00000  Uiso   1.00
O224   O     0.17071   0.08151   0.44130   0.00000  Uiso   1.00
O225   O     0.12868   0.04209   0.46350   0.00000  Uiso   1.00
N226   N     0.34048   0.45337   0.53921   0.00000  Uiso   1.00
O227   O     0.36483   0.47549   0.55336   0.00000  Uiso   1.00
O228   O     0.34793   0.41872   0.53658   0.00000  Uiso   1.00
N229   N     0.29710   0.40974   0.96084   0.00000  Uiso   1.00
O230   O     0.27519   0.38510   0.94688   0.00000  Uiso   1.00
O231   O     0.33184   0.40266   0.96338   0.00000  Uiso   1.00
N232   N     0.19824   0.08703   0.04065   0.00000  Uiso   1.00
O233   O     0.16828   0.07883   0.05892   0.00000  Uiso   1.00
O234   O     0.20727   0.12115   0.03646   0.00000  Uiso   1.00
N235   N     0.08746   0.19888   0.95944   0.00000  Uiso   1.00
O236   O     0.07965   0.16862   0.94152   0.00000  Uiso   1.00
O237   O     0.12146   0.20841   0.96346   0.00000  Uiso   1.00
N238   N     0.40949   0.29655   0.03921   0.00000  Uiso   1.00
O239   O     0.38518   0.27439   0.05338   0.00000  Uiso   1.00
O240   O     0.40197   0.33119   0.03657   0.00000  Uiso   1.00
N241   N     0.20288   0.09024   0.96084   0.00000  Uiso   1.00
O242   O     0.22478   0.11490   0.94690   0.00000  Uiso   1.00
O243   O     0.16814   0.09731   0.96337   0.00000  Uiso   1.00
N244   N     0.30174   0.41295   0.04064   0.00000  Uiso   1.00
O245   O     0.33171   0.42115   0.05891   0.00000  Uiso   1.00
O246   O     0.29270   0.37884   0.03647   0.00000  Uiso   1.00
N247   N     0.41268   0.30133   0.95941   0.00000  Uiso   1.00
O248   O     0.42062   0.33148   0.94135   0.00000  Uiso   1.00
O249   O     0.37865   0.29196   0.96349   0.00000  Uiso   1.00
N250   N     0.09065   0.20373   0.03924   0.00000  Uiso   1.00
O251   O     0.11480   0.22599   0.05353   0.00000  Uiso   1.00
O252   O     0.09836   0.16914   0.03655   0.00000  Uiso   1.00
C253   C     0.15799   0.39673   0.17828   0.00000  Uiso   1.00
N254   N     0.17161   0.40524   0.14936   0.00000  Uiso   1.00
C255   C     0.34157   0.10358   0.82164   0.00000  Uiso   1.00
N256   N     0.32765   0.09532   0.85048   0.00000  Uiso   1.00
C257   C     0.05014   0.10509   0.26115   0.00000  Uiso   1.00
N258   N     0.01994   0.09716   0.26618   0.00000  Uiso   1.00
C259   C     0.44986   0.39491   0.73884   0.00000  Uiso   1.00
N260   N     0.48006   0.40283   0.73380   0.00000  Uiso   1.00
C261   C     0.34200   0.10327   0.17828   0.00000  Uiso   1.00
N262   N     0.32838   0.09477   0.14936   0.00000  Uiso   1.00
C263   C     0.15841   0.39644   0.82164   0.00000  Uiso   1.00
N264   N     0.17232   0.40471   0.85049   0.00000  Uiso   1.00
C265   C     0.44986   0.39490   0.26117   0.00000  Uiso   1.00
N266   N     0.48006   0.40283   0.26621   0.00000  Uiso   1.00
C267   C     0.05014   0.10510   0.73882   0.00000  Uiso   1.00
N268   N     0.01994   0.09717   0.73377   0.00000  Uiso   1.00
C269   C     0.10509   0.05014   0.73885   0.00000  Uiso   1.00
N270   N     0.09716   0.01994   0.73381   0.00000  Uiso   1.00
C271   C     0.39490   0.44985   0.26119   0.00000  Uiso   1.00
N272   N     0.40283   0.48005   0.26625   0.00000  Uiso   1.00
C273   C     0.10321   0.34207   0.82172   0.00000  Uiso   1.00
N274   N     0.09467   0.32849   0.85066   0.00000  Uiso   1.00
C275   C     0.39640   0.15845   0.17836   0.00000  Uiso   1.00
N276   N     0.40466   0.17238   0.14952   0.00000  Uiso   1.00
C277   C     0.39491   0.44986   0.73887   0.00000  Uiso   1.00
N278   N     0.40284   0.48006   0.73384   0.00000  Uiso   1.00
C279   C     0.10509   0.05014   0.26117   0.00000  Uiso   1.00
N280   N     0.09717   0.01995   0.26622   0.00000  Uiso   1.00
C281   C     0.39676   0.15796   0.82172   0.00000  Uiso   1.00
N282   N     0.40528   0.17155   0.85065   0.00000  Uiso   1.00
C283   C     0.10359   0.34155   0.17836   0.00000  Uiso   1.00
N284   N     0.09534   0.32763   0.14952   0.00000  Uiso   1.00
C285   C     0.40799   0.14674   0.67828   0.00000  Uiso   1.00
N286   N     0.42160   0.15525   0.64936   0.00000  Uiso   1.00
C287   C     0.09156   0.35359   0.32164   0.00000  Uiso   1.00
N288   N     0.07763   0.34533   0.35048   0.00000  Uiso   1.00
C289   C     0.30014   0.35509   0.76113   0.00000  Uiso   1.00
N290   N     0.26994   0.34716   0.76616   0.00000  Uiso   1.00
C291   C     0.19986   0.14490   0.23883   0.00000  Uiso   1.00
N292   N     0.23006   0.15283   0.23378   0.00000  Uiso   1.00
C293   C     0.09203   0.35324   0.67828   0.00000  Uiso   1.00
N294   N     0.07843   0.34472   0.64935   0.00000  Uiso   1.00
C295   C     0.40844   0.14641   0.32164   0.00000  Uiso   1.00
N296   N     0.42237   0.15466   0.35048   0.00000  Uiso   1.00
C297   C     0.19986   0.14491   0.76115   0.00000  Uiso   1.00
N298   N     0.23006   0.15283   0.76619   0.00000  Uiso   1.00
C299   C     0.30015   0.35510   0.23880   0.00000  Uiso   1.00
N300   N     0.26995   0.34717   0.23374   0.00000  Uiso   1.00
C301   C     0.35509   0.30014   0.23883   0.00000  Uiso   1.00
N302   N     0.34717   0.26995   0.23378   0.00000  Uiso   1.00
C303   C     0.14491   0.19985   0.76117   0.00000  Uiso   1.00
N304   N     0.15283   0.23005   0.76623   0.00000  Uiso   1.00
C305   C     0.35325   0.09202   0.32172   0.00000  Uiso   1.00
N306   N     0.34474   0.07842   0.35064   0.00000  Uiso   1.00
C307   C     0.14643   0.40842   0.67835   0.00000  Uiso   1.00
N308   N     0.15470   0.42233   0.64951   0.00000  Uiso   1.00
C309   C     0.14491   0.19986   0.23886   0.00000  Uiso   1.00
N310   N     0.15284   0.23006   0.23382   0.00000  Uiso   1.00
C311   C     0.35509   0.30014   0.76116   0.00000  Uiso   1.00
N312   N     0.34716   0.26994   0.76620   0.00000  Uiso   1.00
C313   C     0.14675   0.40797   0.32172   0.00000  Uiso   1.00
N314   N     0.15526   0.42158   0.35064   0.00000  Uiso   1.00
C315   C     0.35359   0.09156   0.67836   0.00000  Uiso   1.00
N316   N     0.34533   0.07764   0.64951   0.00000  Uiso   1.00
N317   N     0.45971   0.30300   0.39604   0.00000  Uiso   1.00
O318   O     0.47561   0.32556   0.37227   0.00000  Uiso   1.00
O319   O     0.42440   0.29944   0.39489   0.00000  Uiso   1.00
N320   N     0.01463   0.18483   0.60323   0.00000  Uiso   1.00
O321   O     0.03918   0.18125   0.63027   0.00000  Uiso   1.00
O322   O     0.49218   0.15811   0.59643   0.00000  Uiso   1.00
N323   N     0.18485   0.01463   0.39673   0.00000  Uiso   1.00
O324   O     0.18126   0.03930   0.36981   0.00000  Uiso   1.00
O325   O     0.15819   0.49205   0.40331   0.00000  Uiso   1.00
N326   N     0.30296   0.45964   0.60393   0.00000  Uiso   1.00
O327   O     0.32543   0.47542   0.62788   0.00000  Uiso   1.00
O328   O     0.29950   0.42431   0.60476   0.00000  Uiso   1.00
N329   N     0.04028   0.19699   0.39603   0.00000  Uiso   1.00
O330   O     0.02436   0.17442   0.37230   0.00000  Uiso   1.00
O331   O     0.07559   0.20057   0.39485   0.00000  Uiso   1.00
N332   N     0.48536   0.31517   0.60324   0.00000  Uiso   1.00
O333   O     0.46080   0.31874   0.63026   0.00000  Uiso   1.00
O334   O     0.00783   0.34188   0.59647   0.00000  Uiso   1.00
N335   N     0.31515   0.48537   0.39673   0.00000  Uiso   1.00
O336   O     0.31874   0.46071   0.36981   0.00000  Uiso   1.00
O337   O     0.34181   0.00795   0.40332   0.00000  Uiso   1.00
N338   N     0.19704   0.04037   0.60393   0.00000  Uiso   1.00
O339   O     0.17458   0.02458   0.62788   0.00000  Uiso   1.00
O340   O     0.20050   0.07569   0.60476   0.00000  Uiso   1.00
N341   N     0.20973   0.05301   0.89603   0.00000  Uiso   1.00
O342   O     0.22564   0.07558   0.87230   0.00000  Uiso   1.00
O343   O     0.17442   0.04944   0.89484   0.00000  Uiso   1.00
N344   N     0.26463   0.43483   0.10324   0.00000  Uiso   1.00
O345   O     0.28917   0.43125   0.13027   0.00000  Uiso   1.00
O346   O     0.24217   0.40811   0.09644   0.00000  Uiso   1.00
N347   N     0.43486   0.26463   0.89673   0.00000  Uiso   1.00
O348   O     0.43126   0.28933   0.86984   0.00000  Uiso   1.00
O349   O     0.40822   0.24201   0.90326   0.00000  Uiso   1.00
N350   N     0.05295   0.20961   0.10391   0.00000  Uiso   1.00
O351   O     0.07534   0.22532   0.12799   0.00000  Uiso   1.00
O352   O     0.04958   0.17427   0.10452   0.00000  Uiso   1.00
N353   N     0.29028   0.44699   0.89604   0.00000  Uiso   1.00
O354   O     0.27437   0.42443   0.87229   0.00000  Uiso   1.00
O355   O     0.32559   0.45056   0.89487   0.00000  Uiso   1.00
N356   N     0.23537   0.06517   0.10323   0.00000  Uiso   1.00
O357   O     0.21083   0.06875   0.13027   0.00000  Uiso   1.00
O358   O     0.25782   0.09189   0.09642   0.00000  Uiso   1.00
N359   N     0.06513   0.23531   0.89668   0.00000  Uiso   1.00
O360   O     0.06870   0.21051   0.86991   0.00000  Uiso   1.00
O361   O     0.09175   0.25801   0.90303   0.00000  Uiso   1.00
N362   N     0.44703   0.29036   0.10393   0.00000  Uiso   1.00
O363   O     0.42458   0.27456   0.12790   0.00000  Uiso   1.00
O364   O     0.45045   0.32569   0.10473   0.00000  Uiso   1.00
Zn365  Zn    0.70659  -0.00000   0.21735   0.00000  Uiso   1.00
Zn366  Zn    0.79340  -0.00000   0.78265   0.00000  Uiso   1.00
Zn367  Zn    0.50000   0.20660   0.21735   0.00000  Uiso   1.00
Zn368  Zn    0.50000   0.29341   0.78265   0.00000  Uiso   1.00
Zn369  Zn    0.79340  -0.00000   0.21735   0.00000  Uiso   1.00
Zn370  Zn    0.70659  -0.00000   0.78265   0.00000  Uiso   1.00
Zn371  Zn    0.50000   0.29340   0.21735   0.00000  Uiso   1.00
Zn372  Zn    0.50000   0.20659   0.78265   0.00000  Uiso   1.00
Zn373  Zn    0.95659   0.25000   0.71735   0.00000  Uiso   1.00
Zn374  Zn    0.54340   0.25000   0.28265   0.00000  Uiso   1.00
Zn375  Zn    0.75000   0.45659   0.71735   0.00000  Uiso   1.00
Zn376  Zn    0.75000   0.04340   0.28265   0.00000  Uiso   1.00
Zn377  Zn    0.54340   0.25000   0.71735   0.00000  Uiso   1.00
Zn378  Zn    0.95659   0.25000   0.28265   0.00000  Uiso   1.00
Zn379  Zn    0.75000   0.04340   0.71735   0.00000  Uiso   1.00
Zn380  Zn    0.75000   0.45659   0.28265   0.00000  Uiso   1.00
C381   C     0.98111   0.27748   0.41805   0.00000  Uiso   1.00
C382   C     0.51089   0.21853   0.58218   0.00000  Uiso   1.00
C383   C     0.71852   0.01086   0.41781   0.00000  Uiso   1.00
C384   C     0.77749   0.48112   0.58195   0.00000  Uiso   1.00
C385   C     0.51889   0.22252   0.41805   0.00000  Uiso   1.00
C386   C     0.98912   0.28147   0.58219   0.00000  Uiso   1.00
C387   C     0.78148   0.48914   0.41781   0.00000  Uiso   1.00
C388   C     0.72251   0.01888   0.58195   0.00000  Uiso   1.00
C389   C     0.73111   0.02748   0.91805   0.00000  Uiso   1.00
C390   C     0.76088   0.46853   0.08218   0.00000  Uiso   1.00
C391   C     0.96853   0.26086   0.91781   0.00000  Uiso   1.00
C392   C     0.52751   0.23116   0.08195   0.00000  Uiso   1.00
C393   C     0.76889   0.47252   0.91805   0.00000  Uiso   1.00
C394   C     0.73912   0.03147   0.08218   0.00000  Uiso   1.00
C395   C     0.53149   0.23916   0.91780   0.00000  Uiso   1.00
C396   C     0.97251   0.26888   0.08195   0.00000  Uiso   1.00
C397   C     0.50000   0.25000   0.39815   0.00000  Uiso   1.00
C398   C     0.50000   0.25000   0.60213   0.00000  Uiso   1.00
C399   C     0.75000  -0.00000   0.39787   0.00000  Uiso   1.00
C400   C     0.75000  -0.00000   0.60185   0.00000  Uiso   1.00
C401   C     0.75000  -0.00000   0.89815   0.00000  Uiso   1.00
C402   C     0.75000  -0.00000   0.10213   0.00000  Uiso   1.00
C403   C     0.50000   0.25000   0.89787   0.00000  Uiso   1.00
C404   C     0.50001   0.25001   0.10185   0.00000  Uiso   1.00
O405   O     0.75000  -0.00000   0.25000   0.00000  Uiso   1.00
O406   O     0.75000  -0.00000   0.75000   0.00000  Uiso   1.00
O407   O     0.50000   0.25000   0.25000   0.00000  Uiso   1.00
O408   O     0.50000   0.25000   0.75000   0.00000  Uiso   1.00
O409   O     0.75000   0.46963   0.33755   0.00000  Uiso   1.00
O410   O     0.75000   0.03036   0.66245   0.00000  Uiso   1.00
O411   O     0.53036   0.25000   0.33755   0.00000  Uiso   1.00
O412   O     0.96963   0.25000   0.66245   0.00000  Uiso   1.00
O413   O     0.75000   0.03036   0.33755   0.00000  Uiso   1.00
O414   O     0.75000   0.46963   0.66245   0.00000  Uiso   1.00
O415   O     0.96963   0.25000   0.33755   0.00000  Uiso   1.00
O416   O     0.53036   0.25000   0.66245   0.00000  Uiso   1.00
O417   O     0.50000   0.21964   0.83755   0.00000  Uiso   1.00
O418   O     0.50000   0.28036   0.16245   0.00000  Uiso   1.00
O419   O     0.78036  -0.00000   0.83755   0.00000  Uiso   1.00
O420   O     0.71963  -0.00000   0.16245   0.00000  Uiso   1.00
O421   O     0.50000   0.28037   0.83755   0.00000  Uiso   1.00
O422   O     0.50000   0.21964   0.16245   0.00000  Uiso   1.00
O423   O     0.71963  -0.00000   0.83755   0.00000  Uiso   1.00
O424   O     0.78036  -0.00000   0.16245   0.00000  Uiso   1.00
O425   O     0.70724   0.07307   0.27302   0.00000  Uiso   1.00
O426   O     0.79275   0.42692   0.72698   0.00000  Uiso   1.00
O427   O     0.92692   0.20724   0.27302   0.00000  Uiso   1.00
O428   O     0.57307   0.29276   0.72698   0.00000  Uiso   1.00
O429   O     0.79275   0.42692   0.27302   0.00000  Uiso   1.00
O430   O     0.70724   0.07307   0.72698   0.00000  Uiso   1.00
O431   O     0.57307   0.29276   0.27302   0.00000  Uiso   1.00
O432   O     0.92692   0.20724   0.72698   0.00000  Uiso   1.00
O433   O     0.70724   0.42692   0.72698   0.00000  Uiso   1.00
O434   O     0.79275   0.07307   0.27302   0.00000  Uiso   1.00
O435   O     0.92692   0.29275   0.72698   0.00000  Uiso   1.00
O436   O     0.57307   0.20724   0.27302   0.00000  Uiso   1.00
O437   O     0.79275   0.07307   0.72698   0.00000  Uiso   1.00
O438   O     0.70724   0.42692   0.27302   0.00000  Uiso   1.00
O439   O     0.57307   0.20724   0.72698   0.00000  Uiso   1.00
O440   O     0.92692   0.29275   0.27302   0.00000  Uiso   1.00
O441   O     0.95724   0.32307   0.77302   0.00000  Uiso   1.00
O442   O     0.54275   0.17693   0.22698   0.00000  Uiso   1.00
O443   O     0.67692   0.45724   0.77302   0.00000  Uiso   1.00
O444   O     0.82307   0.04275   0.22698   0.00000  Uiso   1.00
O445   O     0.54275   0.17693   0.77302   0.00000  Uiso   1.00
O446   O     0.95724   0.32307   0.22698   0.00000  Uiso   1.00
O447   O     0.82307   0.04275   0.77302   0.00000  Uiso   1.00
O448   O     0.67692   0.45724   0.22698   0.00000  Uiso   1.00
O449   O     0.95724   0.17692   0.22698   0.00000  Uiso   1.00
O450   O     0.54275   0.32308   0.77302   0.00000  Uiso   1.00
O451   O     0.67692   0.04275   0.22698   0.00000  Uiso   1.00
O452   O     0.82307   0.45724   0.77302   0.00000  Uiso   1.00
O453   O     0.54275   0.32308   0.22698   0.00000  Uiso   1.00
O454   O     0.95724   0.17692   0.77302   0.00000  Uiso   1.00
O455   O     0.82307   0.45724   0.22698   0.00000  Uiso   1.00
O456   O     0.67692   0.04275   0.77302   0.00000  Uiso   1.00
C457   C     0.53220   0.19110   0.48012   0.00000  Uiso   1.00
C458   C     0.96824   0.30897   0.52072   0.00000  Uiso   1.00
C459   C     0.80907   0.46841   0.47929   0.00000  Uiso   1.00
C460   C     0.69098   0.03197   0.51990   0.00000  Uiso   1.00
C461   C     0.96783   0.30892   0.48011   0.00000  Uiso   1.00
C462   C     0.53179   0.19105   0.52073   0.00000  Uiso   1.00
C463   C     0.69093   0.03158   0.47929   0.00000  Uiso   1.00
C464   C     0.80902   0.46802   0.51990   0.00000  Uiso   1.00
C465   C     0.78219   0.44109   0.98012   0.00000  Uiso   1.00
C466   C     0.71822   0.05895   0.02073   0.00000  Uiso   1.00
C467   C     0.55917   0.21857   0.97931   0.00000  Uiso   1.00
C468   C     0.94097   0.28194   0.01991   0.00000  Uiso   1.00
C469   C     0.71780   0.05890   0.98012   0.00000  Uiso   1.00
C470   C     0.78178   0.44104   0.02073   0.00000  Uiso   1.00
C471   C     0.94092   0.28155   0.97930   0.00000  Uiso   1.00
C472   C     0.55912   0.21820   0.01992   0.00000  Uiso   1.00
C473   C     0.75000  -0.00000   0.35570   0.00000  Uiso   1.00
C474   C     0.75000  -0.00000   0.64421   0.00000  Uiso   1.00
C475   C     0.50000   0.25000   0.35579   0.00000  Uiso   1.00
C476   C     0.50000   0.25000   0.64430   0.00000  Uiso   1.00
C477   C     0.50000   0.25000   0.85570   0.00000  Uiso   1.00
C478   C     0.50000   0.25000   0.14421   0.00000  Uiso   1.00
C479   C     0.75000  -0.00000   0.85579   0.00000  Uiso   1.00
C480   C     0.75000  -0.00000   0.14430   0.00000  Uiso   1.00
C481   C     0.68004   0.06996   0.25000   0.00000  Uiso   1.00
C482   C     0.81996   0.43004   0.75000   0.00000  Uiso   1.00
C483   C     0.93004   0.18004   0.25000   0.00000  Uiso   1.00
C484   C     0.56997   0.31997   0.75000   0.00000  Uiso   1.00
C485   C     0.81996   0.43004   0.25000   0.00000  Uiso   1.00
C486   C     0.68004   0.06996   0.75000   0.00000  Uiso   1.00
C487   C     0.56996   0.31996   0.25000   0.00000  Uiso   1.00
C488   C     0.93003   0.18003   0.75000   0.00000  Uiso   1.00
C489   C     0.68004   0.43004   0.75000   0.00000  Uiso   1.00
C490   C     0.81997   0.06997   0.25000   0.00000  Uiso   1.00
C491   C     0.93004   0.31996   0.75000   0.00000  Uiso   1.00
C492   C     0.56996   0.18004   0.25000   0.00000  Uiso   1.00
C493   C     0.81996   0.06996   0.75000   0.00000  Uiso   1.00
C494   C     0.68003   0.43003   0.25000   0.00000  Uiso   1.00
C495   C     0.56996   0.18004   0.75000   0.00000  Uiso   1.00
C496   C     0.93004   0.31996   0.25000   0.00000  Uiso   1.00
C497   C     0.64087   0.38608   0.21459   0.00000  Uiso   1.00
C498   C     0.85902   0.11395   0.78540   0.00000  Uiso   1.00
C499   C     0.58805   0.11508   0.25484   0.00000  Uiso   1.00
C500   C     0.91195   0.38492   0.74516   0.00000  Uiso   1.00
C501   C     0.85912   0.11392   0.21459   0.00000  Uiso   1.00
C502   C     0.64097   0.38606   0.78540   0.00000  Uiso   1.00
C503   C     0.91195   0.38492   0.25485   0.00000  Uiso   1.00
C504   C     0.58805   0.11508   0.74515   0.00000  Uiso   1.00
C505   C     0.61508   0.08805   0.74516   0.00000  Uiso   1.00
C506   C     0.88492   0.41195   0.25486   0.00000  Uiso   1.00
C507   C     0.61389   0.35915   0.78541   0.00000  Uiso   1.00
C508   C     0.88604   0.14099   0.21460   0.00000  Uiso   1.00
C509   C     0.88492   0.41195   0.74517   0.00000  Uiso   1.00
C510   C     0.61508   0.08805   0.25485   0.00000  Uiso   1.00
C511   C     0.88609   0.14086   0.78541   0.00000  Uiso   1.00
C512   C     0.61396   0.35901   0.21460   0.00000  Uiso   1.00
C513   C     0.89087   0.13609   0.71459   0.00000  Uiso   1.00
C514   C     0.60901   0.36395   0.28540   0.00000  Uiso   1.00
C515   C     0.83805   0.36508   0.75484   0.00000  Uiso   1.00
C516   C     0.66195   0.13492   0.24516   0.00000  Uiso   1.00
C517   C     0.60914   0.36390   0.71458   0.00000  Uiso   1.00
C518   C     0.89099   0.13605   0.28540   0.00000  Uiso   1.00
C519   C     0.66195   0.13492   0.75484   0.00000  Uiso   1.00
C520   C     0.83805   0.36508   0.24514   0.00000  Uiso   1.00
C521   C     0.86508   0.33805   0.24515   0.00000  Uiso   1.00
C522   C     0.63492   0.16195   0.75485   0.00000  Uiso   1.00
C523   C     0.86391   0.10913   0.28541   0.00000  Uiso   1.00
C524   C     0.63606   0.39098   0.71459   0.00000  Uiso   1.00
C525   C     0.63492   0.16195   0.24516   0.00000  Uiso   1.00
C526   C     0.86508   0.33805   0.75484   0.00000  Uiso   1.00
C527   C     0.63609   0.39087   0.28541   0.00000  Uiso   1.00
C528   C     0.86395   0.10901   0.71460   0.00000  Uiso   1.00
C529   C     0.51705   0.22079   0.45905   0.00000  Uiso   1.00
C530   C     0.98550   0.28037   0.54135   0.00000  Uiso   1.00
C531   C     0.78040   0.48556   0.45866   0.00000  Uiso   1.00
C532   C     0.72075   0.01697   0.54095   0.00000  Uiso   1.00
C533   C     0.98296   0.27922   0.45905   0.00000  Uiso   1.00
C534   C     0.51451   0.21964   0.54135   0.00000  Uiso   1.00
C535   C     0.71959   0.01443   0.45866   0.00000  Uiso   1.00
C536   C     0.77925   0.48303   0.54095   0.00000  Uiso   1.00
C537   C     0.76704   0.47079   0.95905   0.00000  Uiso   1.00
C538   C     0.73550   0.03036   0.04135   0.00000  Uiso   1.00
C539   C     0.53045   0.23563   0.95866   0.00000  Uiso   1.00
C540   C     0.97076   0.26697   0.04095   0.00000  Uiso   1.00
C541   C     0.73295   0.02921   0.95905   0.00000  Uiso   1.00
C542   C     0.76450   0.46963   0.04135   0.00000  Uiso   1.00
C543   C     0.96960   0.26443   0.95866   0.00000  Uiso   1.00
C544   C     0.52929   0.23311   0.04095   0.00000  Uiso   1.00
C545   C     0.59806   0.34806   0.25000   0.00000  Uiso   1.00
C546   C     0.90192   0.15191   0.75000   0.00000  Uiso   1.00
C547   C     0.65194   0.09806   0.25000   0.00000  Uiso   1.00
C548   C     0.84806   0.40194   0.75000   0.00000  Uiso   1.00
C549   C     0.90194   0.15194   0.25000   0.00000  Uiso   1.00
C550   C     0.59808   0.34809   0.75000   0.00000  Uiso   1.00
C551   C     0.84806   0.40194   0.25000   0.00000  Uiso   1.00
C552   C     0.65194   0.09806   0.75000   0.00000  Uiso   1.00
C553   C     0.59806   0.15194   0.75000   0.00000  Uiso   1.00
C554   C     0.90194   0.34806   0.25000   0.00000  Uiso   1.00
C555   C     0.65194   0.40194   0.75000   0.00000  Uiso   1.00
C556   C     0.84808   0.09809   0.25000   0.00000  Uiso   1.00
C557   C     0.90194   0.34806   0.75000   0.00000  Uiso   1.00
C558   C     0.59806   0.15194   0.25000   0.00000  Uiso   1.00
C559   C     0.84806   0.09806   0.75000   0.00000  Uiso   1.00
C560   C     0.65192   0.40191   0.25000   0.00000  Uiso   1.00
C561   C     0.50001   0.25001   0.47959   0.00000  Uiso   1.00
C562   C     0.50001   0.25001   0.52072   0.00000  Uiso   1.00
C563   C     0.75000  -0.00000   0.47928   0.00000  Uiso   1.00
C564   C     0.75000  -0.00000   0.52041   0.00000  Uiso   1.00
C565   C     0.75000  -0.00000   0.97959   0.00000  Uiso   1.00
C566   C     0.75000  -0.00000   0.02072   0.00000  Uiso   1.00
C567   C     0.50003   0.25004   0.97928   0.00000  Uiso   1.00
C568   C     0.50003   0.25004   0.02041   0.00000  Uiso   1.00
N569   N     0.54713   0.15976   0.46084   0.00000  Uiso   1.00
O570   O     0.52523   0.13511   0.44690   0.00000  Uiso   1.00
O571   O     0.58187   0.15269   0.46337   0.00000  Uiso   1.00
N572   N     0.94828   0.33706   0.54064   0.00000  Uiso   1.00
O573   O     0.91830   0.32888   0.55889   0.00000  Uiso   1.00
O574   O     0.95733   0.37117   0.53647   0.00000  Uiso   1.00
N575   N     0.83727   0.44860   0.45940   0.00000  Uiso   1.00
O576   O     0.82928   0.41848   0.44129   0.00000  Uiso   1.00
O577   O     0.87132   0.45790   0.46350   0.00000  Uiso   1.00
N578   N     0.65952   0.04662   0.53921   0.00000  Uiso   1.00
O579   O     0.63517   0.02450   0.55337   0.00000  Uiso   1.00
O580   O     0.65205   0.08127   0.53657   0.00000  Uiso   1.00
N581   N     0.95293   0.34027   0.46083   0.00000  Uiso   1.00
O582   O     0.97486   0.36489   0.44686   0.00000  Uiso   1.00
O583   O     0.91820   0.34739   0.46338   0.00000  Uiso   1.00
N584   N     0.55176   0.16297   0.54065   0.00000  Uiso   1.00
O585   O     0.58173   0.17117   0.55892   0.00000  Uiso   1.00
O586   O     0.54274   0.12885   0.53647   0.00000  Uiso   1.00
N587   N     0.66272   0.05140   0.45940   0.00000  Uiso   1.00
O588   O     0.67071   0.08151   0.44130   0.00000  Uiso   1.00
O589   O     0.62868   0.04209   0.46350   0.00000  Uiso   1.00
N590   N     0.84048   0.45337   0.53921   0.00000  Uiso   1.00
O591   O     0.86483   0.47549   0.55336   0.00000  Uiso   1.00
O592   O     0.84793   0.41872   0.53658   0.00000  Uiso   1.00
N593   N     0.79710   0.40974   0.96084   0.00000  Uiso   1.00
O594   O     0.77519   0.38510   0.94688   0.00000  Uiso   1.00
O595   O     0.83184   0.40266   0.96338   0.00000  Uiso   1.00
N596   N     0.69824   0.08703   0.04065   0.00000  Uiso   1.00
O597   O     0.66828   0.07883   0.05892   0.00000  Uiso   1.00
O598   O     0.70727   0.12115   0.03646   0.00000  Uiso   1.00
N599   N     0.58746   0.19888   0.95944   0.00000  Uiso   1.00
O600   O     0.57965   0.16862   0.94152   0.00000  Uiso   1.00
O601   O     0.62146   0.20841   0.96346   0.00000  Uiso   1.00
N602   N     0.90949   0.29655   0.03921   0.00000  Uiso   1.00
O603   O     0.88518   0.27439   0.05338   0.00000  Uiso   1.00
O604   O     0.90197   0.33119   0.03657   0.00000  Uiso   1.00
N605   N     0.70288   0.09024   0.96084   0.00000  Uiso   1.00
O606   O     0.72478   0.11490   0.94690   0.00000  Uiso   1.00
O607   O     0.66814   0.09731   0.96337   0.00000  Uiso   1.00
N608   N     0.80174   0.41295   0.04064   0.00000  Uiso   1.00
O609   O     0.83171   0.42115   0.05891   0.00000  Uiso   1.00
O610   O     0.79270   0.37884   0.03647   0.00000  Uiso   1.00
N611   N     0.91268   0.30133   0.95941   0.00000  Uiso   1.00
O612   O     0.92062   0.33148   0.94135   0.00000  Uiso   1.00
O613   O     0.87865   0.29196   0.96349   0.00000  Uiso   1.00
N614   N     0.59065   0.20373   0.03924   0.00000  Uiso   1.00
O615   O     0.61480   0.22599   0.05353   0.00000  Uiso   1.00
O616   O     0.59836   0.16914   0.03655   0.00000  Uiso   1.00
C617   C     0.65799   0.39673   0.17828   0.00000  Uiso   1.00
N618   N     0.67161   0.40524   0.14936   0.00000  Uiso   1.00
C619   C     0.84157   0.10358   0.82164   0.00000  Uiso   1.00
N620   N     0.82765   0.09532   0.85048   0.00000  Uiso   1.00
C621   C     0.55014   0.10509   0.26115   0.00000  Uiso   1.00
N622   N     0.51994   0.09716   0.26618   0.00000  Uiso   1.00
C623   C     0.94986   0.39491   0.73884   0.00000  Uiso   1.00
N624   N     0.98006   0.40283   0.73380   0.00000  Uiso   1.00
C625   C     0.84200   0.10327   0.17828   0.00000  Uiso   1.00
N626   N     0.82838   0.09477   0.14936   0.00000  Uiso   1.00
C627   C     0.65841   0.39644   0.82164   0.00000  Uiso   1.00
N628   N     0.67232   0.40471   0.85049   0.00000  Uiso   1.00
C629   C     0.94986   0.39490   0.26117   0.00000  Uiso   1.00
N630   N     0.98006   0.40283   0.26621   0.00000  Uiso   1.00
C631   C     0.55014   0.10510   0.73882   0.00000  Uiso   1.00
N632   N     0.51994   0.09717   0.73377   0.00000  Uiso   1.00
C633   C     0.60509   0.05014   0.73885   0.00000  Uiso   1.00
N634   N     0.59716   0.01994   0.73381   0.00000  Uiso   1.00
C635   C     0.89490   0.44985   0.26119   0.00000  Uiso   1.00
N636   N     0.90283   0.48005   0.26625   0.00000  Uiso   1.00
C637   C     0.60321   0.34207   0.82172   0.00000  Uiso   1.00
N638   N     0.59467   0.32849   0.85066   0.00000  Uiso   1.00
C639   C     0.89640   0.15845   0.17836   0.00000  Uiso   1.00
N640   N     0.90466   0.17238   0.14952   0.00000  Uiso   1.00
C641   C     0.89491   0.44986   0.73887   0.00000  Uiso   1.00
N642   N     0.90284   0.48006   0.73384   0.00000  Uiso   1.00
C643   C     0.60509   0.05014   0.26117   0.00000  Uiso   1.00
N644   N     0.59717   0.01995   0.26622   0.00000  Uiso   1.00
C645   C     0.89676   0.15796   0.82172   0.00000  Uiso   1.00
N646   N     0.90528   0.17155   0.85065   0.00000  Uiso   1.00
C647   C     0.60359   0.34155   0.17836   0.00000  Uiso   1.00
N648   N     0.59534   0.32763   0.14952   0.00000  Uiso   1.00
C649   C     0.90799   0.14674   0.67828   0.00000  Uiso   1.00
N650   N     0.92160   0.15525   0.64936   0.00000  Uiso   1.00
C651   C     0.59156   0.35359   0.32164   0.00000  Uiso   1.00
N652   N     0.57763   0.34533   0.35048   0.00000  Uiso   1.00
C653   C     0.80014   0.35509   0.76113   0.00000  Uiso   1.00
N654   N     0.76994   0.34716   0.76616   0.00000  Uiso   1.00
C655   C     0.69986   0.14490   0.23883   0.00000  Uiso   1.00
N656   N     0.73006   0.15283   0.23378   0.00000  Uiso   1.00
C657   C     0.59203   0.35324   0.67828   0.00000  Uiso   1.00
N658   N     0.57843   0.34472   0.64935   0.00000  Uiso   1.00
C659   C     0.90844   0.14641   0.32164   0.00000  Uiso   1.00
N660   N     0.92237   0.15466   0.35048   0.00000  Uiso   1.00
C661   C     0.69986   0.14491   0.76115   0.00000  Uiso   1.00
N662   N     0.73006   0.15283   0.76619   0.00000  Uiso   1.00
C663   C     0.80015   0.35510   0.23880   0.00000  Uiso   1.00
N664   N     0.76995   0.34717   0.23374   0.00000  Uiso   1.00
C665   C     0.85509   0.30014   0.23883   0.00000  Uiso   1.00
N666   N     0.84717   0.26995   0.23378   0.00000  Uiso   1.00
C667   C     0.64491   0.19985   0.76117   0.00000  Uiso   1.00
N668   N     0.65283   0.23005   0.76623   0.00000  Uiso   1.00
C669   C     0.85325   0.09202   0.32172   0.00000  Uiso   1.00
N670   N     0.84474   0.07842   0.35064   0.00000  Uiso   1.00
C671   C     0.64643   0.40842   0.67835   0.00000  Uiso   1.00
N672   N     0.65470   0.42233   0.64951   0.00000  Uiso   1.00
C673   C     0.64491   0.19986   0.23886   0.00000  Uiso   1.00
N674   N     0.65284   0.23006   0.23382   0.00000  Uiso   1.00
C675   C     0.85509   0.30014   0.76116   0.00000  Uiso   1.00
N676   N     0.84716   0.26994   0.76620   0.00000  Uiso   1.00
C677   C     0.64675   0.40797   0.32172   0.00000  Uiso   1.00
N678   N     0.65526   0.42158   0.35064   0.00000  Uiso   1.00
C679   C     0.85359   0.09156   0.67836   0.00000  Uiso   1.00
N680   N     0.84533   0.07764   0.64951   0.00000  Uiso   1.00
N681   N     0.95971   0.30300   0.39604   0.00000  Uiso   1.00
O682   O     0.97561   0.32556   0.37227   0.00000  Uiso   1.00
O683   O     0.92440   0.29944   0.39489   0.00000  Uiso   1.00
N684   N     0.51463   0.18483   0.60323   0.00000  Uiso   1.00
O685   O     0.53918   0.18125   0.63027   0.00000  Uiso   1.00
O686   O     0.99218   0.15811   0.59643   0.00000  Uiso   1.00
N687   N     0.68485   0.01463   0.39673   0.00000  Uiso   1.00
O688   O     0.68126   0.03930   0.36981   0.00000  Uiso   1.00
O689   O     0.65819   0.49205   0.40331   0.00000  Uiso   1.00
N690   N     0.80296   0.45964   0.60393   0.00000  Uiso   1.00
O691   O     0.82543   0.47542   0.62788   0.00000  Uiso   1.00
O692   O     0.79950   0.42431   0.60476   0.00000  Uiso   1.00
N693   N     0.54028   0.19699   0.39603   0.00000  Uiso   1.00
O694   O     0.52436   0.17442   0.37230   0.00000  Uiso   1.00
O695   O     0.57559   0.20057   0.39485   0.00000  Uiso   1.00
N696   N     0.98536   0.31517   0.60324   0.00000  Uiso   1.00
O697   O     0.96080   0.31874   0.63026   0.00000  Uiso   1.00
O698   O     0.50783   0.34188   0.59647   0.00000  Uiso   1.00
N699   N     0.81515   0.48537   0.39673   0.00000  Uiso   1.00
O700   O     0.81874   0.46071   0.36981   0.00000  Uiso   1.00
O701   O     0.84181   0.00795   0.40332   0.00000  Uiso   1.00
N702   N     0.69704   0.04037   0.60393   0.00000  Uiso   1.00
O703   O     0.67458   0.02458   0.62788   0.00000  Uiso   1.00
O704   O     0.70050   0.07569   0.60476   0.00000  Uiso   1.00
N705   N     0.70973   0.05301   0.89603   0.00000  Uiso   1.00
O706   O     0.72564   0.07558   0.87230   0.00000  Uiso   1.00
O707   O     0.67442   0.04944   0.89484   0.00000  Uiso   1.00
N708   N     0.76463   0.43483   0.10324   0.00000  Uiso   1.00
O709   O     0.78917   0.43125   0.13027   0.00000  Uiso   1.00
O710   O     0.74217   0.40811   0.09644   0.00000  Uiso   1.00
N711   N     0.93486   0.26463   0.89673   0.00000  Uiso   1.00
O712   O     0.93126   0.28933   0.86984   0.00000  Uiso   1.00
O713   O     0.90822   0.24201   0.90326   0.00000  Uiso   1.00
N714   N     0.55295   0.20961   0.10391   0.00000  Uiso   1.00
O715   O     0.57534   0.22532   0.12799   0.00000  Uiso   1.00
O716   O     0.54958   0.17427   0.10452   0.00000  Uiso   1.00
N717   N     0.79028   0.44699   0.89604   0.00000  Uiso   1.00
O718   O     0.77437   0.42443   0.87229   0.00000  Uiso   1.00
O719   O     0.82559   0.45056   0.89487   0.00000  Uiso   1.00
N720   N     0.73537   0.06517   0.10323   0.00000  Uiso   1.00
O721   O     0.71083   0.06875   0.13027   0.00000  Uiso   1.00
O722   O     0.75782   0.09189   0.09642   0.00000  Uiso   1.00
N723   N     0.56513   0.23531   0.89668   0.00000  Uiso   1.00
O724   O     0.56870   0.21051   0.86991   0.00000  Uiso   1.00
O725   O     0.59175   0.25801   0.90303   0.00000  Uiso   1.00
N726   N     0.94703   0.29036   0.10393   0.00000  Uiso   1.00
O727   O     0.92458   0.27456   0.12790   0.00000  Uiso   1.00
O728   O     0.95045   0.32569   0.10473   0.00000  Uiso   1.00
Zn729  Zn    0.20659   0.50000   0.21735   0.00000  Uiso   1.00
Zn730  Zn    0.29340   0.50000   0.78265   0.00000  Uiso   1.00
Zn731  Zn    0.00000   0.70660   0.21735   0.00000  Uiso   1.00
Zn732  Zn    0.00000   0.79341   0.78265   0.00000  Uiso   1.00
Zn733  Zn    0.29340   0.50000   0.21735   0.00000  Uiso   1.00
Zn734  Zn    0.20659   0.50000   0.78265   0.00000  Uiso   1.00
Zn735  Zn   -0.00000   0.79340   0.21735   0.00000  Uiso   1.00
Zn736  Zn   -0.00000   0.70659   0.78265   0.00000  Uiso   1.00
Zn737  Zn    0.45659   0.75000   0.71735   0.00000  Uiso   1.00
Zn738  Zn    0.04340   0.75000   0.28265   0.00000  Uiso   1.00
Zn739  Zn    0.25000   0.95659   0.71735   0.00000  Uiso   1.00
Zn740  Zn    0.25000   0.54340   0.28265   0.00000  Uiso   1.00
Zn741  Zn    0.04340   0.75000   0.71735   0.00000  Uiso   1.00
Zn742  Zn    0.45659   0.75000   0.28265   0.00000  Uiso   1.00
Zn743  Zn    0.25000   0.54340   0.71735   0.00000  Uiso   1.00
Zn744  Zn    0.25000   0.95659   0.28265   0.00000  Uiso   1.00
C745   C     0.48111   0.77748   0.41805   0.00000  Uiso   1.00
C746   C     0.01089   0.71853   0.58218   0.00000  Uiso   1.00
C747   C     0.21852   0.51086   0.41781   0.00000  Uiso   1.00
C748   C     0.27749   0.98112   0.58195   0.00000  Uiso   1.00
C749   C     0.01889   0.72252   0.41805   0.00000  Uiso   1.00
C750   C     0.48912   0.78147   0.58219   0.00000  Uiso   1.00
C751   C     0.28148   0.98914   0.41781   0.00000  Uiso   1.00
C752   C     0.22251   0.51888   0.58195   0.00000  Uiso   1.00
C753   C     0.23111   0.52748   0.91805   0.00000  Uiso   1.00
C754   C     0.26088   0.96853   0.08218   0.00000  Uiso   1.00
C755   C     0.46853   0.76086   0.91781   0.00000  Uiso   1.00
C756   C     0.02751   0.73116   0.08195   0.00000  Uiso   1.00
C757   C     0.26889   0.97252   0.91805   0.00000  Uiso   1.00
C758   C     0.23912   0.53147   0.08218   0.00000  Uiso   1.00
C759   C     0.03149   0.73916   0.91780   0.00000  Uiso   1.00
C760   C     0.47251   0.76888   0.08195   0.00000  Uiso   1.00
C761   C     0.00000   0.75000   0.39815   0.00000  Uiso   1.00
C762   C     0.00000   0.75000   0.60213   0.00000  Uiso   1.00
C763   C     0.25000   0.50000   0.39787   0.00000  Uiso   1.00
C764   C     0.25000   0.50000   0.60185   0.00000  Uiso   1.00
C765   C     0.25000   0.50000   0.89815   0.00000  Uiso   1.00
C766   C     0.25000   0.50000   0.10213   0.00000  Uiso   1.00
C767   C     0.00000   0.75000   0.89787   0.00000  Uiso   1.00
C768   C     0.00001   0.75001   0.10185   0.00000  Uiso   1.00
O769   O     0.25000   0.50000   0.25000   0.00000  Uiso   1.00
O770   O     0.25000   0.50000   0.75000   0.00000  Uiso   1.00
O771   O    -0.00000   0.75000   0.25000   0.00000  Uiso   1.00
O772   O    -0.00000   0.75000   0.75000   0.00000  Uiso   1.00
O773   O     0.25000   0.96963   0.33755   0.00000  Uiso   1.00
O774   O     0.25000   0.53036   0.66245   0.00000  Uiso   1.00
O775   O     0.03036   0.75000   0.33755   0.00000  Uiso   1.00
O776   O     0.46963   0.75000   0.66245   0.00000  Uiso   1.00
O777   O     0.25000   0.53036   0.33755   0.00000  Uiso   1.00
O778   O     0.25000   0.96963   0.66245   0.00000  Uiso   1.00
O779   O     0.46963   0.75000   0.33755   0.00000  Uiso   1.00
O780   O     0.03036   0.75000   0.66245   0.00000  Uiso   1.00
O781   O     0.00000   0.71964   0.83755   0.00000  Uiso   1.00
O782   O    -0.00000   0.78036   0.16245   0.00000  Uiso   1.00
O783   O     0.28036   0.50000   0.83755   0.00000  Uiso   1.00
O784   O     0.21963   0.50000   0.16245   0.00000  Uiso   1.00
O785   O     0.00000   0.78037   0.83755   0.00000  Uiso   1.00
O786   O     0.00000   0.71964   0.16245   0.00000  Uiso   1.00
O787   O     0.21963   0.50000   0.83755   0.00000  Uiso   1.00
O788   O     0.28036   0.50000   0.16245   0.00000  Uiso   1.00
O789   O     0.20724   0.57307   0.27302   0.00000  Uiso   1.00
O790   O     0.29275   0.92692   0.72698   0.00000  Uiso   1.00
O791   O     0.42692   0.70724   0.27302   0.00000  Uiso   1.00
O792   O     0.07307   0.79276   0.72698   0.00000  Uiso   1.00
O793   O     0.29275   0.92692   0.27302   0.00000  Uiso   1.00
O794   O     0.20724   0.57307   0.72698   0.00000  Uiso   1.00
O795   O     0.07307   0.79276   0.27302   0.00000  Uiso   1.00
O796   O     0.42692   0.70724   0.72698   0.00000  Uiso   1.00
O797   O     0.20724   0.92692   0.72698   0.00000  Uiso   1.00
O798   O     0.29275   0.57307   0.27302   0.00000  Uiso   1.00
O799   O     0.42692   0.79275   0.72698   0.00000  Uiso   1.00
O800   O     0.07307   0.70724   0.27302   0.00000  Uiso   1.00
O801   O     0.29275   0.57307   0.72698   0.00000  Uiso   1.00
O802   O     0.20724   0.92692   0.27302   0.00000  Uiso   1.00
O803   O     0.07307   0.70724   0.72698   0.00000  Uiso   1.00
O804   O     0.42692   0.79275   0.27302   0.00000  Uiso   1.00
O805   O     0.45724   0.82307   0.77302   0.00000  Uiso   1.00
O806   O     0.04275   0.67693   0.22698   0.00000  Uiso   1.00
O807   O     0.17692   0.95724   0.77302   0.00000  Uiso   1.00
O808   O     0.32307   0.54275   0.22698   0.00000  Uiso   1.00
O809   O     0.04275   0.67693   0.77302   0.00000  Uiso   1.00
O810   O     0.45724   0.82307   0.22698   0.00000  Uiso   1.00
O811   O     0.32307   0.54275   0.77302   0.00000  Uiso   1.00
O812   O     0.17692   0.95724   0.22698   0.00000  Uiso   1.00
O813   O     0.45724   0.67692   0.22698   0.00000  Uiso   1.00
O814   O     0.04275   0.82308   0.77302   0.00000  Uiso   1.00
O815   O     0.17692   0.54275   0.22698   0.00000  Uiso   1.00
O816   O     0.32307   0.95724   0.77302   0.00000  Uiso   1.00
O817   O     0.04275   0.82308   0.22698   0.00000  Uiso   1.00
O818   O     0.45724   0.67692   0.77302   0.00000  Uiso   1.00
O819   O     0.32307   0.95724   0.22698   0.00000  Uiso   1.00
O820   O     0.17692   0.54275   0.77302   0.00000  Uiso   1.00
C821   C     0.03220   0.69110   0.48012   0.00000  Uiso   1.00
C822   C     0.46824   0.80897   0.52072   0.00000  Uiso   1.00
C823   C     0.30907   0.96841   0.47929   0.00000  Uiso   1.00
C824   C     0.19098   0.53197   0.51990   0.00000  Uiso   1.00
C825   C     0.46783   0.80892   0.48011   0.00000  Uiso   1.00
C826   C     0.03179   0.69105   0.52073   0.00000  Uiso   1.00
C827   C     0.19093   0.53158   0.47929   0.00000  Uiso   1.00
C828   C     0.30902   0.96802   0.51990   0.00000  Uiso   1.00
C829   C     0.28219   0.94109   0.98012   0.00000  Uiso   1.00
C830   C     0.21822   0.55895   0.02073   0.00000  Uiso   1.00
C831   C     0.05917   0.71857   0.97931   0.00000  Uiso   1.00
C832   C     0.44097   0.78194   0.01991   0.00000  Uiso   1.00
C833   C     0.21780   0.55890   0.98012   0.00000  Uiso   1.00
C834   C     0.28178   0.94104   0.02073   0.00000  Uiso   1.00
C835   C     0.44092   0.78155   0.97930   0.00000  Uiso   1.00
C836   C     0.05912   0.71820   0.01992   0.00000  Uiso   1.00
C837   C     0.25000   0.50000   0.35570   0.00000  Uiso   1.00
C838   C     0.25000   0.50000   0.64421   0.00000  Uiso   1.00
C839   C     0.00000   0.75000   0.35579   0.00000  Uiso   1.00
C840   C    -0.00000   0.75000   0.64430   0.00000  Uiso   1.00
C841   C    -0.00000   0.75000   0.85570   0.00000  Uiso   1.00
C842   C     0.00000   0.75000   0.14421   0.00000  Uiso   1.00
C843   C     0.25000   0.50000   0.85579   0.00000  Uiso   1.00
C844   C     0.25000   0.50000   0.14430   0.00000  Uiso   1.00
C845   C     0.18004   0.56996   0.25000   0.00000  Uiso   1.00
C846   C     0.31996   0.93004   0.75000   0.00000  Uiso   1.00
C847   C     0.43004   0.68004   0.25000   0.00000  Uiso   1.00
C848   C     0.06997   0.81997   0.75000   0.00000  Uiso   1.00
C849   C     0.31996   0.93004   0.25000   0.00000  Uiso   1.00
C850   C     0.18004   0.56996   0.75000   0.00000  Uiso   1.00
C851   C     0.06996   0.81996   0.25000   0.00000  Uiso   1.00
C852   C     0.43003   0.68003   0.75000   0.00000  Uiso   1.00
C853   C     0.18004   0.93004   0.75000   0.00000  Uiso   1.00
C854   C     0.31997   0.56997   0.25000   0.00000  Uiso   1.00
C855   C     0.43004   0.81996   0.75000   0.00000  Uiso   1.00
C856   C     0.06996   0.68004   0.25000   0.00000  Uiso   1.00
C857   C     0.31996   0.56996   0.75000   0.00000  Uiso   1.00
C858   C     0.18003   0.93003   0.25000   0.00000  Uiso   1.00
C859   C     0.06996   0.68004   0.75000   0.00000  Uiso   1.00
C860   C     0.43004   0.81996   0.25000   0.00000  Uiso   1.00
C861   C     0.14087   0.88608   0.21459   0.00000  Uiso   1.00
C862   C     0.35902   0.61395   0.78540   0.00000  Uiso   1.00
C863   C     0.08805   0.61508   0.25484   0.00000  Uiso   1.00
C864   C     0.41195   0.88492   0.74516   0.00000  Uiso   1.00
C865   C     0.35912   0.61392   0.21459   0.00000  Uiso   1.00
C866   C     0.14097   0.88606   0.78540   0.00000  Uiso   1.00
C867   C     0.41195   0.88492   0.25485   0.00000  Uiso   1.00
C868   C     0.08805   0.61508   0.74515   0.00000  Uiso   1.00
C869   C     0.11508   0.58805   0.74516   0.00000  Uiso   1.00
C870   C     0.38492   0.91195   0.25486   0.00000  Uiso   1.00
C871   C     0.11389   0.85915   0.78541   0.00000  Uiso   1.00
C872   C     0.38604   0.64099   0.21460   0.00000  Uiso   1.00
C873   C     0.38492   0.91195   0.74517   0.00000  Uiso   1.00
C874   C     0.11508   0.58805   0.25485   0.00000  Uiso   1.00
C875   C     0.38609   0.64086   0.78541   0.00000  Uiso   1.00
C876   C     0.11396   0.85901   0.21460   0.00000  Uiso   1.00
C877   C     0.39087   0.63609   0.71459   0.00000  Uiso   1.00
C878   C     0.10901   0.86395   0.28540   0.00000  Uiso   1.00
C879   C     0.33805   0.86508   0.75484   0.00000  Uiso   1.00
C880   C     0.16195   0.63492   0.24516   0.00000  Uiso   1.00
C881   C     0.10914   0.86390   0.71458   0.00000  Uiso   1.00
C882   C     0.39099   0.63605   0.28540   0.00000  Uiso   1.00
C883   C     0.16195   0.63492   0.75484   0.00000  Uiso   1.00
C884   C     0.33805   0.86508   0.24514   0.00000  Uiso   1.00
C885   C     0.36508   0.83805   0.24515   0.00000  Uiso   1.00
C886   C     0.13492   0.66195   0.75485   0.00000  Uiso   1.00
C887   C     0.36391   0.60913   0.28541   0.00000  Uiso   1.00
C888   C     0.13606   0.89098   0.71459   0.00000  Uiso   1.00
C889   C     0.13492   0.66195   0.24516   0.00000  Uiso   1.00
C890   C     0.36508   0.83805   0.75484   0.00000  Uiso   1.00
C891   C     0.13609   0.89087   0.28541   0.00000  Uiso   1.00
C892   C     0.36395   0.60901   0.71460   0.00000  Uiso   1.00
C893   C     0.01705   0.72079   0.45905   0.00000  Uiso   1.00
C894   C     0.48550   0.78037   0.54135   0.00000  Uiso   1.00
C895   C     0.28040   0.98556   0.45866   0.00000  Uiso   1.00
C896   C     0.22075   0.51697   0.54095   0.00000  Uiso   1.00
C897   C     0.48296   0.77922   0.45905   0.00000  Uiso   1.00
C898   C     0.01451   0.71964   0.54135   0.00000  Uiso   1.00
C899   C     0.21959   0.51443   0.45866   0.00000  Uiso   1.00
C900   C     0.27925   0.98303   0.54095   0.00000  Uiso   1.00
C901   C     0.26704   0.97079   0.95905   0.00000  Uiso   1.00
C902   C     0.23550   0.53036   0.04135   0.00000  Uiso   1.00
C903   C     0.03045   0.73563   0.95866   0.00000  Uiso   1.00
C904   C     0.47076   0.76697   0.04095   0.00000  Uiso   1.00
C905   C     0.23295   0.52921   0.95905   0.00000  Uiso   1.00
C906   C     0.26450   0.96963   0.04135   0.00000  Uiso   1.00
C907   C     0.46960   0.76443   0.95866   0.00000  Uiso   1.00
C908   C     0.02929   0.73311   0.04095   0.00000  Uiso   1.00
C909   C     0.09806   0.84806   0.25000   0.00000  Uiso   1.00
C910   C     0.40192   0.65191   0.75000   0.00000  Uiso   1.00
C911   C     0.15194   0.59806   0.25000   0.00000  Uiso   1.00
C912   C     0.34806   0.90194   0.75000   0.00000  Uiso   1.00
C913   C     0.40194   0.65194   0.25000   0.00000  Uiso   1.00
C914   C     0.09808   0.84809   0.75000   0.00000  Uiso   1.00
C915   C     0.34806   0.90194   0.25000   0.00000  Uiso   1.00
C916   C     0.15194   0.59806   0.75000   0.00000  Uiso   1.00
C917   C     0.09806   0.65194   0.75000   0.00000  Uiso   1.00
C918   C     0.40194   0.84806   0.25000   0.00000  Uiso   1.00
C919   C     0.15194   0.90194   0.75000   0.00000  Uiso   1.00
C920   C     0.34808   0.59809   0.25000   0.00000  Uiso   1.00
C921   C     0.40194   0.84806   0.75000   0.00000  Uiso   1.00
C922   C     0.09806   0.65194   0.25000   0.00000  Uiso   1.00
C923   C     0.34806   0.59806   0.75000   0.00000  Uiso   1.00
C924   C     0.15192   0.90191   0.25000   0.00000  Uiso   1.00
C925   C     0.00001   0.75001   0.47959   0.00000  Uiso   1.00
C926   C     0.00001   0.75001   0.52072   0.00000  Uiso   1.00
C927   C     0.25000   0.50000   0.47928   0.00000  Uiso   1.00
C928   C     0.25000   0.50000   0.52041   0.00000  Uiso   1.00
C929   C     0.25000   0.50000   0.97959   0.00000  Uiso   1.00
C930   C     0.25000   0.50000   0.02072   0.00000  Uiso   1.00
C931   C     0.00003   0.75004   0.97928   0.00000  Uiso   1.00
C932   C     0.00003   0.75004   0.02041   0.00000  Uiso   1.00
N933   N     0.04713   0.65976   0.46084   0.00000  Uiso   1.00
O934   O     0.02523   0.63511   0.44690   0.00000  Uiso   1.00
O935   O     0.08187   0.65269   0.46337   0.00000  Uiso   1.00
N936   N     0.44828   0.83706   0.54064   0.00000  Uiso   1.00
O937   O     0.41830   0.82888   0.55889   0.00000  Uiso   1.00
O938   O     0.45733   0.87117   0.53647   0.00000  Uiso   1.00
N939   N     0.33727   0.94860   0.45940   0.00000  Uiso   1.00
O940   O     0.32928   0.91848   0.44129   0.00000  Uiso   1.00
O941   O     0.37132   0.95790   0.46350   0.00000  Uiso   1.00
N942   N     0.15952   0.54662   0.53921   0.00000  Uiso   1.00
O943   O     0.13517   0.52450   0.55337   0.00000  Uiso   1.00
O944   O     0.15205   0.58127   0.53657   0.00000  Uiso   1.00
N945   N     0.45293   0.84027   0.46083   0.00000  Uiso   1.00
O946   O     0.47486   0.86489   0.44686   0.00000  Uiso   1.00
O947   O     0.41820   0.84739   0.46338   0.00000  Uiso   1.00
N948   N     0.05176   0.66297   0.54065   0.00000  Uiso   1.00
O949   O     0.08173   0.67117   0.55892   0.00000  Uiso   1.00
O950   O     0.04274   0.62885   0.53647   0.00000  Uiso   1.00
N951   N     0.16272   0.55140   0.45940   0.00000  Uiso   1.00
O952   O     0.17071   0.58151   0.44130   0.00000  Uiso   1.00
O953   O     0.12868   0.54209   0.46350   0.00000  Uiso   1.00
N954   N     0.34048   0.95337   0.53921   0.00000  Uiso   1.00
O955   O     0.36483   0.97549   0.55336   0.00000  Uiso   1.00
O956   O     0.34793   0.91872   0.53658   0.00000  Uiso   1.00
N957   N     0.29710   0.90974   0.96084   0.00000  Uiso   1.00
O958   O     0.27519   0.88510   0.94688   0.00000  Uiso   1.00
O959   O     0.33184   0.90266   0.96338   0.00000  Uiso   1.00
N960   N     0.19824   0.58703   0.04065   0.00000  Uiso   1.00
O961   O     0.16828   0.57883   0.05892   0.00000  Uiso   1.00
O962   O     0.20727   0.62115   0.03646   0.00000  Uiso   1.00
N963   N     0.08746   0.69888   0.95944   0.00000  Uiso   1.00
O964   O     0.07965   0.66862   0.94152   0.00000  Uiso   1.00
O965   O     0.12146   0.70841   0.96346   0.00000  Uiso   1.00
N966   N     0.40949   0.79655   0.03921   0.00000  Uiso   1.00
O967   O     0.38518   0.77439   0.05338   0.00000  Uiso   1.00
O968   O     0.40197   0.83119   0.03657   0.00000  Uiso   1.00
N969   N     0.20288   0.59024   0.96084   0.00000  Uiso   1.00
O970   O     0.22478   0.61490   0.94690   0.00000  Uiso   1.00
O971   O     0.16814   0.59731   0.96337   0.00000  Uiso   1.00
N972   N     0.30174   0.91295   0.04064   0.00000  Uiso   1.00
O973   O     0.33171   0.92115   0.05891   0.00000  Uiso   1.00
O974   O     0.29270   0.87884   0.03647   0.00000  Uiso   1.00
N975   N     0.41268   0.80133   0.95941   0.00000  Uiso   1.00
O976   O     0.42062   0.83148   0.94135   0.00000  Uiso   1.00
O977   O     0.37865   0.79196   0.96349   0.00000  Uiso   1.00
N978   N     0.09065   0.70373   0.03924   0.00000  Uiso   1.00
O979   O     0.11480   0.72599   0.05353   0.00000  Uiso   1.00
O980   O     0.09836   0.66914   0.03655   0.00000  Uiso   1.00
C981   C     0.15799   0.89673   0.17828   0.00000  Uiso   1.00
N982   N     0.17161   0.90524   0.14936   0.00000  Uiso   1.00
C983   C     0.34157   0.60358   0.82164   0.00000  Uiso   1.00
N984   N     0.32765   0.59532   0.85048   0.00000  Uiso   1.00
C985   C     0.05014   0.60509   0.26115   0.00000  Uiso   1.00
N986   N     0.01994   0.59716   0.26618   0.00000  Uiso   1.00
C987   C     0.44986   0.89491   0.73884   0.00000  Uiso   1.00
N988   N     0.48006   0.90283   0.73380   0.00000  Uiso   1.00
C989   C     0.34200   0.60327   0.17828   0.00000  Uiso   1.00
N990   N     0.32838   0.59477   0.14936   0.00000  Uiso   1.00
C991   C     0.15841   0.89644   0.82164   0.00000  Uiso   1.00
N992   N     0.17232   0.90471   0.85049   0.00000  Uiso   1.00
C993   C     0.44986   0.89490   0.26117   0.00000  Uiso   1.00
N994   N     0.48006   0.90283   0.26621   0.00000  Uiso   1.00
C995   C     0.05014   0.60510   0.73882   0.00000  Uiso   1.00
N996   N     0.01994   0.59717   0.73377   0.00000  Uiso   1.00
C997   C     0.10509   0.55014   0.73885   0.00000  Uiso   1.00
N998   N     0.09716   0.51994   0.73381   0.00000  Uiso   1.00
C999   C     0.39490   0.94985   0.26119   0.00000  Uiso   1.00
N1000  N     0.40283   0.98005   0.26625   0.00000  Uiso   1.00
C1001  C     0.10321   0.84207   0.82172   0.00000  Uiso   1.00
N1002  N     0.09467   0.82849   0.85066   0.00000  Uiso   1.00
C1003  C     0.39640   0.65845   0.17836   0.00000  Uiso   1.00
N1004  N     0.40466   0.67238   0.14952   0.00000  Uiso   1.00
C1005  C     0.39491   0.94986   0.73887   0.00000  Uiso   1.00
N1006  N     0.40284   0.98006   0.73384   0.00000  Uiso   1.00
C1007  C     0.10509   0.55014   0.26117   0.00000  Uiso   1.00
N1008  N     0.09717   0.51995   0.26622   0.00000  Uiso   1.00
C1009  C     0.39676   0.65796   0.82172   0.00000  Uiso   1.00
N1010  N     0.40528   0.67155   0.85065   0.00000  Uiso   1.00
C1011  C     0.10359   0.84155   0.17836   0.00000  Uiso   1.00
N1012  N     0.09534   0.82763   0.14952   0.00000  Uiso   1.00
C1013  C     0.40799   0.64674   0.67828   0.00000  Uiso   1.00
N1014  N     0.42160   0.65525   0.64936   0.00000  Uiso   1.00
C1015  C     0.09156   0.85359   0.32164   0.00000  Uiso   1.00
N1016  N     0.07763   0.84533   0.35048   0.00000  Uiso   1.00
C1017  C     0.30014   0.85509   0.76113   0.00000  Uiso   1.00
N1018  N     0.26994   0.84716   0.76616   0.00000  Uiso   1.00
C1019  C     0.19986   0.64490   0.23883   0.00000  Uiso   1.00
N1020  N     0.23006   0.65283   0.23378   0.00000  Uiso   1.00
C1021  C     0.09203   0.85324   0.67828   0.00000  Uiso   1.00
N1022  N     0.07843   0.84472   0.64935   0.00000  Uiso   1.00
C1023  C     0.40844   0.64641   0.32164   0.00000  Uiso   1.00
N1024  N     0.42237   0.65466   0.35048   0.00000  Uiso   1.00
C1025  C     0.19986   0.64491   0.76115   0.00000  Uiso   1.00
N1026  N     0.23006   0.65283   0.76619   0.00000  Uiso   1.00
C1027  C     0.30015   0.85510   0.23880   0.00000  Uiso   1.00
N1028  N     0.26995   0.84717   0.23374   0.00000  Uiso   1.00
C1029  C     0.35509   0.80014   0.23883   0.00000  Uiso   1.00
N1030  N     0.34717   0.76995   0.23378   0.00000  Uiso   1.00
C1031  C     0.14491   0.69985   0.76117   0.00000  Uiso   1.00
N1032  N     0.15283   0.73005   0.76623   0.00000  Uiso   1.00
C1033  C     0.35325   0.59202   0.32172   0.00000  Uiso   1.00
N1034  N     0.34474   0.57842   0.35064   0.00000  Uiso   1.00
C1035  C     0.14643   0.90842   0.67835   0.00000  Uiso   1.00
N1036  N     0.15470   0.92233   0.64951   0.00000  Uiso   1.00
C1037  C     0.14491   0.69986   0.23886   0.00000  Uiso   1.00
N1038  N     0.15284   0.73006   0.23382   0.00000  Uiso   1.00
C1039  C     0.35509   0.80014   0.76116   0.00000  Uiso   1.00
N1040  N     0.34716   0.76994   0.76620   0.00000  Uiso   1.00
C1041  C     0.14675   0.90797   0.32172   0.00000  Uiso   1.00
N1042  N     0.15526   0.92158   0.35064   0.00000  Uiso   1.00
C1043  C     0.35359   0.59156   0.67836   0.00000  Uiso   1.00
N1044  N     0.34533   0.57764   0.64951   0.00000  Uiso   1.00
N1045  N     0.45971   0.80300   0.39604   0.00000  Uiso   1.00
O1046  O     0.47561   0.82556   0.37227   0.00000  Uiso   1.00
O1047  O     0.42440   0.79944   0.39489   0.00000  Uiso   1.00
N1048  N     0.01463   0.68483   0.60323   0.00000  Uiso   1.00
O1049  O     0.03918   0.68125   0.63027   0.00000  Uiso   1.00
O1050  O     0.49218   0.65811   0.59643   0.00000  Uiso   1.00
N1051  N     0.18485   0.51463   0.39673   0.00000  Uiso   1.00
O1052  O     0.18126   0.53930   0.36981   0.00000  Uiso   1.00
O1053  O     0.15819   0.99205   0.40331   0.00000  Uiso   1.00
N1054  N     0.30296   0.95964   0.60393   0.00000  Uiso   1.00
O1055  O     0.32543   0.97542   0.62788   0.00000  Uiso   1.00
O1056  O     0.29950   0.92431   0.60476   0.00000  Uiso   1.00
N1057  N     0.04028   0.69699   0.39603   0.00000  Uiso   1.00
O1058  O     0.02436   0.67442   0.37230   0.00000  Uiso   1.00
O1059  O     0.07559   0.70057   0.39485   0.00000  Uiso   1.00
N1060  N     0.48536   0.81517   0.60324   0.00000  Uiso   1.00
O1061  O     0.46080   0.81874   0.63026   0.00000  Uiso   1.00
O1062  O     0.00783   0.84188   0.59647   0.00000  Uiso   1.00
N1063  N     0.31515   0.98537   0.39673   0.00000  Uiso   1.00
O1064  O     0.31874   0.96071   0.36981   0.00000  Uiso   1.00
O1065  O     0.34181   0.50795   0.40332   0.00000  Uiso   1.00
N1066  N     0.19704   0.54037   0.60393   0.00000  Uiso   1.00
O1067  O     0.17458   0.52458   0.62788   0.00000  Uiso   1.00
O1068  O     0.20050   0.57569   0.60476   0.00000  Uiso   1.00
N1069  N     0.20973   0.55301   0.89603   0.00000  Uiso   1.00
O1070  O     0.22564   0.57558   0.87230   0.00000  Uiso   1.00
O1071  O     0.17442   0.54944   0.89484   0.00000  Uiso   1.00
N1072  N     0.26463   0.93483   0.10324   0.00000  Uiso   1.00
O1073  O     0.28917   0.93125   0.13027   0.00000  Uiso   1.00
O1074  O     0.24217   0.90811   0.09644   0.00000  Uiso   1.00
N1075  N     0.43486   0.76463   0.89673   0.00000  Uiso   1.00
O1076  O     0.43126   0.78933   0.86984   0.00000  Uiso   1.00
O1077  O     0.40822   0.74201   0.90326   0.00000  Uiso   1.00
N1078  N     0.05295   0.70961   0.10391   0.00000  Uiso   1.00
O1079  O     0.07534   0.72532   0.12799   0.00000  Uiso   1.00
O1080  O     0.04958   0.67427   0.10452   0.00000  Uiso   1.00
N1081  N     0.29028   0.94699   0.89604   0.00000  Uiso   1.00
O1082  O     0.27437   0.92443   0.87229   0.00000  Uiso   1.00
O1083  O     0.32559   0.95056   0.89487   0.00000  Uiso   1.00
N1084  N     0.23537   0.56517   0.10323   0.00000  Uiso   1.00
O1085  O     0.21083   0.56875   0.13027   0.00000  Uiso   1.00
O1086  O     0.25782   0.59189   0.09642   0.00000  Uiso   1.00
N1087  N     0.06513   0.73531   0.89668   0.00000  Uiso   1.00
O1088  O     0.06870   0.71051   0.86991   0.00000  Uiso   1.00
O1089  O     0.09175   0.75801   0.90303   0.00000  Uiso   1.00
N1090  N     0.44703   0.79036   0.10393   0.00000  Uiso   1.00
O1091  O     0.42458   0.77456   0.12790   0.00000  Uiso   1.00
O1092  O     0.45045   0.82569   0.10473   0.00000  Uiso   1.00
Zn1093 Zn    0.70659   0.50000   0.21735   0.00000  Uiso   1.00
Zn1094 Zn    0.79340   0.50000   0.78265   0.00000  Uiso   1.00
Zn1095 Zn    0.50000   0.70660   0.21735   0.00000  Uiso   1.00
Zn1096 Zn    0.50000   0.79341   0.78265   0.00000  Uiso   1.00
Zn1097 Zn    0.79340   0.50000   0.21735   0.00000  Uiso   1.00
Zn1098 Zn    0.70659   0.50000   0.78265   0.00000  Uiso   1.00
Zn1099 Zn    0.50000   0.79340   0.21735   0.00000  Uiso   1.00
Zn1100 Zn    0.50000   0.70659   0.78265   0.00000  Uiso   1.00
Zn1101 Zn    0.95659   0.75000   0.71735   0.00000  Uiso   1.00
Zn1102 Zn    0.54340   0.75000   0.28265   0.00000  Uiso   1.00
Zn1103 Zn    0.75000   0.95659   0.71735   0.00000  Uiso   1.00
Zn1104 Zn    0.75000   0.54340   0.28265   0.00000  Uiso   1.00
Zn1105 Zn    0.54340   0.75000   0.71735   0.00000  Uiso   1.00
Zn1106 Zn    0.95659   0.75000   0.28265   0.00000  Uiso   1.00
Zn1107 Zn    0.75000   0.54340   0.71735   0.00000  Uiso   1.00
Zn1108 Zn    0.75000   0.95659   0.28265   0.00000  Uiso   1.00
C1109  C     0.98111   0.77748   0.41805   0.00000  Uiso   1.00
C1110  C     0.51089   0.71853   0.58218   0.00000  Uiso   1.00
C1111  C     0.71852   0.51086   0.41781   0.00000  Uiso   1.00
C1112  C     0.77749   0.98112   0.58195   0.00000  Uiso   1.00
C1113  C     0.51889   0.72252   0.41805   0.00000  Uiso   1.00
C1114  C     0.98912   0.78147   0.58219   0.00000  Uiso   1.00
C1115  C     0.78148   0.98914   0.41781   0.00000  Uiso   1.00
C1116  C     0.72251   0.51888   0.58195   0.00000  Uiso   1.00
C1117  C     0.73111   0.52748   0.91805   0.00000  Uiso   1.00
C1118  C     0.76088   0.96853   0.08218   0.00000  Uiso   1.00
C1119  C     0.96853   0.76086   0.91781   0.00000  Uiso   1.00
C1120  C     0.52751   0.73116   0.08195   0.00000  Uiso   1.00
C1121  C     0.76889   0.97252   0.91805   0.00000  Uiso   1.00
C1122  C     0.73912   0.53147   0.08218   0.00000  Uiso   1.00
C1123  C     0.53149   0.73916   0.91780   0.00000  Uiso   1.00
C1124  C     0.97251   0.76888   0.08195   0.00000  Uiso   1.00
C1125  C     0.50000   0.75000   0.39815   0.00000  Uiso   1.00
C1126  C     0.50000   0.75000   0.60213   0.00000  Uiso   1.00
C1127  C     0.75000   0.50000   0.39787   0.00000  Uiso   1.00
C1128  C     0.75000   0.50000   0.60185   0.00000  Uiso   1.00
C1129  C     0.75000   0.50000   0.89815   0.00000  Uiso   1.00
C1130  C     0.75000   0.50000   0.10213   0.00000  Uiso   1.00
C1131  C     0.50000   0.75000   0.89787   0.00000  Uiso   1.00
C1132  C     0.50001   0.75001   0.10185   0.00000  Uiso   1.00
O1133  O     0.75000   0.50000   0.25000   0.00000  Uiso   1.00
O1134  O     0.75000   0.50000   0.75000   0.00000  Uiso   1.00
O1135  O     0.50000   0.75000   0.25000   0.00000  Uiso   1.00
O1136  O     0.50000   0.75000   0.75000   0.00000  Uiso   1.00
O1137  O     0.75000   0.96963   0.33755   0.00000  Uiso   1.00
O1138  O     0.75000   0.53036   0.66245   0.00000  Uiso   1.00
O1139  O     0.53036   0.75000   0.33755   0.00000  Uiso   1.00
O1140  O     0.96963   0.75000   0.66245   0.00000  Uiso   1.00
O1141  O     0.75000   0.53036   0.33755   0.00000  Uiso   1.00
O1142  O     0.75000   0.96963   0.66245   0.00000  Uiso   1.00
O1143  O     0.96963   0.75000   0.33755   0.00000  Uiso   1.00
O1144  O     0.53036   0.75000   0.66245   0.00000  Uiso   1.00
O1145  O     0.50000   0.71964   0.83755   0.00000  Uiso   1.00
O1146  O     0.50000   0.78036   0.16245   0.00000  Uiso   1.00
O1147  O     0.78036   0.50000   0.83755   0.00000  Uiso   1.00
O1148  O     0.71963   0.50000   0.16245   0.00000  Uiso   1.00
O1149  O     0.50000   0.78037   0.83755   0.00000  Uiso   1.00
O1150  O     0.50000   0.71964   0.16245   0.00000  Uiso   1.00
O1151  O     0.71963   0.50000   0.83755   0.00000  Uiso   1.00
O1152  O     0.78036   0.50000   0.16245   0.00000  Uiso   1.00
O1153  O     0.70724   0.57307   0.27302   0.00000  Uiso   1.00
O1154  O     0.79275   0.92692   0.72698   0.00000  Uiso   1.00
O1155  O     0.92692   0.70724   0.27302   0.00000  Uiso   1.00
O1156  O     0.57307   0.79276   0.72698   0.00000  Uiso   1.00
O1157  O     0.79275   0.92692   0.27302   0.00000  Uiso   1.00
O1158  O     0.70724   0.57307   0.72698   0.00000  Uiso   1.00
O1159  O     0.57307   0.79276   0.27302   0.00000  Uiso   1.00
O1160  O     0.92692   0.70724   0.72698   0.00000  Uiso   1.00
O1161  O     0.70724   0.92692   0.72698   0.00000  Uiso   1.00
O1162  O     0.79275   0.57307   0.27302   0.00000  Uiso   1.00
O1163  O     0.92692   0.79275   0.72698   0.00000  Uiso   1.00
O1164  O     0.57307   0.70724   0.27302   0.00000  Uiso   1.00
O1165  O     0.79275   0.57307   0.72698   0.00000  Uiso   1.00
O1166  O     0.70724   0.92692   0.27302   0.00000  Uiso   1.00
O1167  O     0.57307   0.70724   0.72698   0.00000  Uiso   1.00
O1168  O     0.92692   0.79275   0.27302   0.00000  Uiso   1.00
O1169  O     0.95724   0.82307   0.77302   0.00000  Uiso   1.00
O1170  O     0.54275   0.67693   0.22698   0.00000  Uiso   1.00
O1171  O     0.67692   0.95724   0.77302   0.00000  Uiso   1.00
O1172  O     0.82307   0.54275   0.22698   0.00000  Uiso   1.00
O1173  O     0.54275   0.67693   0.77302   0.00000  Uiso   1.00
O1174  O     0.95724   0.82307   0.22698   0.00000  Uiso   1.00
O1175  O     0.82307   0.54275   0.77302   0.00000  Uiso   1.00
O1176  O     0.67692   0.95724   0.22698   0.00000  Uiso   1.00
O1177  O     0.95724   0.67692   0.22698   0.00000  Uiso   1.00
O1178  O     0.54275   0.82308   0.77302   0.00000  Uiso   1.00
O1179  O     0.67692   0.54275   0.22698   0.00000  Uiso   1.00
O1180  O     0.82307   0.95724   0.77302   0.00000  Uiso   1.00
O1181  O     0.54275   0.82308   0.22698   0.00000  Uiso   1.00
O1182  O     0.95724   0.67692   0.77302   0.00000  Uiso   1.00
O1183  O     0.82307   0.95724   0.22698   0.00000  Uiso   1.00
O1184  O     0.67692   0.54275   0.77302   0.00000  Uiso   1.00
C1185  C     0.53220   0.69110   0.48012   0.00000  Uiso   1.00
C1186  C     0.96824   0.80897   0.52072   0.00000  Uiso   1.00
C1187  C     0.80907   0.96841   0.47929   0.00000  Uiso   1.00
C1188  C     0.69098   0.53197   0.51990   0.00000  Uiso   1.00
C1189  C     0.96783   0.80892   0.48011   0.00000  Uiso   1.00
C1190  C     0.53179   0.69105   0.52073   0.00000  Uiso   1.00
C1191  C     0.69093   0.53158   0.47929   0.00000  Uiso   1.00
C1192  C     0.80902   0.96802   0.51990   0.00000  Uiso   1.00
C1193  C     0.78219   0.94109   0.98012   0.00000  Uiso   1.00
C1194  C     0.71822   0.55895   0.02073   0.00000  Uiso   1.00
C1195  C     0.55917   0.71857   0.97931   0.00000  Uiso   1.00
C1196  C     0.94097   0.78194   0.01991   0.00000  Uiso   1.00
C1197  C     0.71780   0.55890   0.98012   0.00000  Uiso   1.00
C1198  C     0.78178   0.94104   0.02073   0.00000  Uiso   1.00
C1199  C     0.94092   0.78155   0.97930   0.00000  Uiso   1.00
C1200  C     0.55912   0.71820   0.01992   0.00000  Uiso   1.00
C1201  C     0.75000   0.50000   0.35570   0.00000  Uiso   1.00
C1202  C     0.75000   0.50000   0.64421   0.00000  Uiso   1.00
C1203  C     0.50000   0.75000   0.35579   0.00000  Uiso   1.00
C1204  C     0.50000   0.75000   0.64430   0.00000  Uiso   1.00
C1205  C     0.50000   0.75000   0.85570   0.00000  Uiso   1.00
C1206  C     0.50000   0.75000   0.14421   0.00000  Uiso   1.00
C1207  C     0.75000   0.50000   0.85579   0.00000  Uiso   1.00
C1208  C     0.75000   0.50000   0.14430   0.00000  Uiso   1.00
C1209  C     0.68004   0.56996   0.25000   0.00000  Uiso   1.00
C1210  C     0.81996   0.93004   0.75000   0.00000  Uiso   1.00
C1211  C     0.93004   0.68004   0.25000   0.00000  Uiso   1.00
C1212  C     0.56997   0.81997   0.75000   0.00000  Uiso   1.00
C1213  C     0.81996   0.93004   0.25000   0.00000  Uiso   1.00
C1214  C     0.68004   0.56996   0.75000   0.00000  Uiso   1.00
C1215  C     0.56996   0.81996   0.25000   0.00000  Uiso   1.00
C1216  C     0.93003   0.68003   0.75000   0.00000  Uiso   1.00
C1217  C     0.68004   0.93004   0.75000   0.00000  Uiso   1.00
C1218  C     0.81997   0.56997   0.25000   0.00000  Uiso   1.00
C1219  C     0.93004   0.81996   0.75000   0.00000  Uiso   1.00
C1220  C     0.56996   0.68004   0.25000   0.00000  Uiso   1.00
C1221  C     0.81996   0.56996   0.75000   0.00000  Uiso   1.00
C1222  C     0.68003   0.93003   0.25000   0.00000  Uiso   1.00
C1223  C     0.56996   0.68004   0.75000   0.00000  Uiso   1.00
C1224  C     0.93004   0.81996   0.25000   0.00000  Uiso   1.00
C1225  C     0.64087   0.88608   0.21459   0.00000  Uiso   1.00
C1226  C     0.85902   0.61395   0.78540   0.00000  Uiso   1.00
C1227  C     0.58805   0.61508   0.25484   0.00000  Uiso   1.00
C1228  C     0.91195   0.88492   0.74516   0.00000  Uiso   1.00
C1229  C     0.85912   0.61392   0.21459   0.00000  Uiso   1.00
C1230  C     0.64097   0.88606   0.78540   0.00000  Uiso   1.00
C1231  C     0.91195   0.88492   0.25485   0.00000  Uiso   1.00
C1232  C     0.58805   0.61508   0.74515   0.00000  Uiso   1.00
C1233  C     0.61508   0.58805   0.74516   0.00000  Uiso   1.00
C1234  C     0.88492   0.91195   0.25486   0.00000  Uiso   1.00
C1235  C     0.61389   0.85915   0.78541   0.00000  Uiso   1.00
C1236  C     0.88604   0.64099   0.21460   0.00000  Uiso   1.00
C1237  C     0.88492   0.91195   0.74517   0.00000  Uiso   1.00
C1238  C     0.61508   0.58805   0.25485   0.00000  Uiso   1.00
C1239  C     0.88609   0.64086   0.78541   0.00000  Uiso   1.00
C1240  C     0.61396   0.85901   0.21460   0.00000  Uiso   1.00
C1241  C     0.89087   0.63609   0.71459   0.00000  Uiso   1.00
C1242  C     0.60901   0.86395   0.28540   0.00000  Uiso   1.00
C1243  C     0.83805   0.86508   0.75484   0.00000  Uiso   1.00
C1244  C     0.66195   0.63492   0.24516   0.00000  Uiso   1.00
C1245  C     0.60914   0.86390   0.71458   0.00000  Uiso   1.00
C1246  C     0.89099   0.63605   0.28540   0.00000  Uiso   1.00
C1247  C     0.66195   0.63492   0.75484   0.00000  Uiso   1.00
C1248  C     0.83805   0.86508   0.24514   0.00000  Uiso   1.00
C1249  C     0.86508   0.83805   0.24515   0.00000  Uiso   1.00
C1250  C     0.63492   0.66195   0.75485   0.00000  Uiso   1.00
C1251  C     0.86391   0.60913   0.28541   0.00000  Uiso   1.00
C1252  C     0.63606   0.89098   0.71459   0.00000  Uiso   1.00
C1253  C     0.63492   0.66195   0.24516   0.00000  Uiso   1.00
C1254  C     0.86508   0.83805   0.75484   0.00000  Uiso   1.00
C1255  C     0.63609   0.89087   0.28541   0.00000  Uiso   1.00
C1256  C     0.86395   0.60901   0.71460   0.00000  Uiso   1.00
C1257  C     0.51705   0.72079   0.45905   0.00000  Uiso   1.00
C1258  C     0.98550   0.78037   0.54135   0.00000  Uiso   1.00
C1259  C     0.78040   0.98556   0.45866   0.00000  Uiso   1.00
C1260  C     0.72075   0.51697   0.54095   0.00000  Uiso   1.00
C1261  C     0.98296   0.77922   0.45905   0.00000  Uiso   1.00
C1262  C     0.51451   0.71964   0.54135   0.00000  Uiso   1.00
C1263  C     0.71959   0.51443   0.45866   0.00000  Uiso   1.00
C1264  C     0.77925   0.98303   0.54095   0.00000  Uiso   1.00
C1265  C     0.76704   0.97079   0.95905   0.00000  Uiso   1.00
C1266  C     0.73550   0.53036   0.04135   0.00000  Uiso   1.00
C1267  C     0.53045   0.73563   0.95866   0.00000  Uiso   1.00
C1268  C     0.97076   0.76697   0.04095   0.00000  Uiso   1.00
C1269  C     0.73295   0.52921   0.95905   0.00000  Uiso   1.00
C1270  C     0.76450   0.96963   0.04135   0.00000  Uiso   1.00
C1271  C     0.96960   0.76443   0.95866   0.00000  Uiso   1.00
C1272  C     0.52929   0.73311   0.04095   0.00000  Uiso   1.00
C1273  C     0.59806   0.84806   0.25000   0.00000  Uiso   1.00
C1274  C     0.90192   0.65191   0.75000   0.00000  Uiso   1.00
C1275  C     0.65194   0.59806   0.25000   0.00000  Uiso   1.00
C1276  C     0.84806   0.90194   0.75000   0.00000  Uiso   1.00
C1277  C     0.90194   0.65194   0.25000   0.00000  Uiso   1.00
C1278  C     0.59808   0.84809   0.75000   0.00000  Uiso   1.00
C1279  C     0.84806   0.90194   0.25000   0.00000  Uiso   1.00
C1280  C     0.65194   0.59806   0.75000   0.00000  Uiso   1.00
C1281  C     0.59806   0.65194   0.75000   0.00000  Uiso   1.00
C1282  C     0.90194   0.84806   0.25000   0.00000  Uiso   1.00
C1283  C     0.65194   0.90194   0.75000   0.00000  Uiso   1.00
C1284  C     0.84808   0.59809   0.25000   0.00000  Uiso   1.00
C1285  C     0.90194   0.84806   0.75000   0.00000  Uiso   1.00
C1286  C     0.59806   0.65194   0.25000   0.00000  Uiso   1.00
C1287  C     0.84806   0.59806   0.75000   0.00000  Uiso   1.00
C1288  C     0.65192   0.90191   0.25000   0.00000  Uiso   1.00
C1289  C     0.50001   0.75001   0.47959   0.00000  Uiso   1.00
C1290  C     0.50001   0.75001   0.52072   0.00000  Uiso   1.00
C1291  C     0.75000   0.50000   0.47928   0.00000  Uiso   1.00
C1292  C     0.75000   0.50000   0.52041   0.00000  Uiso   1.00
C1293  C     0.75000   0.50000   0.97959   0.00000  Uiso   1.00
C1294  C     0.75000   0.50000   0.02072   0.00000  Uiso   1.00
C1295  C     0.50003   0.75004   0.97928   0.00000  Uiso   1.00
C1296  C     0.50003   0.75004   0.02041   0.00000  Uiso   1.00
N1297  N     0.54713   0.65976   0.46084   0.00000  Uiso   1.00
O1298  O     0.52523   0.63511   0.44690   0.00000  Uiso   1.00
O1299  O     0.58187   0.65269   0.46337   0.00000  Uiso   1.00
N1300  N     0.94828   0.83706   0.54064   0.00000  Uiso   1.00
O1301  O     0.91830   0.82888   0.55889   0.00000  Uiso   1.00
O1302  O     0.95733   0.87117   0.53647   0.00000  Uiso   1.00
N1303  N     0.83727   0.94860   0.45940   0.00000  Uiso   1.00
O1304  O     0.82928   0.91848   0.44129   0.00000  Uiso   1.00
O1305  O     0.87132   0.95790   0.46350   0.00000  Uiso   1.00
N1306  N     0.65952   0.54662   0.53921   0.00000  Uiso   1.00
O1307  O     0.63517   0.52450   0.55337   0.00000  Uiso   1.00
O1308  O     0.65205   0.58127   0.53657   0.00000  Uiso   1.00
N1309  N     0.95293   0.84027   0.46083   0.00000  Uiso   1.00
O1310  O     0.97486   0.86489   0.44686   0.00000  Uiso   1.00
O1311  O     0.91820   0.84739   0.46338   0.00000  Uiso   1.00
N1312  N     0.55176   0.66297   0.54065   0.00000  Uiso   1.00
O1313  O     0.58173   0.67117   0.55892   0.00000  Uiso   1.00
O1314  O     0.54274   0.62885   0.53647   0.00000  Uiso   1.00
N1315  N     0.66272   0.55140   0.45940   0.00000  Uiso   1.00
O1316  O     0.67071   0.58151   0.44130   0.00000  Uiso   1.00
O1317  O     0.62868   0.54209   0.46350   0.00000  Uiso   1.00
N1318  N     0.84048   0.95337   0.53921   0.00000  Uiso   1.00
O1319  O     0.86483   0.97549   0.55336   0.00000  Uiso   1.00
O1320  O     0.84793   0.91872   0.53658   0.00000  Uiso   1.00
N1321  N     0.79710   0.90974   0.96084   0.00000  Uiso   1.00
O1322  O     0.77519   0.88510   0.94688   0.00000  Uiso   1.00
O1323  O     0.83184   0.90266   0.96338   0.00000  Uiso   1.00
N1324  N     0.69824   0.58703   0.04065   0.00000  Uiso   1.00
O1325  O     0.66828   0.57883   0.05892   0.00000  Uiso   1.00
O1326  O     0.70727   0.62115   0.03646   0.00000  Uiso   1.00
N1327  N     0.58746   0.69888   0.95944   0.00000  Uiso   1.00
O1328  O     0.57965   0.66862   0.94152   0.00000  Uiso   1.00
O1329  O     0.62146   0.70841   0.96346   0.00000  Uiso   1.00
N1330  N     0.90949   0.79655   0.03921   0.00000  Uiso   1.00
O1331  O     0.88518   0.77439   0.05338   0.00000  Uiso   1.00
O1332  O     0.90197   0.83119   0.03657   0.00000  Uiso   1.00
N1333  N     0.70288   0.59024   0.96084   0.00000  Uiso   1.00
O1334  O     0.72478   0.61490   0.94690   0.00000  Uiso   1.00
O1335  O     0.66814   0.59731   0.96337   0.00000  Uiso   1.00
N1336  N     0.80174   0.91295   0.04064   0.00000  Uiso   1.00
O1337  O     0.83171   0.92115   0.05891   0.00000  Uiso   1.00
O1338  O     0.79270   0.87884   0.03647   0.00000  Uiso   1.00
N1339  N     0.91268   0.80133   0.95941   0.00000  Uiso   1.00
O1340  O     0.92062   0.83148   0.94135   0.00000  Uiso   1.00
O1341  O     0.87865   0.79196   0.96349   0.00000  Uiso   1.00
N1342  N     0.59065   0.70373   0.03924   0.00000  Uiso   1.00
O1343  O     0.61480   0.72599   0.05353   0.00000  Uiso   1.00
O1344  O     0.59836   0.66914   0.03655   0.00000  Uiso   1.00
C1345  C     0.65799   0.89673   0.17828   0.00000  Uiso   1.00
N1346  N     0.67161   0.90524   0.14936   0.00000  Uiso   1.00
C1347  C     0.84157   0.60358   0.82164   0.00000  Uiso   1.00
N1348  N     0.82765   0.59532   0.85048   0.00000  Uiso   1.00
C1349  C     0.55014   0.60509   0.26115   0.00000  Uiso   1.00
N1350  N     0.51994   0.59716   0.26618   0.00000  Uiso   1.00
C1351  C     0.94986   0.89491   0.73884   0.00000  Uiso   1.00
N1352  N     0.98006   0.90283   0.73380   0.00000  Uiso   1.00
C1353  C     0.84200   0.60327   0.17828   0.00000  Uiso   1.00
N1354  N     0.82838   0.59477   0.14936   0.00000  Uiso   1.00
C1355  C     0.65841   0.89644   0.82164   0.00000  Uiso   1.00
N1356  N     0.67232   0.90471   0.85049   0.00000  Uiso   1.00
C1357  C     0.94986   0.89490   0.26117   0.00000  Uiso   1.00
N1358  N     0.98006   0.90283   0.26621   0.00000  Uiso   1.00
C1359  C     0.55014   0.60510   0.73882   0.00000  Uiso   1.00
N1360  N     0.51994   0.59717   0.73377   0.00000  Uiso   1.00
C1361  C     0.60509   0.55014   0.73885   0.00000  Uiso   1.00
N1362  N     0.59716   0.51994   0.73381   0.00000  Uiso   1.00
C1363  C     0.89490   0.94985   0.26119   0.00000  Uiso   1.00
N1364  N     0.90283   0.98005   0.26625   0.00000  Uiso   1.00
C1365  C     0.60321   0.84207   0.82172   0.00000  Uiso   1.00
N1366  N     0.59467   0.82849   0.85066   0.00000  Uiso   1.00
C1367  C     0.89640   0.65845   0.17836   0.00000  Uiso   1.00
N1368  N     0.90466   0.67238   0.14952   0.00000  Uiso   1.00
C1369  C     0.89491   0.94986   0.73887   0.00000  Uiso   1.00
N1370  N     0.90284   0.98006   0.73384   0.00000  Uiso   1.00
C1371  C     0.60509   0.55014   0.26117   0.00000  Uiso   1.00
N1372  N     0.59717   0.51995   0.26622   0.00000  Uiso   1.00
C1373  C     0.89676   0.65796   0.82172   0.00000  Uiso   1.00
N1374  N     0.90528   0.67155   0.85065   0.00000  Uiso   1.00
C1375  C     0.60359   0.84155   0.17836   0.00000  Uiso   1.00
N1376  N     0.59534   0.82763   0.14952   0.00000  Uiso   1.00
C1377  C     0.90799   0.64674   0.67828   0.00000  Uiso   1.00
N1378  N     0.92160   0.65525   0.64936   0.00000  Uiso   1.00
C1379  C     0.59156   0.85359   0.32164   0.00000  Uiso   1.00
N1380  N     0.57763   0.84533   0.35048   0.00000  Uiso   1.00
C1381  C     0.80014   0.85509   0.76113   0.00000  Uiso   1.00
N1382  N     0.76994   0.84716   0.76616   0.00000  Uiso   1.00
C1383  C     0.69986   0.64490   0.23883   0.00000  Uiso   1.00
N1384  N     0.73006   0.65283   0.23378   0.00000  Uiso   1.00
C1385  C     0.59203   0.85324   0.67828   0.00000  Uiso   1.00
N1386  N     0.57843   0.84472   0.64935   0.00000  Uiso   1.00
C1387  C     0.90844   0.64641   0.32164   0.00000  Uiso   1.00
N1388  N     0.92237   0.65466   0.35048   0.00000  Uiso   1.00
C1389  C     0.69986   0.64491   0.76115   0.00000  Uiso   1.00
N1390  N     0.73006   0.65283   0.76619   0.00000  Uiso   1.00
C1391  C     0.80015   0.85510   0.23880   0.00000  Uiso   1.00
N1392  N     0.76995   0.84717   0.23374   0.00000  Uiso   1.00
C1393  C     0.85509   0.80014   0.23883   0.00000  Uiso   1.00
N1394  N     0.84717   0.76995   0.23378   0.00000  Uiso   1.00
C1395  C     0.64491   0.69985   0.76117   0.00000  Uiso   1.00
N1396  N     0.65283   0.73005   0.76623   0.00000  Uiso   1.00
C1397  C     0.85325   0.59202   0.32172   0.00000  Uiso   1.00
N1398  N     0.84474   0.57842   0.35064   0.00000  Uiso   1.00
C1399  C     0.64643   0.90842   0.67835   0.00000  Uiso   1.00
N1400  N     0.65470   0.92233   0.64951   0.00000  Uiso   1.00
C1401  C     0.64491   0.69986   0.23886   0.00000  Uiso   1.00
N1402  N     0.65284   0.73006   0.23382   0.00000  Uiso   1.00
C1403  C     0.85509   0.80014   0.76116   0.00000  Uiso   1.00
N1404  N     0.84716   0.76994   0.76620   0.00000  Uiso   1.00
C1405  C     0.64675   0.90797   0.32172   0.00000  Uiso   1.00
N1406  N     0.65526   0.92158   0.35064   0.00000  Uiso   1.00
C1407  C     0.85359   0.59156   0.67836   0.00000  Uiso   1.00
N1408  N     0.84533   0.57764   0.64951   0.00000  Uiso   1.00
N1409  N     0.95971   0.80300   0.39604   0.00000  Uiso   1.00
O1410  O     0.97561   0.82556   0.37227   0.00000  Uiso   1.00
O1411  O     0.92440   0.79944   0.39489   0.00000  Uiso   1.00
N1412  N     0.51463   0.68483   0.60323   0.00000  Uiso   1.00
O1413  O     0.53918   0.68125   0.63027   0.00000  Uiso   1.00
O1414  O     0.99218   0.65811   0.59643   0.00000  Uiso   1.00
N1415  N     0.68485   0.51463   0.39673   0.00000  Uiso   1.00
O1416  O     0.68126   0.53930   0.36981   0.00000  Uiso   1.00
O1417  O     0.65819   0.99205   0.40331   0.00000  Uiso   1.00
N1418  N     0.80296   0.95964   0.60393   0.00000  Uiso   1.00
O1419  O     0.82543   0.97542   0.62788   0.00000  Uiso   1.00
O1420  O     0.79950   0.92431   0.60476   0.00000  Uiso   1.00
N1421  N     0.54028   0.69699   0.39603   0.00000  Uiso   1.00
O1422  O     0.52436   0.67442   0.37230   0.00000  Uiso   1.00
O1423  O     0.57559   0.70057   0.39485   0.00000  Uiso   1.00
N1424  N     0.98536   0.81517   0.60324   0.00000  Uiso   1.00
O1425  O     0.96080   0.81874   0.63026   0.00000  Uiso   1.00
O1426  O     0.50783   0.84188   0.59647   0.00000  Uiso   1.00
N1427  N     0.81515   0.98537   0.39673   0.00000  Uiso   1.00
O1428  O     0.81874   0.96071   0.36981   0.00000  Uiso   1.00
O1429  O     0.84181   0.50795   0.40332   0.00000  Uiso   1.00
N1430  N     0.69704   0.54037   0.60393   0.00000  Uiso   1.00
O1431  O     0.67458   0.52458   0.62788   0.00000  Uiso   1.00
O1432  O     0.70050   0.57569   0.60476   0.00000  Uiso   1.00
N1433  N     0.70973   0.55301   0.89603   0.00000  Uiso   1.00
O1434  O     0.72564   0.57558   0.87230   0.00000  Uiso   1.00
O1435  O     0.67442   0.54944   0.89484   0.00000  Uiso   1.00
N1436  N     0.76463   0.93483   0.10324   0.00000  Uiso   1.00
O1437  O     0.78917   0.93125   0.13027   0.00000  Uiso   1.00
O1438  O     0.74217   0.90811   0.09644   0.00000  Uiso   1.00
N1439  N     0.93486   0.76463   0.89673   0.00000  Uiso   1.00
O1440  O     0.93126   0.78933   0.86984   0.00000  Uiso   1.00
O1441  O     0.90822   0.74201   0.90326   0.00000  Uiso   1.00
N1442  N     0.55295   0.70961   0.10391   0.00000  Uiso   1.00
O1443  O     0.57534   0.72532   0.12799   0.00000  Uiso   1.00
O1444  O     0.54958   0.67427   0.10452   0.00000  Uiso   1.00
N1445  N     0.79028   0.94699   0.89604   0.00000  Uiso   1.00
O1446  O     0.77437   0.92443   0.87229   0.00000  Uiso   1.00
O1447  O     0.82559   0.95056   0.89487   0.00000  Uiso   1.00
N1448  N     0.73537   0.56517   0.10323   0.00000  Uiso   1.00
O1449  O     0.71083   0.56875   0.13027   0.00000  Uiso   1.00
O1450  O     0.75782   0.59189   0.09642   0.00000  Uiso   1.00
N1451  N     0.56513   0.73531   0.89668   0.00000  Uiso   1.00
O1452  O     0.56870   0.71051   0.86991   0.00000  Uiso   1.00
O1453  O     0.59175   0.75801   0.90303   0.00000  Uiso   1.00
N1454  N     0.94703   0.79036   0.10393   0.00000  Uiso   1.00
O1455  O     0.92458   0.77456   0.12790   0.00000  Uiso   1.00
O1456  O     0.95045   0.82569   0.10473   0.00000  Uiso   1.00
loop_
_geom_bond_atom_site_label_1
_geom_bond_atom_site_label_2
_geom_bond_distance
_geom_bond_site_symmetry_2
_ccdc_geom_bond_type
Zn1    O87     1.934   .     S
Zn1    O41     1.948   .     S
Zn1    O56     1.951   .     S
Zn1    O812    1.937   1_545 S
Zn2    O55     1.951   .     S
Zn2    O42     1.948   .     S
Zn2    O816    1.934   1_545 S
Zn2    O83     1.937   .     S
Zn3    O58     1.951   .     S
Zn3    O78     1.934   .     S
Zn3    O43     1.948   .     S
Zn3    O449    1.937   1_455 S
Zn4    O86     1.937   .     S
Zn4    O57     1.951   .     S
Zn4    O44     1.948   .     S
Zn4    O441    1.934   1_455 S
Zn5    O80     1.937   .     S
Zn5    O41     1.948   .     S
Zn5    O60     1.951   .     S
Zn5    O819    1.934   1_545 S
Zn6    O42     1.948   .     S
Zn6    O59     1.951   .     S
Zn6    O807    1.937   1_545 S
Zn6    O92     1.934   .     S
Zn7    O43     1.948   .     S
Zn7    O54     1.951   .     S
Zn7    O446    1.934   1_455 S
Zn7    O89     1.937   .     S
Zn8    O454    1.937   1_455 S
Zn8    O44     1.948   .     S
Zn8    O53     1.951   .     S
Zn8    O81     1.934   .     S
Zn9    O48     1.951   .     S
Zn9    O71     1.934   .     S
Zn9    O408    1.948   .     S
Zn9    O68     1.937   .     S
Zn10   O47     1.951   .     S
Zn10   O72     1.934   .     S
Zn10   O67     1.937   .     S
Zn10   O43     1.948   .     S
Zn11   O62     1.934   .     S
Zn11   O770    1.948   .     S
Zn11   O69     1.937   .     S
Zn11   O50     1.951   .     S
Zn12   O49     1.951   .     S
Zn12   O70     1.937   .     S
Zn12   O41     1.948   .     S
Zn12   O61     1.934   .     S
Zn13   O75     1.934   .     S
Zn13   O52     1.951   .     S
Zn13   O64     1.937   .     S
Zn13   O44     1.948   .     S
Zn14   O76     1.934   .     S
Zn14   O407    1.948   .     S
Zn14   O51     1.951   .     S
Zn14   O63     1.937   .     S
Zn15   O66     1.934   .     S
Zn15   O73     1.937   .     S
Zn15   O46     1.951   .     S
Zn15   O42     1.948   .     S
Zn16   O45     1.951   .     S
Zn16   O65     1.934   .     S
Zn16   O74     1.937   .     S
Zn16   O769    1.948   .     S
C17    N317    1.436   .     S
C17    C169    1.416   .     A
C17    C397    1.400   .     S
C18    C170    1.414   .     A
C18    C34     1.400   .     A
C18    N320    1.438   .     S
C19    C171    1.414   .     A
C19    N323    1.438   .     S
C19    C35     1.400   .     S
C20    C172    1.416   .     A
C20    N326    1.436   .     S
C20    C764    1.400   .     S
C21    C33     1.400   .     A
C21    N329    1.436   .     S
C21    C165    1.416   .     A
C22    C166    1.414   .     A
C22    N332    1.438   .     S
C22    C398    1.400   .     S
C23    C167    1.414   .     A
C23    N335    1.438   .     S
C23    C763    1.400   .     A
C24    N338    1.436   .     S
C24    C36     1.400   .     A
C24    C168    1.416   .     A
C25    C177    1.416   .     A
C25    N341    1.436   .     S
C25    C37     1.400   .     S
C26    N344    1.438   .     S
C26    C766    1.400   .     A
C26    C178    1.414   .     A
C27    C179    1.414   .     A
C27    N347    1.438   .     S
C27    C403    1.399   .     S
C28    C40     1.400   .     A
C28    C180    1.416   .     A
C28    N350    1.436   .     S
C29    N353    1.436   .     S
C29    C765    1.400   .     A
C29    C173    1.416   .     A
C30    C174    1.414   .     A
C30    N356    1.438   .     S
C30    C38     1.400   .     S
C31    C175    1.414   .     A
C31    C39     1.400   .     A
C31    N359    1.438   .     S
C32    N362    1.436   .     S
C32    C176    1.416   .     A
C32    C404    1.400   .     S
C33    C111    1.459   .     S
C33    C381    1.400   1_455 S
C34    C386    1.400   1_455 S
C34    C112    1.453   .     S
C35    C109    1.453   .     S
C35    C751    1.400   1_545 A
C36    C110    1.459   .     S
C36    C748    1.400   1_545 S
C37    C115    1.459   .     S
C37    C757    1.400   1_545 A
C38    C754    1.400   1_545 A
C38    C116    1.453   .     S
C39    C391    1.399   1_455 S
C39    C113    1.453   .     S
C40    C114    1.459   .     S
C40    C396    1.400   1_455 S
O41    Zn744   1.948   1_545 S
O42    Zn739   1.948   1_545 S
O43    Zn378   1.948   1_455 S
O44    Zn373   1.948   1_455 S
O45    C837    1.276   .     A
O46    C110    1.278   .     A
O47    C111    1.278   .     A
O48    C476    1.276   .     A
O49    C109    1.276   .     S
O50    C838    1.278   .     S
O51    C475    1.278   .     S
O52    C112    1.276   .     S
O53    C113    1.276   .     S
O54    C114    1.278   .     S
O55    C115    1.278   .     A
O56    C116    1.276   .     A
O57    C113    1.276   .     S
O58    C114    1.278   .     A
O59    C115    1.278   .     A
O60    C116    1.276   .     A
O61    C117    1.279   .     A
O62    C118    1.279   .     A
O63    C119    1.279   .     A
O64    C120    1.279   .     A
O65    C121    1.279   .     A
O66    C122    1.279   .     A
O67    C123    1.279   .     A
O68    C124    1.279   .     A
O69    C125    1.279   .     A
O70    C126    1.279   .     A
O71    C127    1.279   .     A
O72    C128    1.279   .     A
O73    C129    1.279   .     A
O74    C130    1.279   .     A
O75    C131    1.279   .     A
O76    C132    1.279   .     A
O77    C127    1.279   .     A
O77    Zn368   1.934   .     S
O78    C128    1.279   .     A
O79    Zn734   1.937   .     S
O79    C125    1.279   .     A
O80    C126    1.279   .     A
O81    C131    1.279   .     A
O82    C132    1.279   .     A
O82    Zn371   1.934   .     S
O83    C129    1.279   .     A
O84    C130    1.279   .     A
O84    Zn729   1.937   .     S
O85    C119    1.279   .     A
O85    Zn367   1.937   .     S
O86    C120    1.279   .     A
O87    C117    1.279   .     A
O88    C118    1.279   .     A
O88    Zn730   1.934   .     S
O89    C123    1.279   .     A
O90    C124    1.279   .     A
O90    Zn372   1.937   .     S
O91    C121    1.279   .     A
O91    Zn733   1.934   .     S
O92    C122    1.279   .     A
C93    N205    1.434   .     S
C93    C165    1.420   .     A
C93    C98     1.399   .     A
C94    N208    1.436   .     S
C94    C97     1.399   .     A
C94    C166    1.414   .     A
C95    C167    1.415   .     A
C95    N211    1.436   .     S
C95    C100    1.399   .     A
C96    C99     1.399   .     A
C96    N214    1.434   .     S
C96    C168    1.420   .     A
C97    N217    1.434   .     S
C97    C169    1.420   .     A
C98    N220    1.436   .     S
C98    C170    1.414   .     A
C99    N223    1.436   .     S
C99    C171    1.415   .     A
C100   C172    1.420   .     A
C100   N226    1.434   .     S
C101   C173    1.420   .     A
C101   N229    1.434   .     S
C101   C106    1.399   1_556 S
C102   N232    1.436   .     S
C102   C174    1.414   .     A
C102   C105    1.399   1_554 S
C103   N235    1.436   .     S
C103   C175    1.415   .     A
C103   C108    1.399   1_556 S
C104   N238    1.434   .     S
C104   C176    1.420   .     A
C104   C107    1.399   1_554 S
C105   N241    1.434   .     S
C105   C177    1.420   .     A
C105   C102    1.399   1_556 S
C106   N244    1.436   .     S
C106   C178    1.414   .     A
C106   C101    1.399   1_554 S
C107   C179    1.415   .     A
C107   N247    1.436   .     S
C107   C104    1.399   1_556 S
C108   N250    1.434   .     S
C108   C180    1.420   .     A
C108   C103    1.399   1_554 S
C109   O773    1.276   1_545 A
C110   O778    1.278   1_545 S
C111   O415    1.278   1_455 S
C112   O412    1.276   1_455 A
C117   C183    1.455   .     S
C118   C184    1.455   .     S
C119   C185    1.457   .     S
C120   C186    1.458   .     S
C121   C187    1.455   .     S
C122   C188    1.455   .     S
C123   C181    1.457   .     S
C124   C182    1.458   .     S
C125   C191    1.457   .     S
C126   C192    1.458   .     S
C127   C193    1.455   .     S
C128   C194    1.455   .     S
C129   C195    1.457   .     S
C130   C196    1.458   .     S
C131   C189    1.455   .     S
C132   C190    1.455   .     S
C133   C253    1.453   .     S
C133   C196    1.410   .     A
C133   C148    1.400   .     A
C134   C255    1.453   .     S
C134   C147    1.400   .     A
C134   C195    1.410   .     A
C135   C146    1.399   .     A
C135   C194    1.410   .     A
C135   C257    1.453   .     S
C136   C259    1.453   .     S
C136   C145    1.399   .     A
C136   C193    1.410   .     A
C137   C192    1.410   .     A
C137   C144    1.400   .     A
C137   C261    1.453   .     S
C138   C143    1.400   .     A
C138   C191    1.410   .     A
C138   C263    1.453   .     S
C139   C142    1.399   .     A
C139   C190    1.410   .     A
C139   C265    1.453   .     S
C140   C141    1.399   .     A
C140   C267    1.453   .     S
C140   C189    1.410   .     A
C141   C269    1.453   .     S
C141   C188    1.410   .     A
C142   C187    1.410   .     A
C142   C271    1.453   .     S
C143   C186    1.410   .     A
C143   C273    1.453   .     S
C144   C185    1.410   .     A
C144   C275    1.453   .     S
C145   C184    1.410   .     A
C145   C277    1.453   .     S
C146   C183    1.410   .     A
C146   C279    1.453   .     S
C147   C182    1.410   .     A
C147   C281    1.453   .     S
C148   C181    1.410   .     A
C148   C283    1.453   .     S
C149   C182    1.410   .     A
C149   C164    1.400   .     A
C149   C285    1.453   .     S
C150   C163    1.400   .     A
C150   C181    1.410   .     A
C150   C287    1.453   .     S
C151   C184    1.410   .     A
C151   C162    1.399   .     A
C151   C289    1.453   .     S
C152   C161    1.399   .     A
C152   C183    1.410   .     A
C152   C291    1.453   .     S
C153   C160    1.400   .     A
C153   C186    1.410   .     A
C153   C293    1.453   .     S
C154   C159    1.400   .     A
C154   C295    1.453   .     S
C154   C185    1.410   .     A
C155   C158    1.399   .     A
C155   C297    1.453   .     S
C155   C188    1.410   .     A
C156   C187    1.410   .     A
C156   C299    1.453   .     S
C156   C157    1.399   .     A
C157   C190    1.410   .     A
C157   C301    1.453   .     S
C158   C303    1.453   .     S
C158   C189    1.410   .     A
C159   C192    1.410   .     A
C159   C305    1.453   .     S
C160   C191    1.410   .     A
C160   C307    1.453   .     S
C161   C309    1.453   .     S
C161   C194    1.410   .     A
C162   C193    1.410   .     A
C162   C311    1.453   .     S
C163   C196    1.410   .     A
C163   C313    1.453   .     S
C164   C195    1.410   .     A
C164   C315    1.453   .     S
C165   C197    1.426   .     A
C166   C562    1.422   .     S
C167   C927    1.422   .     A
C168   C200    1.426   .     S
C169   C561    1.426   .     S
C170   C198    1.422   .     A
C171   C199    1.422   .     S
C172   C928    1.426   .     A
C173   C929    1.426   .     A
C174   C202    1.422   .     S
C175   C203    1.423   .     A
C176   C568    1.426   .     S
C177   C201    1.426   .     S
C178   C930    1.422   .     A
C179   C567    1.422   .     S
C180   C204    1.426   .     A
C197   C198    1.417   .     A
C197   C533    1.426   1_455 S
C198   C530    1.422   1_455 S
C199   C200    1.417   .     A
C199   C895    1.422   1_545 A
C200   C900    1.426   1_545 A
C201   C901    1.426   1_545 A
C201   C202    1.417   1_556 S
C202   C906    1.422   1_545 A
C202   C201    1.417   1_554 S
C203   C543    1.422   1_455 S
C203   C204    1.417   1_556 S
C204   C540    1.426   1_455 S
C204   C203    1.417   1_554 S
N205   O207    1.301   .     A
N205   O206    1.301   .     A
N208   O209    1.301   .     A
N208   O210    1.301   .     A
N211   O212    1.301   .     A
N211   O213    1.301   .     A
N214   O216    1.301   .     A
N214   O215    1.301   .     A
N217   O218    1.301   .     A
N217   O219    1.301   .     A
N220   O221    1.301   .     A
N220   O222    1.301   .     A
N223   O224    1.301   .     A
N223   O225    1.301   .     A
N226   O227    1.301   .     A
N226   O228    1.301   .     A
N229   O230    1.301   .     A
N229   O231    1.301   .     A
N232   O234    1.301   .     A
N232   O233    1.301   .     A
N235   O236    1.301   .     A
N235   O237    1.301   .     A
N238   O240    1.301   .     A
N238   O239    1.301   .     A
N241   O243    1.301   .     A
N241   O242    1.301   .     A
N244   O245    1.301   .     A
N244   O246    1.301   .     A
N247   O249    1.301   .     A
N247   O248    1.301   .     A
N250   O252    1.301   .     A
N250   O251    1.301   .     A
C253   N254    1.157   .     T
C255   N256    1.158   .     T
C257   N258    1.157   .     T
C259   N260    1.157   .     T
C261   N262    1.157   .     T
C263   N264    1.157   .     T
C265   N266    1.157   .     T
C267   N268    1.157   .     T
C269   N270    1.157   .     T
C271   N272    1.157   .     T
C273   N274    1.157   .     T
C275   N276    1.157   .     T
C277   N278    1.157   .     T
C279   N280    1.157   .     T
C281   N282    1.157   .     T
C283   N284    1.158   .     T
C285   N286    1.157   .     T
C287   N288    1.157   .     T
C289   N290    1.157   .     T
C291   N292    1.157   .     T
C293   N294    1.157   .     T
C295   N296    1.157   .     T
C297   N298    1.157   .     T
C299   N300    1.157   .     T
C301   N302    1.157   .     T
C303   N304    1.157   .     T
C305   N306    1.157   .     T
C307   N308    1.157   .     T
C309   N310    1.157   .     T
C311   N312    1.157   .     T
C313   N314    1.157   .     T
C315   N316    1.157   .     T
N317   O319    1.301   .     A
N317   O318    1.302   .     A
N320   O321    1.301   .     A
N320   O686    1.301   1_455 S
O322   N684    1.301   .     S
N323   O324    1.301   .     A
N323   O1053   1.301   1_545 S
O325   N1051   1.301   .     S
N326   O327    1.302   .     A
N326   O328    1.301   .     A
N329   O331    1.301   .     A
N329   O330    1.302   .     A
N332   O333    1.301   .     A
N332   O698    1.301   .     S
O334   N696    1.301   1_455 S
N335   O336    1.301   .     A
N335   O1065   1.301   .     S
O337   N1063   1.301   1_545 S
N338   O340    1.301   .     A
N338   O339    1.302   .     A
N341   O343    1.301   .     A
N341   O342    1.302   .     A
N344   O345    1.301   .     A
N344   O346    1.301   .     A
N347   O348    1.301   .     A
N347   O349    1.301   .     A
N350   O351    1.302   .     A
N350   O352    1.301   .     A
N353   O354    1.302   .     A
N353   O355    1.301   .     A
N356   O358    1.301   .     A
N356   O357    1.301   .     A
N359   O360    1.301   .     A
N359   O361    1.301   .     A
N362   O364    1.301   .     A
N362   O363    1.302   .     A
Zn365  O451    1.934   .     S
Zn365  O405    1.948   .     S
Zn365  O420    1.951   .     S
Zn365  O1176   1.937   1_545 S
Zn366  O419    1.951   .     S
Zn366  O406    1.948   .     S
Zn366  O1180   1.934   1_545 S
Zn366  O447    1.937   .     S
Zn367  O422    1.951   .     S
Zn367  O442    1.934   .     S
Zn367  O407    1.948   .     S
Zn368  O450    1.937   .     S
Zn368  O421    1.951   .     S
Zn368  O408    1.948   .     S
Zn369  O444    1.937   .     S
Zn369  O405    1.948   .     S
Zn369  O424    1.951   .     S
Zn369  O1183   1.934   1_545 S
Zn370  O406    1.948   .     S
Zn370  O423    1.951   .     S
Zn370  O1171   1.937   1_545 S
Zn370  O456    1.934   .     S
Zn371  O407    1.948   .     S
Zn371  O418    1.951   .     S
Zn371  O453    1.937   .     S
Zn372  O408    1.948   .     S
Zn372  O417    1.951   .     S
Zn372  O445    1.934   .     S
Zn373  O412    1.951   .     S
Zn373  O435    1.934   .     S
Zn373  O44     1.948   1_655 S
Zn373  O432    1.937   .     S
Zn374  O411    1.951   .     S
Zn374  O436    1.934   .     S
Zn374  O431    1.937   .     S
Zn374  O407    1.948   .     S
Zn375  O426    1.934   .     S
Zn375  O1134   1.948   .     S
Zn375  O433    1.937   .     S
Zn375  O414    1.951   .     S
Zn376  O413    1.951   .     S
Zn376  O434    1.937   .     S
Zn376  O405    1.948   .     S
Zn376  O425    1.934   .     S
Zn377  O439    1.934   .     S
Zn377  O416    1.951   .     S
Zn377  O428    1.937   .     S
Zn377  O408    1.948   .     S
Zn378  O440    1.934   .     S
Zn378  O43     1.948   1_655 S
Zn378  O415    1.951   .     S
Zn378  O427    1.937   .     S
Zn379  O430    1.934   .     S
Zn379  O437    1.937   .     S
Zn379  O410    1.951   .     S
Zn379  O406    1.948   .     S
Zn380  O409    1.951   .     S
Zn380  O429    1.934   .     S
Zn380  O438    1.937   .     S
Zn380  O1133   1.948   .     S
C381   N681    1.436   .     S
C381   C533    1.416   .     A
C381   C33     1.400   1_655 S
C382   C534    1.414   .     A
C382   C398    1.400   .     A
C382   N684    1.438   .     S
C383   C535    1.414   .     A
C383   N687    1.438   .     S
C383   C399    1.400   .     S
C384   C536    1.416   .     A
C384   N690    1.436   .     S
C384   C1128   1.400   .     S
C385   C397    1.400   .     A
C385   N693    1.436   .     S
C385   C529    1.416   .     A
C386   C530    1.414   .     A
C386   N696    1.438   .     S
C386   C34     1.400   1_655 S
C387   C531    1.414   .     A
C387   N699    1.438   .     S
C387   C1127   1.400   .     A
C388   N702    1.436   .     S
C388   C400    1.400   .     A
C388   C532    1.416   .     A
C389   C541    1.416   .     A
C389   N705    1.436   .     S
C389   C401    1.400   .     S
C390   N708    1.438   .     S
C390   C1130   1.400   .     A
C390   C542    1.414   .     A
C391   C543    1.414   .     A
C391   N711    1.438   .     S
C391   C39     1.399   1_655 S
C392   C404    1.400   .     A
C392   C544    1.416   .     A
C392   N714    1.436   .     S
C393   N717    1.436   .     S
C393   C1129   1.400   .     A
C393   C537    1.416   .     A
C394   C538    1.414   .     A
C394   N720    1.438   .     S
C394   C402    1.400   .     S
C395   C539    1.414   .     A
C395   C403    1.400   .     A
C395   N723    1.438   .     S
C396   N726    1.436   .     S
C396   C540    1.416   .     A
C396   C40     1.400   1_655 S
C397   C475    1.459   .     S
C398   C476    1.453   .     S
C399   C473    1.453   .     S
C399   C1115   1.400   1_545 A
C400   C474    1.459   .     S
C400   C1112   1.400   1_545 S
C401   C479    1.459   .     S
C401   C1121   1.400   1_545 A
C402   C1118   1.400   1_545 A
C402   C480    1.453   .     S
C403   C477    1.453   .     S
C404   C478    1.459   .     S
O405   Zn1108  1.948   1_545 S
O406   Zn1103  1.948   1_545 S
O409   C1201   1.276   .     A
O410   C474    1.278   .     A
O411   C475    1.278   .     A
O412   C112    1.276   1_655 A
O413   C473    1.276   .     S
O414   C1202   1.278   .     S
O415   C111    1.278   1_655 S
O416   C476    1.276   .     S
O417   C477    1.276   .     S
O418   C478    1.278   .     S
O419   C479    1.278   .     A
O420   C480    1.276   .     A
O421   C477    1.276   .     S
O422   C478    1.278   .     A
O423   C479    1.278   .     A
O424   C480    1.276   .     A
O425   C481    1.279   .     A
O426   C482    1.279   .     A
O427   C483    1.279   .     A
O428   C484    1.279   .     A
O429   C485    1.279   .     A
O430   C486    1.279   .     A
O431   C487    1.279   .     A
O432   C488    1.279   .     A
O433   C489    1.279   .     A
O434   C490    1.279   .     A
O435   C491    1.279   .     A
O436   C492    1.279   .     A
O437   C493    1.279   .     A
O438   C494    1.279   .     A
O439   C495    1.279   .     A
O440   C496    1.279   .     A
O441   C491    1.279   .     A
O441   Zn4     1.934   1_655 S
O442   C492    1.279   .     A
O443   Zn1098  1.937   .     S
O443   C489    1.279   .     A
O444   C490    1.279   .     A
O445   C495    1.279   .     A
O446   C496    1.279   .     A
O446   Zn7     1.934   1_655 S
O447   C493    1.279   .     A
O448   C494    1.279   .     A
O448   Zn1093  1.937   .     S
O449   C483    1.279   .     A
O449   Zn3     1.937   1_655 S
O450   C484    1.279   .     A
O451   C481    1.279   .     A
O452   C482    1.279   .     A
O452   Zn1094  1.934   .     S
O453   C487    1.279   .     A
O454   C488    1.279   .     A
O454   Zn8     1.937   1_655 S
O455   C485    1.279   .     A
O455   Zn1097  1.934   .     S
O456   C486    1.279   .     A
C457   N569    1.434   .     S
C457   C529    1.420   .     A
C457   C462    1.399   .     A
C458   N572    1.436   .     S
C458   C461    1.399   .     A
C458   C530    1.414   .     A
C459   C531    1.415   .     A
C459   N575    1.436   .     S
C459   C464    1.399   .     A
C460   C463    1.399   .     A
C460   N578    1.434   .     S
C460   C532    1.420   .     A
C461   N581    1.434   .     S
C461   C533    1.420   .     A
C462   N584    1.436   .     S
C462   C534    1.414   .     A
C463   N587    1.436   .     S
C463   C535    1.415   .     A
C464   C536    1.420   .     A
C464   N590    1.434   .     S
C465   C537    1.420   .     A
C465   N593    1.434   .     S
C465   C470    1.399   1_556 S
C466   N596    1.436   .     S
C466   C538    1.414   .     A
C466   C469    1.399   1_554 S
C467   N599    1.436   .     S
C467   C539    1.415   .     A
C467   C472    1.399   1_556 S
C468   N602    1.434   .     S
C468   C540    1.420   .     A
C468   C471    1.399   1_554 S
C469   N605    1.434   .     S
C469   C541    1.420   .     A
C469   C466    1.399   1_556 S
C470   N608    1.436   .     S
C470   C542    1.414   .     A
C470   C465    1.399   1_554 S
C471   C543    1.415   .     A
C471   N611    1.436   .     S
C471   C468    1.399   1_556 S
C472   N614    1.434   .     S
C472   C544    1.420   .     A
C472   C467    1.399   1_554 S
C473   O1137   1.276   1_545 A
C474   O1142   1.278   1_545 S
C481   C547    1.455   .     S
C482   C548    1.455   .     S
C483   C549    1.457   .     S
C484   C550    1.458   .     S
C485   C551    1.455   .     S
C486   C552    1.455   .     S
C487   C545    1.457   .     S
C488   C546    1.458   .     S
C489   C555    1.457   .     S
C490   C556    1.458   .     S
C491   C557    1.455   .     S
C492   C558    1.455   .     S
C493   C559    1.457   .     S
C494   C560    1.458   .     S
C495   C553    1.455   .     S
C496   C554    1.455   .     S
C497   C617    1.453   .     S
C497   C560    1.410   .     A
C497   C512    1.400   .     A
C498   C619    1.453   .     S
C498   C511    1.400   .     A
C498   C559    1.410   .     A
C499   C510    1.399   .     A
C499   C558    1.410   .     A
C499   C621    1.453   .     S
C500   C623    1.453   .     S
C500   C509    1.399   .     A
C500   C557    1.410   .     A
C501   C556    1.410   .     A
C501   C508    1.400   .     A
C501   C625    1.453   .     S
C502   C507    1.400   .     A
C502   C555    1.410   .     A
C502   C627    1.453   .     S
C503   C506    1.399   .     A
C503   C554    1.410   .     A
C503   C629    1.453   .     S
C504   C505    1.399   .     A
C504   C631    1.453   .     S
C504   C553    1.410   .     A
C505   C633    1.453   .     S
C505   C552    1.410   .     A
C506   C551    1.410   .     A
C506   C635    1.453   .     S
C507   C550    1.410   .     A
C507   C637    1.453   .     S
C508   C549    1.410   .     A
C508   C639    1.453   .     S
C509   C548    1.410   .     A
C509   C641    1.453   .     S
C510   C547    1.410   .     A
C510   C643    1.453   .     S
C511   C546    1.410   .     A
C511   C645    1.453   .     S
C512   C545    1.410   .     A
C512   C647    1.453   .     S
C513   C546    1.410   .     A
C513   C528    1.400   .     A
C513   C649    1.453   .     S
C514   C527    1.400   .     A
C514   C545    1.410   .     A
C514   C651    1.453   .     S
C515   C548    1.410   .     A
C515   C526    1.399   .     A
C515   C653    1.453   .     S
C516   C525    1.399   .     A
C516   C547    1.410   .     A
C516   C655    1.453   .     S
C517   C524    1.400   .     A
C517   C550    1.410   .     A
C517   C657    1.453   .     S
C518   C523    1.400   .     A
C518   C659    1.453   .     S
C518   C549    1.410   .     A
C519   C522    1.399   .     A
C519   C661    1.453   .     S
C519   C552    1.410   .     A
C520   C551    1.410   .     A
C520   C663    1.453   .     S
C520   C521    1.399   .     A
C521   C554    1.410   .     A
C521   C665    1.453   .     S
C522   C667    1.453   .     S
C522   C553    1.410   .     A
C523   C556    1.410   .     A
C523   C669    1.453   .     S
C524   C555    1.410   .     A
C524   C671    1.453   .     S
C525   C673    1.453   .     S
C525   C558    1.410   .     A
C526   C557    1.410   .     A
C526   C675    1.453   .     S
C527   C560    1.410   .     A
C527   C677    1.453   .     S
C528   C559    1.410   .     A
C528   C679    1.453   .     S
C529   C561    1.426   .     A
C530   C198    1.422   1_655 S
C531   C1291   1.422   .     A
C532   C564    1.426   .     S
C533   C197    1.426   1_655 S
C534   C562    1.422   .     A
C535   C563    1.422   .     S
C536   C1292   1.426   .     A
C537   C1293   1.426   .     A
C538   C566    1.422   .     S
C539   C567    1.423   .     A
C540   C204    1.426   1_655 S
C541   C565    1.426   .     S
C542   C1294   1.422   .     A
C543   C203    1.422   1_655 S
C544   C568    1.426   .     A
C561   C562    1.417   .     A
C563   C564    1.417   .     A
C563   C1259   1.422   1_545 A
C564   C1264   1.426   1_545 A
C565   C1265   1.426   1_545 A
C565   C566    1.417   1_556 S
C566   C1270   1.422   1_545 A
C566   C565    1.417   1_554 S
C567   C568    1.417   1_556 S
C568   C567    1.417   1_554 S
N569   O571    1.301   .     A
N569   O570    1.301   .     A
N572   O573    1.301   .     A
N572   O574    1.301   .     A
N575   O576    1.301   .     A
N575   O577    1.301   .     A
N578   O580    1.301   .     A
N578   O579    1.301   .     A
N581   O582    1.301   .     A
N581   O583    1.301   .     A
N584   O585    1.301   .     A
N584   O586    1.301   .     A
N587   O588    1.301   .     A
N587   O589    1.301   .     A
N590   O591    1.301   .     A
N590   O592    1.301   .     A
N593   O594    1.301   .     A
N593   O595    1.301   .     A
N596   O598    1.301   .     A
N596   O597    1.301   .     A
N599   O600    1.301   .     A
N599   O601    1.301   .     A
N602   O604    1.301   .     A
N602   O603    1.301   .     A
N605   O607    1.301   .     A
N605   O606    1.301   .     A
N608   O609    1.301   .     A
N608   O610    1.301   .     A
N611   O613    1.301   .     A
N611   O612    1.301   .     A
N614   O616    1.301   .     A
N614   O615    1.301   .     A
C617   N618    1.157   .     T
C619   N620    1.158   .     T
C621   N622    1.157   .     T
C623   N624    1.157   .     T
C625   N626    1.157   .     T
C627   N628    1.157   .     T
C629   N630    1.157   .     T
C631   N632    1.157   .     T
C633   N634    1.157   .     T
C635   N636    1.157   .     T
C637   N638    1.157   .     T
C639   N640    1.157   .     T
C641   N642    1.157   .     T
C643   N644    1.157   .     T
C645   N646    1.157   .     T
C647   N648    1.158   .     T
C649   N650    1.157   .     T
C651   N652    1.157   .     T
C653   N654    1.157   .     T
C655   N656    1.157   .     T
C657   N658    1.157   .     T
C659   N660    1.157   .     T
C661   N662    1.157   .     T
C663   N664    1.157   .     T
C665   N666    1.157   .     T
C667   N668    1.157   .     T
C669   N670    1.157   .     T
C671   N672    1.157   .     T
C673   N674    1.157   .     T
C675   N676    1.157   .     T
C677   N678    1.157   .     T
C679   N680    1.157   .     T
N681   O683    1.301   .     A
N681   O682    1.302   .     A
N684   O685    1.301   .     A
O686   N320    1.301   1_655 S
N687   O688    1.301   .     A
N687   O1417   1.301   1_545 S
O689   N1415   1.301   .     S
N690   O691    1.302   .     A
N690   O692    1.301   .     A
N693   O695    1.301   .     A
N693   O694    1.302   .     A
N696   O697    1.301   .     A
N696   O334    1.301   1_655 S
N699   O700    1.301   .     A
N699   O1429   1.301   .     S
O701   N1427   1.301   1_545 S
N702   O704    1.301   .     A
N702   O703    1.302   .     A
N705   O707    1.301   .     A
N705   O706    1.302   .     A
N708   O709    1.301   .     A
N708   O710    1.301   .     A
N711   O712    1.301   .     A
N711   O713    1.301   .     A
N714   O715    1.302   .     A
N714   O716    1.301   .     A
N717   O718    1.302   .     A
N717   O719    1.301   .     A
N720   O722    1.301   .     A
N720   O721    1.301   .     A
N723   O724    1.301   .     A
N723   O725    1.301   .     A
N726   O728    1.301   .     A
N726   O727    1.302   .     A
Zn729  O815    1.934   .     S
Zn729  O769    1.948   .     S
Zn729  O784    1.951   .     S
Zn730  O783    1.951   .     S
Zn730  O770    1.948   .     S
Zn730  O811    1.937   .     S
Zn731  O786    1.951   .     S
Zn731  O806    1.934   .     S
Zn731  O771    1.948   .     S
Zn731  O1177   1.937   1_455 S
Zn732  O814    1.937   .     S
Zn732  O785    1.951   .     S
Zn732  O772    1.948   .     S
Zn732  O1169   1.934   1_455 S
Zn733  O808    1.937   .     S
Zn733  O769    1.948   .     S
Zn733  O788    1.951   .     S
Zn734  O770    1.948   .     S
Zn734  O787    1.951   .     S
Zn734  O820    1.934   .     S
Zn735  O771    1.948   .     S
Zn735  O782    1.951   .     S
Zn735  O1174   1.934   1_455 S
Zn735  O817    1.937   .     S
Zn736  O1182   1.937   1_455 S
Zn736  O772    1.948   .     S
Zn736  O781    1.951   .     S
Zn736  O809    1.934   .     S
Zn737  O776    1.951   .     S
Zn737  O799    1.934   .     S
Zn737  O1136   1.948   .     S
Zn737  O796    1.937   .     S
Zn738  O775    1.951   .     S
Zn738  O800    1.934   .     S
Zn738  O795    1.937   .     S
Zn738  O771    1.948   .     S
Zn739  O790    1.934   .     S
Zn739  O42     1.948   1_565 S
Zn739  O797    1.937   .     S
Zn739  O778    1.951   .     S
Zn740  O777    1.951   .     S
Zn740  O798    1.937   .     S
Zn740  O769    1.948   .     S
Zn740  O789    1.934   .     S
Zn741  O803    1.934   .     S
Zn741  O780    1.951   .     S
Zn741  O792    1.937   .     S
Zn741  O772    1.948   .     S
Zn742  O804    1.934   .     S
Zn742  O1135   1.948   .     S
Zn742  O779    1.951   .     S
Zn742  O791    1.937   .     S
Zn743  O794    1.934   .     S
Zn743  O801    1.937   .     S
Zn743  O774    1.951   .     S
Zn743  O770    1.948   .     S
Zn744  O773    1.951   .     S
Zn744  O793    1.934   .     S
Zn744  O802    1.937   .     S
Zn744  O41     1.948   1_565 S
C745   N1045   1.436   .     S
C745   C897    1.416   .     A
C745   C1125   1.400   .     S
C746   C898    1.414   .     A
C746   C762    1.400   .     A
C746   N1048   1.438   .     S
C747   C899    1.414   .     A
C747   N1051   1.438   .     S
C747   C763    1.400   .     S
C748   C900    1.416   .     A
C748   N1054   1.436   .     S
C748   C36     1.400   1_565 S
C749   C761    1.400   .     A
C749   N1057   1.436   .     S
C749   C893    1.416   .     A
C750   C894    1.414   .     A
C750   N1060   1.438   .     S
C750   C1126   1.400   .     S
C751   C895    1.414   .     A
C751   N1063   1.438   .     S
C751   C35     1.400   1_565 A
C752   N1066   1.436   .     S
C752   C764    1.400   .     A
C752   C896    1.416   .     A
C753   C905    1.416   .     A
C753   N1069   1.436   .     S
C753   C765    1.400   .     S
C754   N1072   1.438   .     S
C754   C38     1.400   1_565 A
C754   C906    1.414   .     A
C755   C907    1.414   .     A
C755   N1075   1.438   .     S
C755   C1131   1.399   .     S
C756   C768    1.400   .     A
C756   C908    1.416   .     A
C756   N1078   1.436   .     S
C757   N1081   1.436   .     S
C757   C37     1.400   1_565 A
C757   C901    1.416   .     A
C758   C902    1.414   .     A
C758   N1084   1.438   .     S
C758   C766    1.400   .     S
C759   C903    1.414   .     A
C759   C767    1.400   .     A
C759   N1087   1.438   .     S
C760   N1090   1.436   .     S
C760   C904    1.416   .     A
C760   C1132   1.400   .     S
C761   C839    1.459   .     S
C761   C1109   1.400   1_455 S
C762   C1114   1.400   1_455 S
C762   C840    1.453   .     S
C763   C837    1.453   .     S
C764   C838    1.459   .     S
C765   C843    1.459   .     S
C766   C844    1.453   .     S
C767   C1119   1.399   1_455 S
C767   C841    1.453   .     S
C768   C842    1.459   .     S
C768   C1124   1.400   1_455 S
O771   Zn1106  1.948   1_455 S
O772   Zn1101  1.948   1_455 S
O773   C109    1.276   1_565 A
O774   C838    1.278   .     A
O775   C839    1.278   .     A
O776   C1204   1.276   .     A
O777   C837    1.276   .     S
O778   C110    1.278   1_565 S
O779   C1203   1.278   .     S
O780   C840    1.276   .     S
O781   C841    1.276   .     S
O782   C842    1.278   .     S
O783   C843    1.278   .     A
O784   C844    1.276   .     A
O785   C841    1.276   .     S
O786   C842    1.278   .     A
O787   C843    1.278   .     A
O788   C844    1.276   .     A
O789   C845    1.279   .     A
O790   C846    1.279   .     A
O791   C847    1.279   .     A
O792   C848    1.279   .     A
O793   C849    1.279   .     A
O794   C850    1.279   .     A
O795   C851    1.279   .     A
O796   C852    1.279   .     A
O797   C853    1.279   .     A
O798   C854    1.279   .     A
O799   C855    1.279   .     A
O800   C856    1.279   .     A
O801   C857    1.279   .     A
O802   C858    1.279   .     A
O803   C859    1.279   .     A
O804   C860    1.279   .     A
O805   C855    1.279   .     A
O805   Zn1096  1.934   .     S
O806   C856    1.279   .     A
O807   Zn6     1.937   1_565 S
O807   C853    1.279   .     A
O808   C854    1.279   .     A
O809   C859    1.279   .     A
O810   C860    1.279   .     A
O810   Zn1099  1.934   .     S
O811   C857    1.279   .     A
O812   C858    1.279   .     A
O812   Zn1     1.937   1_565 S
O813   C847    1.279   .     A
O813   Zn1095  1.937   .     S
O814   C848    1.279   .     A
O815   C845    1.279   .     A
O816   C846    1.279   .     A
O816   Zn2     1.934   1_565 S
O817   C851    1.279   .     A
O818   C852    1.279   .     A
O818   Zn1100  1.937   .     S
O819   C849    1.279   .     A
O819   Zn5     1.934   1_565 S
O820   C850    1.279   .     A
C821   N933    1.434   .     S
C821   C893    1.420   .     A
C821   C826    1.399   .     A
C822   N936    1.436   .     S
C822   C825    1.399   .     A
C822   C894    1.414   .     A
C823   C895    1.415   .     A
C823   N939    1.436   .     S
C823   C828    1.399   .     A
C824   C827    1.399   .     A
C824   N942    1.434   .     S
C824   C896    1.420   .     A
C825   N945    1.434   .     S
C825   C897    1.420   .     A
C826   N948    1.436   .     S
C826   C898    1.414   .     A
C827   N951    1.436   .     S
C827   C899    1.415   .     A
C828   C900    1.420   .     A
C828   N954    1.434   .     S
C829   C901    1.420   .     A
C829   N957    1.434   .     S
C829   C834    1.399   1_556 S
C830   N960    1.436   .     S
C830   C902    1.414   .     A
C830   C833    1.399   1_554 S
C831   N963    1.436   .     S
C831   C903    1.415   .     A
C831   C836    1.399   1_556 S
C832   N966    1.434   .     S
C832   C904    1.420   .     A
C832   C835    1.399   1_554 S
C833   N969    1.434   .     S
C833   C905    1.420   .     A
C833   C830    1.399   1_556 S
C834   N972    1.436   .     S
C834   C906    1.414   .     A
C834   C829    1.399   1_554 S
C835   C907    1.415   .     A
C835   N975    1.436   .     S
C835   C832    1.399   1_556 S
C836   N978    1.434   .     S
C836   C908    1.420   .     A
C836   C831    1.399   1_554 S
C839   O1143   1.278   1_455 S
C840   O1140   1.276   1_455 A
C845   C911    1.455   .     S
C846   C912    1.455   .     S
C847   C913    1.457   .     S
C848   C914    1.458   .     S
C849   C915    1.455   .     S
C850   C916    1.455   .     S
C851   C909    1.457   .     S
C852   C910    1.458   .     S
C853   C919    1.457   .     S
C854   C920    1.458   .     S
C855   C921    1.455   .     S
C856   C922    1.455   .     S
C857   C923    1.457   .     S
C858   C924    1.458   .     S
C859   C917    1.455   .     S
C860   C918    1.455   .     S
C861   C981    1.453   .     S
C861   C924    1.410   .     A
C861   C876    1.400   .     A
C862   C983    1.453   .     S
C862   C875    1.400   .     A
C862   C923    1.410   .     A
C863   C874    1.399   .     A
C863   C922    1.410   .     A
C863   C985    1.453   .     S
C864   C987    1.453   .     S
C864   C873    1.399   .     A
C864   C921    1.410   .     A
C865   C920    1.410   .     A
C865   C872    1.400   .     A
C865   C989    1.453   .     S
C866   C871    1.400   .     A
C866   C919    1.410   .     A
C866   C991    1.453   .     S
C867   C870    1.399   .     A
C867   C918    1.410   .     A
C867   C993    1.453   .     S
C868   C869    1.399   .     A
C868   C995    1.453   .     S
C868   C917    1.410   .     A
C869   C997    1.453   .     S
C869   C916    1.410   .     A
C870   C915    1.410   .     A
C870   C999    1.453   .     S
C871   C914    1.410   .     A
C871   C1001   1.453   .     S
C872   C913    1.410   .     A
C872   C1003   1.453   .     S
C873   C912    1.410   .     A
C873   C1005   1.453   .     S
C874   C911    1.410   .     A
C874   C1007   1.453   .     S
C875   C910    1.410   .     A
C875   C1009   1.453   .     S
C876   C909    1.410   .     A
C876   C1011   1.453   .     S
C877   C910    1.410   .     A
C877   C892    1.400   .     A
C877   C1013   1.453   .     S
C878   C891    1.400   .     A
C878   C909    1.410   .     A
C878   C1015   1.453   .     S
C879   C912    1.410   .     A
C879   C890    1.399   .     A
C879   C1017   1.453   .     S
C880   C889    1.399   .     A
C880   C911    1.410   .     A
C880   C1019   1.453   .     S
C881   C888    1.400   .     A
C881   C914    1.410   .     A
C881   C1021   1.453   .     S
C882   C887    1.400   .     A
C882   C1023   1.453   .     S
C882   C913    1.410   .     A
C883   C886    1.399   .     A
C883   C1025   1.453   .     S
C883   C916    1.410   .     A
C884   C915    1.410   .     A
C884   C1027   1.453   .     S
C884   C885    1.399   .     A
C885   C918    1.410   .     A
C885   C1029   1.453   .     S
C886   C1031   1.453   .     S
C886   C917    1.410   .     A
C887   C920    1.410   .     A
C887   C1033   1.453   .     S
C888   C919    1.410   .     A
C888   C1035   1.453   .     S
C889   C1037   1.453   .     S
C889   C922    1.410   .     A
C890   C921    1.410   .     A
C890   C1039   1.453   .     S
C891   C924    1.410   .     A
C891   C1041   1.453   .     S
C892   C923    1.410   .     A
C892   C1043   1.453   .     S
C893   C925    1.426   .     A
C894   C1290   1.422   .     S
C895   C199    1.422   1_565 A
C896   C928    1.426   .     S
C897   C1289   1.426   .     S
C898   C926    1.422   .     A
C899   C927    1.422   .     S
C900   C200    1.426   1_565 A
C901   C201    1.426   1_565 A
C902   C930    1.422   .     S
C903   C931    1.423   .     A
C904   C1296   1.426   .     S
C905   C929    1.426   .     S
C906   C202    1.422   1_565 A
C907   C1295   1.422   .     S
C908   C932    1.426   .     A
C925   C926    1.417   .     A
C925   C1261   1.426   1_455 S
C926   C1258   1.422   1_455 S
C927   C928    1.417   .     A
C929   C930    1.417   1_556 S
C930   C929    1.417   1_554 S
C931   C1271   1.422   1_455 S
C931   C932    1.417   1_556 S
C932   C1268   1.426   1_455 S
C932   C931    1.417   1_554 S
N933   O935    1.301   .     A
N933   O934    1.301   .     A
N936   O937    1.301   .     A
N936   O938    1.301   .     A
N939   O940    1.301   .     A
N939   O941    1.301   .     A
N942   O944    1.301   .     A
N942   O943    1.301   .     A
N945   O946    1.301   .     A
N945   O947    1.301   .     A
N948   O949    1.301   .     A
N948   O950    1.301   .     A
N951   O952    1.301   .     A
N951   O953    1.301   .     A
N954   O955    1.301   .     A
N954   O956    1.301   .     A
N957   O958    1.301   .     A
N957   O959    1.301   .     A
N960   O962    1.301   .     A
N960   O961    1.301   .     A
N963   O964    1.301   .     A
N963   O965    1.301   .     A
N966   O968    1.301   .     A
N966   O967    1.301   .     A
N969   O971    1.301   .     A
N969   O970    1.301   .     A
N972   O973    1.301   .     A
N972   O974    1.301   .     A
N975   O977    1.301   .     A
N975   O976    1.301   .     A
N978   O980    1.301   .     A
N978   O979    1.301   .     A
C981   N982    1.157   .     T
C983   N984    1.158   .     T
C985   N986    1.157   .     T
C987   N988    1.157   .     T
C989   N990    1.157   .     T
C991   N992    1.157   .     T
C993   N994    1.157   .     T
C995   N996    1.157   .     T
C997   N998    1.157   .     T
C999   N1000   1.157   .     T
C1001  N1002   1.157   .     T
C1003  N1004   1.157   .     T
C1005  N1006   1.157   .     T
C1007  N1008   1.157   .     T
C1009  N1010   1.157   .     T
C1011  N1012   1.158   .     T
C1013  N1014   1.157   .     T
C1015  N1016   1.157   .     T
C1017  N1018   1.157   .     T
C1019  N1020   1.157   .     T
C1021  N1022   1.157   .     T
C1023  N1024   1.157   .     T
C1025  N1026   1.157   .     T
C1027  N1028   1.157   .     T
C1029  N1030   1.157   .     T
C1031  N1032   1.157   .     T
C1033  N1034   1.157   .     T
C1035  N1036   1.157   .     T
C1037  N1038   1.157   .     T
C1039  N1040   1.157   .     T
C1041  N1042   1.157   .     T
C1043  N1044   1.157   .     T
N1045  O1047   1.301   .     A
N1045  O1046   1.302   .     A
N1048  O1049   1.301   .     A
N1048  O1414   1.301   1_455 S
O1050  N1412   1.301   .     S
N1051  O1052   1.301   .     A
O1053  N323    1.301   1_565 S
N1054  O1055   1.302   .     A
N1054  O1056   1.301   .     A
N1057  O1059   1.301   .     A
N1057  O1058   1.302   .     A
N1060  O1061   1.301   .     A
N1060  O1426   1.301   .     S
O1062  N1424   1.301   1_455 S
N1063  O1064   1.301   .     A
N1063  O337    1.301   1_565 S
N1066  O1068   1.301   .     A
N1066  O1067   1.302   .     A
N1069  O1071   1.301   .     A
N1069  O1070   1.302   .     A
N1072  O1073   1.301   .     A
N1072  O1074   1.301   .     A
N1075  O1076   1.301   .     A
N1075  O1077   1.301   .     A
N1078  O1079   1.302   .     A
N1078  O1080   1.301   .     A
N1081  O1082   1.302   .     A
N1081  O1083   1.301   .     A
N1084  O1086   1.301   .     A
N1084  O1085   1.301   .     A
N1087  O1088   1.301   .     A
N1087  O1089   1.301   .     A
N1090  O1092   1.301   .     A
N1090  O1091   1.302   .     A
Zn1093 O1179   1.934   .     S
Zn1093 O1133   1.948   .     S
Zn1093 O1148   1.951   .     S
Zn1094 O1147   1.951   .     S
Zn1094 O1134   1.948   .     S
Zn1094 O1175   1.937   .     S
Zn1095 O1150   1.951   .     S
Zn1095 O1170   1.934   .     S
Zn1095 O1135   1.948   .     S
Zn1096 O1178   1.937   .     S
Zn1096 O1149   1.951   .     S
Zn1096 O1136   1.948   .     S
Zn1097 O1172   1.937   .     S
Zn1097 O1133   1.948   .     S
Zn1097 O1152   1.951   .     S
Zn1098 O1134   1.948   .     S
Zn1098 O1151   1.951   .     S
Zn1098 O1184   1.934   .     S
Zn1099 O1135   1.948   .     S
Zn1099 O1146   1.951   .     S
Zn1099 O1181   1.937   .     S
Zn1100 O1136   1.948   .     S
Zn1100 O1145   1.951   .     S
Zn1100 O1173   1.934   .     S
Zn1101 O1140   1.951   .     S
Zn1101 O1163   1.934   .     S
Zn1101 O772    1.948   1_655 S
Zn1101 O1160   1.937   .     S
Zn1102 O1139   1.951   .     S
Zn1102 O1164   1.934   .     S
Zn1102 O1159   1.937   .     S
Zn1102 O1135   1.948   .     S
Zn1103 O1154   1.934   .     S
Zn1103 O406    1.948   1_565 S
Zn1103 O1161   1.937   .     S
Zn1103 O1142   1.951   .     S
Zn1104 O1141   1.951   .     S
Zn1104 O1162   1.937   .     S
Zn1104 O1133   1.948   .     S
Zn1104 O1153   1.934   .     S
Zn1105 O1167   1.934   .     S
Zn1105 O1144   1.951   .     S
Zn1105 O1156   1.937   .     S
Zn1105 O1136   1.948   .     S
Zn1106 O1168   1.934   .     S
Zn1106 O771    1.948   1_655 S
Zn1106 O1143   1.951   .     S
Zn1106 O1155   1.937   .     S
Zn1107 O1158   1.934   .     S
Zn1107 O1165   1.937   .     S
Zn1107 O1138   1.951   .     S
Zn1107 O1134   1.948   .     S
Zn1108 O1137   1.951   .     S
Zn1108 O1157   1.934   .     S
Zn1108 O1166   1.937   .     S
Zn1108 O405    1.948   1_565 S
C1109  N1409   1.436   .     S
C1109  C1261   1.416   .     A
C1109  C761    1.400   1_655 S
C1110  C1262   1.414   .     A
C1110  C1126   1.400   .     A
C1110  N1412   1.438   .     S
C1111  C1263   1.414   .     A
C1111  N1415   1.438   .     S
C1111  C1127   1.400   .     S
C1112  C1264   1.416   .     A
C1112  N1418   1.436   .     S
C1112  C400    1.400   1_565 S
C1113  C1125   1.400   .     A
C1113  N1421   1.436   .     S
C1113  C1257   1.416   .     A
C1114  C1258   1.414   .     A
C1114  N1424   1.438   .     S
C1114  C762    1.400   1_655 S
C1115  C1259   1.414   .     A
C1115  N1427   1.438   .     S
C1115  C399    1.400   1_565 A
C1116  N1430   1.436   .     S
C1116  C1128   1.400   .     A
C1116  C1260   1.416   .     A
C1117  C1269   1.416   .     A
C1117  N1433   1.436   .     S
C1117  C1129   1.400   .     S
C1118  N1436   1.438   .     S
C1118  C402    1.400   1_565 A
C1118  C1270   1.414   .     A
C1119  C1271   1.414   .     A
C1119  N1439   1.438   .     S
C1119  C767    1.399   1_655 S
C1120  C1132   1.400   .     A
C1120  C1272   1.416   .     A
C1120  N1442   1.436   .     S
C1121  N1445   1.436   .     S
C1121  C401    1.400   1_565 A
C1121  C1265   1.416   .     A
C1122  C1266   1.414   .     A
C1122  N1448   1.438   .     S
C1122  C1130   1.400   .     S
C1123  C1267   1.414   .     A
C1123  C1131   1.400   .     A
C1123  N1451   1.438   .     S
C1124  N1454   1.436   .     S
C1124  C1268   1.416   .     A
C1124  C768    1.400   1_655 S
C1125  C1203   1.459   .     S
C1126  C1204   1.453   .     S
C1127  C1201   1.453   .     S
C1128  C1202   1.459   .     S
C1129  C1207   1.459   .     S
C1130  C1208   1.453   .     S
C1131  C1205   1.453   .     S
C1132  C1206   1.459   .     S
O1137  C473    1.276   1_565 A
O1138  C1202   1.278   .     A
O1139  C1203   1.278   .     A
O1140  C840    1.276   1_655 A
O1141  C1201   1.276   .     S
O1142  C474    1.278   1_565 S
O1143  C839    1.278   1_655 S
O1144  C1204   1.276   .     S
O1145  C1205   1.276   .     S
O1146  C1206   1.278   .     S
O1147  C1207   1.278   .     A
O1148  C1208   1.276   .     A
O1149  C1205   1.276   .     S
O1150  C1206   1.278   .     A
O1151  C1207   1.278   .     A
O1152  C1208   1.276   .     A
O1153  C1209   1.279   .     A
O1154  C1210   1.279   .     A
O1155  C1211   1.279   .     A
O1156  C1212   1.279   .     A
O1157  C1213   1.279   .     A
O1158  C1214   1.279   .     A
O1159  C1215   1.279   .     A
O1160  C1216   1.279   .     A
O1161  C1217   1.279   .     A
O1162  C1218   1.279   .     A
O1163  C1219   1.279   .     A
O1164  C1220   1.279   .     A
O1165  C1221   1.279   .     A
O1166  C1222   1.279   .     A
O1167  C1223   1.279   .     A
O1168  C1224   1.279   .     A
O1169  C1219   1.279   .     A
O1169  Zn732   1.934   1_655 S
O1170  C1220   1.279   .     A
O1171  Zn370   1.937   1_565 S
O1171  C1217   1.279   .     A
O1172  C1218   1.279   .     A
O1173  C1223   1.279   .     A
O1174  C1224   1.279   .     A
O1174  Zn735   1.934   1_655 S
O1175  C1221   1.279   .     A
O1176  C1222   1.279   .     A
O1176  Zn365   1.937   1_565 S
O1177  C1211   1.279   .     A
O1177  Zn731   1.937   1_655 S
O1178  C1212   1.279   .     A
O1179  C1209   1.279   .     A
O1180  C1210   1.279   .     A
O1180  Zn366   1.934   1_565 S
O1181  C1215   1.279   .     A
O1182  C1216   1.279   .     A
O1182  Zn736   1.937   1_655 S
O1183  C1213   1.279   .     A
O1183  Zn369   1.934   1_565 S
O1184  C1214   1.279   .     A
C1185  N1297   1.434   .     S
C1185  C1257   1.420   .     A
C1185  C1190   1.399   .     A
C1186  N1300   1.436   .     S
C1186  C1189   1.399   .     A
C1186  C1258   1.414   .     A
C1187  C1259   1.415   .     A
C1187  N1303   1.436   .     S
C1187  C1192   1.399   .     A
C1188  C1191   1.399   .     A
C1188  N1306   1.434   .     S
C1188  C1260   1.420   .     A
C1189  N1309   1.434   .     S
C1189  C1261   1.420   .     A
C1190  N1312   1.436   .     S
C1190  C1262   1.414   .     A
C1191  N1315   1.436   .     S
C1191  C1263   1.415   .     A
C1192  C1264   1.420   .     A
C1192  N1318   1.434   .     S
C1193  C1265   1.420   .     A
C1193  N1321   1.434   .     S
C1193  C1198   1.399   1_556 S
C1194  N1324   1.436   .     S
C1194  C1266   1.414   .     A
C1194  C1197   1.399   1_554 S
C1195  N1327   1.436   .     S
C1195  C1267   1.415   .     A
C1195  C1200   1.399   1_556 S
C1196  N1330   1.434   .     S
C1196  C1268   1.420   .     A
C1196  C1199   1.399   1_554 S
C1197  N1333   1.434   .     S
C1197  C1269   1.420   .     A
C1197  C1194   1.399   1_556 S
C1198  N1336   1.436   .     S
C1198  C1270   1.414   .     A
C1198  C1193   1.399   1_554 S
C1199  C1271   1.415   .     A
C1199  N1339   1.436   .     S
C1199  C1196   1.399   1_556 S
C1200  N1342   1.434   .     S
C1200  C1272   1.420   .     A
C1200  C1195   1.399   1_554 S
C1209  C1275   1.455   .     S
C1210  C1276   1.455   .     S
C1211  C1277   1.457   .     S
C1212  C1278   1.458   .     S
C1213  C1279   1.455   .     S
C1214  C1280   1.455   .     S
C1215  C1273   1.457   .     S
C1216  C1274   1.458   .     S
C1217  C1283   1.457   .     S
C1218  C1284   1.458   .     S
C1219  C1285   1.455   .     S
C1220  C1286   1.455   .     S
C1221  C1287   1.457   .     S
C1222  C1288   1.458   .     S
C1223  C1281   1.455   .     S
C1224  C1282   1.455   .     S
C1225  C1345   1.453   .     S
C1225  C1288   1.410   .     A
C1225  C1240   1.400   .     A
C1226  C1347   1.453   .     S
C1226  C1239   1.400   .     A
C1226  C1287   1.410   .     A
C1227  C1238   1.399   .     A
C1227  C1286   1.410   .     A
C1227  C1349   1.453   .     S
C1228  C1351   1.453   .     S
C1228  C1237   1.399   .     A
C1228  C1285   1.410   .     A
C1229  C1284   1.410   .     A
C1229  C1236   1.400   .     A
C1229  C1353   1.453   .     S
C1230  C1235   1.400   .     A
C1230  C1283   1.410   .     A
C1230  C1355   1.453   .     S
C1231  C1234   1.399   .     A
C1231  C1282   1.410   .     A
C1231  C1357   1.453   .     S
C1232  C1233   1.399   .     A
C1232  C1359   1.453   .     S
C1232  C1281   1.410   .     A
C1233  C1361   1.453   .     S
C1233  C1280   1.410   .     A
C1234  C1279   1.410   .     A
C1234  C1363   1.453   .     S
C1235  C1278   1.410   .     A
C1235  C1365   1.453   .     S
C1236  C1277   1.410   .     A
C1236  C1367   1.453   .     S
C1237  C1276   1.410   .     A
C1237  C1369   1.453   .     S
C1238  C1275   1.410   .     A
C1238  C1371   1.453   .     S
C1239  C1274   1.410   .     A
C1239  C1373   1.453   .     S
C1240  C1273   1.410   .     A
C1240  C1375   1.453   .     S
C1241  C1274   1.410   .     A
C1241  C1256   1.400   .     A
C1241  C1377   1.453   .     S
C1242  C1255   1.400   .     A
C1242  C1273   1.410   .     A
C1242  C1379   1.453   .     S
C1243  C1276   1.410   .     A
C1243  C1254   1.399   .     A
C1243  C1381   1.453   .     S
C1244  C1253   1.399   .     A
C1244  C1275   1.410   .     A
C1244  C1383   1.453   .     S
C1245  C1252   1.400   .     A
C1245  C1278   1.410   .     A
C1245  C1385   1.453   .     S
C1246  C1251   1.400   .     A
C1246  C1387   1.453   .     S
C1246  C1277   1.410   .     A
C1247  C1250   1.399   .     A
C1247  C1389   1.453   .     S
C1247  C1280   1.410   .     A
C1248  C1279   1.410   .     A
C1248  C1391   1.453   .     S
C1248  C1249   1.399   .     A
C1249  C1282   1.410   .     A
C1249  C1393   1.453   .     S
C1250  C1395   1.453   .     S
C1250  C1281   1.410   .     A
C1251  C1284   1.410   .     A
C1251  C1397   1.453   .     S
C1252  C1283   1.410   .     A
C1252  C1399   1.453   .     S
C1253  C1401   1.453   .     S
C1253  C1286   1.410   .     A
C1254  C1285   1.410   .     A
C1254  C1403   1.453   .     S
C1255  C1288   1.410   .     A
C1255  C1405   1.453   .     S
C1256  C1287   1.410   .     A
C1256  C1407   1.453   .     S
C1257  C1289   1.426   .     A
C1258  C926    1.422   1_655 S
C1259  C563    1.422   1_565 A
C1260  C1292   1.426   .     S
C1261  C925    1.426   1_655 S
C1262  C1290   1.422   .     A
C1263  C1291   1.422   .     S
C1264  C564    1.426   1_565 A
C1265  C565    1.426   1_565 A
C1266  C1294   1.422   .     S
C1267  C1295   1.423   .     A
C1268  C932    1.426   1_655 S
C1269  C1293   1.426   .     S
C1270  C566    1.422   1_565 A
C1271  C931    1.422   1_655 S
C1272  C1296   1.426   .     A
C1289  C1290   1.417   .     A
C1291  C1292   1.417   .     A
C1293  C1294   1.417   1_556 S
C1294  C1293   1.417   1_554 S
C1295  C1296   1.417   1_556 S
C1296  C1295   1.417   1_554 S
N1297  O1299   1.301   .     A
N1297  O1298   1.301   .     A
N1300  O1301   1.301   .     A
N1300  O1302   1.301   .     A
N1303  O1304   1.301   .     A
N1303  O1305   1.301   .     A
N1306  O1308   1.301   .     A
N1306  O1307   1.301   .     A
N1309  O1310   1.301   .     A
N1309  O1311   1.301   .     A
N1312  O1313   1.301   .     A
N1312  O1314   1.301   .     A
N1315  O1316   1.301   .     A
N1315  O1317   1.301   .     A
N1318  O1319   1.301   .     A
N1318  O1320   1.301   .     A
N1321  O1322   1.301   .     A
N1321  O1323   1.301   .     A
N1324  O1326   1.301   .     A
N1324  O1325   1.301   .     A
N1327  O1328   1.301   .     A
N1327  O1329   1.301   .     A
N1330  O1332   1.301   .     A
N1330  O1331   1.301   .     A
N1333  O1335   1.301   .     A
N1333  O1334   1.301   .     A
N1336  O1337   1.301   .     A
N1336  O1338   1.301   .     A
N1339  O1341   1.301   .     A
N1339  O1340   1.301   .     A
N1342  O1344   1.301   .     A
N1342  O1343   1.301   .     A
C1345  N1346   1.157   .     T
C1347  N1348   1.158   .     T
C1349  N1350   1.157   .     T
C1351  N1352   1.157   .     T
C1353  N1354   1.157   .     T
C1355  N1356   1.157   .     T
C1357  N1358   1.157   .     T
C1359  N1360   1.157   .     T
C1361  N1362   1.157   .     T
C1363  N1364   1.157   .     T
C1365  N1366   1.157   .     T
C1367  N1368   1.157   .     T
C1369  N1370   1.157   .     T
C1371  N1372   1.157   .     T
C1373  N1374   1.157   .     T
C1375  N1376   1.158   .     T
C1377  N1378   1.157   .     T
C1379  N1380   1.157   .     T
C1381  N1382   1.157   .     T
C1383  N1384   1.157   .     T
C1385  N1386   1.157   .     T
C1387  N1388   1.157   .     T
C1389  N1390   1.157   .     T
C1391  N1392   1.157   .     T
C1393  N1394   1.157   .     T
C1395  N1396   1.157   .     T
C1397  N1398   1.157   .     T
C1399  N1400   1.157   .     T
C1401  N1402   1.157   .     T
C1403  N1404   1.157   .     T
C1405  N1406   1.157   .     T
C1407  N1408   1.157   .     T
N1409  O1411   1.301   .     A
N1409  O1410   1.302   .     A
N1412  O1413   1.301   .     A
O1414  N1048   1.301   1_655 S
N1415  O1416   1.301   .     A
O1417  N687    1.301   1_565 S
N1418  O1419   1.302   .     A
N1418  O1420   1.301   .     A
N1421  O1423   1.301   .     A
N1421  O1422   1.302   .     A
N1424  O1425   1.301   .     A
N1424  O1062   1.301   1_655 S
N1427  O1428   1.301   .     A
N1427  O701    1.301   1_565 S
N1430  O1432   1.301   .     A
N1430  O1431   1.302   .     A
N1433  O1435   1.301   .     A
N1433  O1434   1.302   .     A
N1436  O1437   1.301   .     A
N1436  O1438   1.301   .     A
N1439  O1440   1.301   .     A
N1439  O1441   1.301   .     A
N1442  O1443   1.302   .     A
N1442  O1444   1.301   .     A
N1445  O1446   1.302   .     A
N1445  O1447   1.301   .     A
N1448  O1450   1.301   .     A
N1448  O1449   1.301   .     A
N1451  O1452   1.301   .     A
N1451  O1453   1.301   .     A
N1454  O1456   1.301   .     A
N1454  O1455   1.302   .     A
