data_str_m1_o10_o18_pcu_sym.95
_audit_creation_date              2020-01-03
_audit_creation_method            'Materials Studio'
_symmetry_space_group_name_H-M    'P1'
_symmetry_Int_Tables_number       1
_symmetry_cell_setting            triclinic
loop_
_symmetry_equiv_pos_as_xyz
  x,y,z
_cell_length_a                    32.6221
_cell_length_b                    32.4924
_cell_length_c                    35.7115
_cell_angle_alpha                 98.4478
_cell_angle_beta                  72.9993
_cell_angle_gamma                 98.3259
loop_
_atom_site_label
_atom_site_type_symbol
_atom_site_fract_x
_atom_site_fract_y
_atom_site_fract_z
_atom_site_U_iso_or_equiv
_atom_site_adp_type
_atom_site_occupancy
Zn1    Zn    0.19244   0.14090   0.28277   0.00000  Uiso   1.00
Zn2    Zn    0.13459   0.12378   0.22257   0.00000  Uiso   1.00
Zn3    Zn    0.21166   0.19664   0.21188   0.00000  Uiso   1.00
Zn4    Zn    0.12798   0.20535   0.28277   0.00000  Uiso   1.00
O5     O     0.16667   0.16667   0.25000   0.00000  Uiso   1.00
O6     O     0.06990   0.18960   0.27820   0.00000  Uiso   1.00
O7     O     0.25440   0.15277   0.26767   0.00000  Uiso   1.00
O8     O     0.13800   0.06903   0.23607   0.00000  Uiso   1.00
O9     O     0.20437   0.25527   0.21805   0.00000  Uiso   1.00
O10    O     0.15693   0.12393   0.16625   0.00000  Uiso   1.00
O11    O     0.12687   0.20646   0.33749   0.00000  Uiso   1.00
O12    O     0.21088   0.17493   0.15877   0.00000  Uiso   1.00
O13    O     0.17198   0.16135   0.33749   0.00000  Uiso   1.00
O14    O     0.17849   0.08101   0.27820   0.00000  Uiso   1.00
O15    O     0.14581   0.26136   0.26767   0.00000  Uiso   1.00
O16    O     0.07452   0.13251   0.23607   0.00000  Uiso   1.00
O17    O     0.26785   0.19179   0.21805   0.00000  Uiso   1.00
C18    C     0.05253   0.16018   0.25908   0.00000  Uiso   1.00
C19    C     0.28096   0.17271   0.24084   0.00000  Uiso   1.00
C20    C     0.15527   0.05635   0.25912   0.00000  Uiso   1.00
C21    C     0.17725   0.27785   0.24216   0.00000  Uiso   1.00
C22    C     0.18803   0.14537   0.14401   0.00000  Uiso   1.00
C23    C     0.14572   0.18800   0.35614   0.00000  Uiso   1.00
C24    C     0.13380   0.19351   0.39941   0.00000  Uiso   1.00
C25    C     0.19665   0.13638   0.10143   0.00000  Uiso   1.00
C26    C     0.08141   0.21053   0.46136   0.00000  Uiso   1.00
C27    C     0.09522   0.20977   0.42066   0.00000  Uiso   1.00
C28    C     0.15944   0.17945   0.41956   0.00000  Uiso   1.00
C29    C     0.14191   0.17309   0.45988   0.00000  Uiso   1.00
C30    C     0.10418   0.19207   0.48103   0.00000  Uiso   1.00
C31    C     0.16131   0.15018   0.48017   0.00000  Uiso   1.00
C32    C     0.14921   0.15568   0.02224   0.00000  Uiso   1.00
C33    C     0.11034   0.17395   0.04242   0.00000  Uiso   1.00
C34    C     0.08872   0.19174   0.02156   0.00000  Uiso   1.00
C35    C     0.18997   0.11962   0.46038   0.00000  Uiso   1.00
C36    C     0.21343   0.10342   0.48064   0.00000  Uiso   1.00
C37    C     0.20730   0.11442   0.02084   0.00000  Uiso   1.00
C38    C     0.17576   0.14136   0.04211   0.00000  Uiso   1.00
C39    C     0.23191   0.09786   0.04022   0.00000  Uiso   1.00
C40    C     0.22586   0.10808   0.08057   0.00000  Uiso   1.00
C41    C     0.17344   0.15433   0.08208   0.00000  Uiso   1.00
H42    H     0.05879   0.20478   0.03727   0.00000  Uiso   1.00
H43    H     0.15446   0.17891   0.09875   0.00000  Uiso   1.00
H44    H     0.24400   0.09410   0.09549   0.00000  Uiso   1.00
H45    H     0.23623   0.08141   0.46465   0.00000  Uiso   1.00
H46    H     0.05195   0.22420   0.47735   0.00000  Uiso   1.00
H47    H     0.07556   0.22171   0.40582   0.00000  Uiso   1.00
H48    H     0.25536   0.07649   0.02425   0.00000  Uiso   1.00
C49    C     0.32687   0.17034   0.23466   0.00000  Uiso   1.00
C50    C     0.00685   0.15984   0.26421   0.00000  Uiso   1.00
C51    C     0.18308   0.32316   0.24229   0.00000  Uiso   1.00
C52    C     0.14933   0.01184   0.26110   0.00000  Uiso   1.00
N53    N     0.02250   0.17582   0.19620   0.00000  Uiso   1.00
O54    O     0.00945   0.16213   0.16506   0.00000  Uiso   1.00
O55    O     0.05950   0.19854   0.19222   0.00000  Uiso   1.00
O56    O     0.31269   0.16200   0.30247   0.00000  Uiso   1.00
C57    C     0.31472   0.12790   0.32228   0.00000  Uiso   1.00
H58    H     0.30818   0.13918   0.35417   0.00000  Uiso   1.00
H59    H     0.01353   0.11588   0.31345   0.00000  Uiso   1.00
C60    C     0.27990   0.09229   0.31697   0.00000  Uiso   1.00
H61    H     0.24769   0.10409   0.32811   0.00000  Uiso   1.00
H62    H     0.28542   0.08097   0.28515   0.00000  Uiso   1.00
C63    C     0.28029   0.05580   0.33927   0.00000  Uiso   1.00
H64    H     0.31173   0.04260   0.32779   0.00000  Uiso   1.00
H65    H     0.25429   0.03084   0.33532   0.00000  Uiso   1.00
H66    H     0.27473   0.06633   0.37122   0.00000  Uiso   1.00
N67    N     0.22516   0.00979   0.22345   0.00000  Uiso   1.00
O68    O     0.25960   0.32941   0.22621   0.00000  Uiso   1.00
O69    O     0.22939   0.03780   0.19962   0.00000  Uiso   1.00
O70    O     0.10779   0.32404   0.27312   0.00000  Uiso   1.00
C71    C     0.07822   0.01408   0.30286   0.00000  Uiso   1.00
H72    H     0.04564   0.33016   0.30578   0.00000  Uiso   1.00
H73    H     0.07612   0.04532   0.29479   0.00000  Uiso   1.00
C74    C     0.08785   0.01755   0.34280   0.00000  Uiso   1.00
H75    H     0.08702   0.31896   0.35088   0.00000  Uiso   1.00
H76    H     0.12048   0.03422   0.34081   0.00000  Uiso   1.00
C77    C     0.05494   0.04136   0.37497   0.00000  Uiso   1.00
H78    H     0.05551   0.07353   0.36759   0.00000  Uiso   1.00
H79    H     0.06292   0.04362   0.40342   0.00000  Uiso   1.00
H80    H     0.02202   0.02475   0.37836   0.00000  Uiso   1.00
O81    O     0.20210   0.17420   0.39990   0.00000  Uiso   1.00
C82    C     0.22936   0.20979   0.40942   0.00000  Uiso   1.00
H83    H     0.25980   0.19869   0.40999   0.00000  Uiso   1.00
H84    H     0.21607   0.22673   0.43918   0.00000  Uiso   1.00
C85    C     0.23998   0.23981   0.37773   0.00000  Uiso   1.00
H86    H     0.25359   0.22265   0.34835   0.00000  Uiso   1.00
H87    H     0.21008   0.25211   0.37738   0.00000  Uiso   1.00
C88    C     0.27238   0.27666   0.38529   0.00000  Uiso   1.00
H89    H     0.25898   0.29484   0.41415   0.00000  Uiso   1.00
H90    H     0.27940   0.29765   0.36178   0.00000  Uiso   1.00
H91    H     0.30300   0.26539   0.38513   0.00000  Uiso   1.00
N92    N     0.08853   0.16971   0.08298   0.00000  Uiso   1.00
O93    O     0.08042   0.13297   0.09558   0.00000  Uiso   1.00
O94    O     0.07121   0.20137   0.10575   0.00000  Uiso   1.00
O95    O     0.19438   0.10337   0.42152   0.00000  Uiso   1.00
C96    C     0.16090   0.07097   0.41907   0.00000  Uiso   1.00
H97    H     0.15754   0.06822   0.38873   0.00000  Uiso   1.00
H98    H     0.12898   0.07823   0.43939   0.00000  Uiso   1.00
C99    C     0.17223   0.02898   0.42613   0.00000  Uiso   1.00
H100   H     0.20610   0.02461   0.40933   0.00000  Uiso   1.00
H101   H     0.16907   0.02900   0.45796   0.00000  Uiso   1.00
C102   C     0.14268   0.32545   0.41353   0.00000  Uiso   1.00
H103   H     0.10835   0.32985   0.42845   0.00000  Uiso   1.00
H104   H     0.14990   0.29615   0.42169   0.00000  Uiso   1.00
H105   H     0.14818   0.32222   0.38111   0.00000  Uiso   1.00
Zn106  Zn    0.52577   0.14090   0.28277   0.00000  Uiso   1.00
Zn107  Zn    0.46792   0.12378   0.22257   0.00000  Uiso   1.00
Zn108  Zn    0.54500   0.19664   0.21188   0.00000  Uiso   1.00
Zn109  Zn    0.46131   0.20535   0.28277   0.00000  Uiso   1.00
O110   O     0.50000   0.16667   0.25000   0.00000  Uiso   1.00
O111   O     0.40323   0.18960   0.27820   0.00000  Uiso   1.00
O112   O     0.58773   0.15277   0.26767   0.00000  Uiso   1.00
O113   O     0.47133   0.06903   0.23607   0.00000  Uiso   1.00
O114   O     0.53771   0.25527   0.21805   0.00000  Uiso   1.00
O115   O     0.49027   0.12393   0.16625   0.00000  Uiso   1.00
O116   O     0.46020   0.20646   0.33749   0.00000  Uiso   1.00
O117   O     0.54421   0.17493   0.15877   0.00000  Uiso   1.00
O118   O     0.50532   0.16135   0.33749   0.00000  Uiso   1.00
O119   O     0.51182   0.08101   0.27820   0.00000  Uiso   1.00
O120   O     0.47914   0.26136   0.26767   0.00000  Uiso   1.00
O121   O     0.40785   0.13251   0.23607   0.00000  Uiso   1.00
O122   O     0.60119   0.19179   0.21805   0.00000  Uiso   1.00
C123   C     0.38586   0.16018   0.25908   0.00000  Uiso   1.00
C124   C     0.61429   0.17271   0.24084   0.00000  Uiso   1.00
C125   C     0.48860   0.05635   0.25912   0.00000  Uiso   1.00
C126   C     0.51058   0.27785   0.24216   0.00000  Uiso   1.00
C127   C     0.52137   0.14537   0.14401   0.00000  Uiso   1.00
C128   C     0.47905   0.18800   0.35614   0.00000  Uiso   1.00
C129   C     0.46713   0.19351   0.39941   0.00000  Uiso   1.00
C130   C     0.52998   0.13638   0.10143   0.00000  Uiso   1.00
C131   C     0.41474   0.21053   0.46136   0.00000  Uiso   1.00
C132   C     0.42855   0.20977   0.42066   0.00000  Uiso   1.00
C133   C     0.49277   0.17945   0.41956   0.00000  Uiso   1.00
C134   C     0.47524   0.17309   0.45988   0.00000  Uiso   1.00
C135   C     0.43752   0.19207   0.48103   0.00000  Uiso   1.00
C136   C     0.49465   0.15018   0.48017   0.00000  Uiso   1.00
C137   C     0.48255   0.15568   0.02224   0.00000  Uiso   1.00
C138   C     0.44367   0.17395   0.04242   0.00000  Uiso   1.00
C139   C     0.42206   0.19174   0.02156   0.00000  Uiso   1.00
C140   C     0.52331   0.11962   0.46038   0.00000  Uiso   1.00
C141   C     0.54676   0.10342   0.48064   0.00000  Uiso   1.00
C142   C     0.54064   0.11442   0.02084   0.00000  Uiso   1.00
C143   C     0.50909   0.14136   0.04211   0.00000  Uiso   1.00
C144   C     0.56524   0.09786   0.04022   0.00000  Uiso   1.00
C145   C     0.55919   0.10808   0.08057   0.00000  Uiso   1.00
C146   C     0.50677   0.15433   0.08208   0.00000  Uiso   1.00
H147   H     0.39212   0.20478   0.03727   0.00000  Uiso   1.00
H148   H     0.48780   0.17891   0.09875   0.00000  Uiso   1.00
H149   H     0.57733   0.09410   0.09549   0.00000  Uiso   1.00
H150   H     0.56956   0.08141   0.46465   0.00000  Uiso   1.00
H151   H     0.38528   0.22420   0.47735   0.00000  Uiso   1.00
H152   H     0.40890   0.22171   0.40582   0.00000  Uiso   1.00
H153   H     0.58869   0.07649   0.02425   0.00000  Uiso   1.00
C154   C     0.66020   0.17034   0.23466   0.00000  Uiso   1.00
C155   C     0.34018   0.15984   0.26421   0.00000  Uiso   1.00
C156   C     0.51641   0.32316   0.24229   0.00000  Uiso   1.00
C157   C     0.48266   0.01184   0.26110   0.00000  Uiso   1.00
N158   N     0.35584   0.17582   0.19620   0.00000  Uiso   1.00
O159   O     0.34279   0.16213   0.16506   0.00000  Uiso   1.00
O160   O     0.39283   0.19854   0.19222   0.00000  Uiso   1.00
O161   O     0.64602   0.16200   0.30247   0.00000  Uiso   1.00
C162   C     0.64806   0.12790   0.32228   0.00000  Uiso   1.00
H163   H     0.64151   0.13918   0.35417   0.00000  Uiso   1.00
H164   H     0.34687   0.11588   0.31345   0.00000  Uiso   1.00
C165   C     0.61323   0.09229   0.31697   0.00000  Uiso   1.00
H166   H     0.58102   0.10409   0.32811   0.00000  Uiso   1.00
H167   H     0.61876   0.08097   0.28515   0.00000  Uiso   1.00
C168   C     0.61362   0.05580   0.33927   0.00000  Uiso   1.00
H169   H     0.64507   0.04260   0.32779   0.00000  Uiso   1.00
H170   H     0.58762   0.03084   0.33532   0.00000  Uiso   1.00
H171   H     0.60806   0.06633   0.37122   0.00000  Uiso   1.00
N172   N     0.55849   0.00979   0.22345   0.00000  Uiso   1.00
O173   O     0.59294   0.32941   0.22621   0.00000  Uiso   1.00
O174   O     0.56273   0.03780   0.19962   0.00000  Uiso   1.00
O175   O     0.44113   0.32404   0.27312   0.00000  Uiso   1.00
C176   C     0.41155   0.01408   0.30286   0.00000  Uiso   1.00
H177   H     0.37897   0.33016   0.30578   0.00000  Uiso   1.00
H178   H     0.40945   0.04532   0.29479   0.00000  Uiso   1.00
C179   C     0.42118   0.01755   0.34280   0.00000  Uiso   1.00
H180   H     0.42036   0.31896   0.35088   0.00000  Uiso   1.00
H181   H     0.45381   0.03422   0.34081   0.00000  Uiso   1.00
C182   C     0.38827   0.04136   0.37497   0.00000  Uiso   1.00
H183   H     0.38884   0.07353   0.36759   0.00000  Uiso   1.00
H184   H     0.39625   0.04362   0.40342   0.00000  Uiso   1.00
H185   H     0.35535   0.02475   0.37836   0.00000  Uiso   1.00
O186   O     0.53544   0.17420   0.39990   0.00000  Uiso   1.00
C187   C     0.56269   0.20979   0.40942   0.00000  Uiso   1.00
H188   H     0.59314   0.19869   0.40999   0.00000  Uiso   1.00
H189   H     0.54940   0.22673   0.43918   0.00000  Uiso   1.00
C190   C     0.57331   0.23981   0.37773   0.00000  Uiso   1.00
H191   H     0.58692   0.22265   0.34835   0.00000  Uiso   1.00
H192   H     0.54341   0.25211   0.37738   0.00000  Uiso   1.00
C193   C     0.60571   0.27666   0.38529   0.00000  Uiso   1.00
H194   H     0.59231   0.29484   0.41415   0.00000  Uiso   1.00
H195   H     0.61273   0.29765   0.36178   0.00000  Uiso   1.00
H196   H     0.63633   0.26539   0.38513   0.00000  Uiso   1.00
N197   N     0.42187   0.16971   0.08298   0.00000  Uiso   1.00
O198   O     0.41375   0.13297   0.09558   0.00000  Uiso   1.00
O199   O     0.40454   0.20137   0.10575   0.00000  Uiso   1.00
O200   O     0.52771   0.10337   0.42152   0.00000  Uiso   1.00
C201   C     0.49423   0.07097   0.41907   0.00000  Uiso   1.00
H202   H     0.49087   0.06822   0.38873   0.00000  Uiso   1.00
H203   H     0.46231   0.07823   0.43939   0.00000  Uiso   1.00
C204   C     0.50556   0.02898   0.42613   0.00000  Uiso   1.00
H205   H     0.53944   0.02461   0.40933   0.00000  Uiso   1.00
H206   H     0.50240   0.02900   0.45796   0.00000  Uiso   1.00
C207   C     0.47601   0.32545   0.41353   0.00000  Uiso   1.00
H208   H     0.44168   0.32985   0.42845   0.00000  Uiso   1.00
H209   H     0.48323   0.29615   0.42169   0.00000  Uiso   1.00
H210   H     0.48152   0.32222   0.38111   0.00000  Uiso   1.00
Zn211  Zn    0.85910   0.14090   0.28277   0.00000  Uiso   1.00
Zn212  Zn    0.80125   0.12378   0.22257   0.00000  Uiso   1.00
Zn213  Zn    0.87833   0.19664   0.21188   0.00000  Uiso   1.00
Zn214  Zn    0.79465   0.20535   0.28277   0.00000  Uiso   1.00
O215   O     0.83333   0.16667   0.25000   0.00000  Uiso   1.00
O216   O     0.73656   0.18960   0.27820   0.00000  Uiso   1.00
O217   O     0.92106   0.15277   0.26767   0.00000  Uiso   1.00
O218   O     0.80467   0.06903   0.23607   0.00000  Uiso   1.00
O219   O     0.87104   0.25527   0.21805   0.00000  Uiso   1.00
O220   O     0.82360   0.12393   0.16625   0.00000  Uiso   1.00
O221   O     0.79354   0.20646   0.33749   0.00000  Uiso   1.00
O222   O     0.87755   0.17493   0.15877   0.00000  Uiso   1.00
O223   O     0.83865   0.16135   0.33749   0.00000  Uiso   1.00
O224   O     0.84515   0.08101   0.27820   0.00000  Uiso   1.00
O225   O     0.81247   0.26136   0.26767   0.00000  Uiso   1.00
O226   O     0.74119   0.13251   0.23607   0.00000  Uiso   1.00
O227   O     0.93452   0.19179   0.21805   0.00000  Uiso   1.00
C228   C     0.71920   0.16018   0.25908   0.00000  Uiso   1.00
C229   C     0.94762   0.17271   0.24084   0.00000  Uiso   1.00
C230   C     0.82193   0.05635   0.25912   0.00000  Uiso   1.00
C231   C     0.84392   0.27785   0.24216   0.00000  Uiso   1.00
C232   C     0.85470   0.14537   0.14401   0.00000  Uiso   1.00
C233   C     0.81239   0.18800   0.35614   0.00000  Uiso   1.00
C234   C     0.80047   0.19351   0.39941   0.00000  Uiso   1.00
C235   C     0.86331   0.13638   0.10143   0.00000  Uiso   1.00
C236   C     0.74807   0.21053   0.46136   0.00000  Uiso   1.00
C237   C     0.76188   0.20977   0.42066   0.00000  Uiso   1.00
C238   C     0.82610   0.17945   0.41956   0.00000  Uiso   1.00
C239   C     0.80857   0.17309   0.45988   0.00000  Uiso   1.00
C240   C     0.77085   0.19207   0.48103   0.00000  Uiso   1.00
C241   C     0.82798   0.15018   0.48017   0.00000  Uiso   1.00
C242   C     0.81588   0.15568   0.02224   0.00000  Uiso   1.00
C243   C     0.77700   0.17395   0.04242   0.00000  Uiso   1.00
C244   C     0.75539   0.19174   0.02156   0.00000  Uiso   1.00
C245   C     0.85664   0.11962   0.46038   0.00000  Uiso   1.00
C246   C     0.88009   0.10342   0.48064   0.00000  Uiso   1.00
C247   C     0.87397   0.11442   0.02084   0.00000  Uiso   1.00
C248   C     0.84243   0.14136   0.04211   0.00000  Uiso   1.00
C249   C     0.89858   0.09786   0.04022   0.00000  Uiso   1.00
C250   C     0.89252   0.10808   0.08057   0.00000  Uiso   1.00
C251   C     0.84010   0.15433   0.08208   0.00000  Uiso   1.00
H252   H     0.72546   0.20478   0.03727   0.00000  Uiso   1.00
H253   H     0.82113   0.17891   0.09875   0.00000  Uiso   1.00
H254   H     0.91067   0.09410   0.09549   0.00000  Uiso   1.00
H255   H     0.90289   0.08141   0.46465   0.00000  Uiso   1.00
H256   H     0.71861   0.22420   0.47735   0.00000  Uiso   1.00
H257   H     0.74223   0.22171   0.40582   0.00000  Uiso   1.00
H258   H     0.92203   0.07649   0.02425   0.00000  Uiso   1.00
C259   C     0.99354   0.17034   0.23466   0.00000  Uiso   1.00
C260   C     0.67351   0.15984   0.26421   0.00000  Uiso   1.00
C261   C     0.84974   0.32316   0.24229   0.00000  Uiso   1.00
C262   C     0.81600   0.01184   0.26110   0.00000  Uiso   1.00
N263   N     0.68917   0.17582   0.19620   0.00000  Uiso   1.00
O264   O     0.67612   0.16213   0.16506   0.00000  Uiso   1.00
O265   O     0.72617   0.19854   0.19222   0.00000  Uiso   1.00
O266   O     0.97935   0.16200   0.30247   0.00000  Uiso   1.00
C267   C     0.98139   0.12790   0.32228   0.00000  Uiso   1.00
H268   H     0.97485   0.13918   0.35417   0.00000  Uiso   1.00
H269   H     0.68020   0.11588   0.31345   0.00000  Uiso   1.00
C270   C     0.94657   0.09229   0.31697   0.00000  Uiso   1.00
H271   H     0.91435   0.10409   0.32811   0.00000  Uiso   1.00
H272   H     0.95209   0.08097   0.28515   0.00000  Uiso   1.00
C273   C     0.94696   0.05580   0.33927   0.00000  Uiso   1.00
H274   H     0.97840   0.04260   0.32779   0.00000  Uiso   1.00
H275   H     0.92096   0.03084   0.33532   0.00000  Uiso   1.00
H276   H     0.94139   0.06633   0.37122   0.00000  Uiso   1.00
N277   N     0.89183   0.00979   0.22345   0.00000  Uiso   1.00
O278   O     0.92627   0.32941   0.22621   0.00000  Uiso   1.00
O279   O     0.89606   0.03780   0.19962   0.00000  Uiso   1.00
O280   O     0.77446   0.32404   0.27312   0.00000  Uiso   1.00
C281   C     0.74488   0.01408   0.30286   0.00000  Uiso   1.00
H282   H     0.71231   0.33016   0.30578   0.00000  Uiso   1.00
H283   H     0.74278   0.04532   0.29479   0.00000  Uiso   1.00
C284   C     0.75451   0.01755   0.34280   0.00000  Uiso   1.00
H285   H     0.75369   0.31896   0.35088   0.00000  Uiso   1.00
H286   H     0.78714   0.03422   0.34081   0.00000  Uiso   1.00
C287   C     0.72160   0.04136   0.37497   0.00000  Uiso   1.00
H288   H     0.72217   0.07353   0.36759   0.00000  Uiso   1.00
H289   H     0.72959   0.04362   0.40342   0.00000  Uiso   1.00
H290   H     0.68868   0.02475   0.37836   0.00000  Uiso   1.00
O291   O     0.86877   0.17420   0.39990   0.00000  Uiso   1.00
C292   C     0.89602   0.20979   0.40942   0.00000  Uiso   1.00
H293   H     0.92647   0.19869   0.40999   0.00000  Uiso   1.00
H294   H     0.88273   0.22673   0.43918   0.00000  Uiso   1.00
C295   C     0.90665   0.23981   0.37773   0.00000  Uiso   1.00
H296   H     0.92026   0.22265   0.34835   0.00000  Uiso   1.00
H297   H     0.87675   0.25211   0.37738   0.00000  Uiso   1.00
C298   C     0.93904   0.27666   0.38529   0.00000  Uiso   1.00
H299   H     0.92564   0.29484   0.41415   0.00000  Uiso   1.00
H300   H     0.94607   0.29765   0.36178   0.00000  Uiso   1.00
H301   H     0.96966   0.26539   0.38513   0.00000  Uiso   1.00
N302   N     0.75520   0.16971   0.08298   0.00000  Uiso   1.00
O303   O     0.74708   0.13297   0.09558   0.00000  Uiso   1.00
O304   O     0.73787   0.20137   0.10575   0.00000  Uiso   1.00
O305   O     0.86105   0.10337   0.42152   0.00000  Uiso   1.00
C306   C     0.82756   0.07097   0.41907   0.00000  Uiso   1.00
H307   H     0.82420   0.06822   0.38873   0.00000  Uiso   1.00
H308   H     0.79565   0.07823   0.43939   0.00000  Uiso   1.00
C309   C     0.83889   0.02898   0.42613   0.00000  Uiso   1.00
H310   H     0.87277   0.02461   0.40933   0.00000  Uiso   1.00
H311   H     0.83574   0.02900   0.45796   0.00000  Uiso   1.00
C312   C     0.80935   0.32545   0.41353   0.00000  Uiso   1.00
H313   H     0.77502   0.32985   0.42845   0.00000  Uiso   1.00
H314   H     0.81657   0.29615   0.42169   0.00000  Uiso   1.00
H315   H     0.81485   0.32222   0.38111   0.00000  Uiso   1.00
Zn316  Zn    0.19244   0.47423   0.28277   0.00000  Uiso   1.00
Zn317  Zn    0.13459   0.45711   0.22257   0.00000  Uiso   1.00
Zn318  Zn    0.21166   0.52997   0.21188   0.00000  Uiso   1.00
Zn319  Zn    0.12798   0.53868   0.28277   0.00000  Uiso   1.00
O320   O     0.16667   0.50000   0.25000   0.00000  Uiso   1.00
O321   O     0.06990   0.52293   0.27820   0.00000  Uiso   1.00
O322   O     0.25440   0.48610   0.26767   0.00000  Uiso   1.00
O323   O     0.13800   0.40236   0.23607   0.00000  Uiso   1.00
O324   O     0.20437   0.58860   0.21805   0.00000  Uiso   1.00
O325   O     0.15693   0.45726   0.16625   0.00000  Uiso   1.00
O326   O     0.12687   0.53979   0.33749   0.00000  Uiso   1.00
O327   O     0.21088   0.50826   0.15877   0.00000  Uiso   1.00
O328   O     0.17198   0.49468   0.33749   0.00000  Uiso   1.00
O329   O     0.17849   0.41434   0.27820   0.00000  Uiso   1.00
O330   O     0.14581   0.59469   0.26767   0.00000  Uiso   1.00
O331   O     0.07452   0.46584   0.23607   0.00000  Uiso   1.00
O332   O     0.26785   0.52512   0.21805   0.00000  Uiso   1.00
C333   C     0.05253   0.49351   0.25908   0.00000  Uiso   1.00
C334   C     0.28096   0.50604   0.24084   0.00000  Uiso   1.00
C335   C     0.15527   0.38969   0.25912   0.00000  Uiso   1.00
C336   C     0.17725   0.61118   0.24216   0.00000  Uiso   1.00
C337   C     0.18803   0.47871   0.14401   0.00000  Uiso   1.00
C338   C     0.14572   0.52134   0.35614   0.00000  Uiso   1.00
C339   C     0.13380   0.52684   0.39941   0.00000  Uiso   1.00
C340   C     0.19665   0.46971   0.10143   0.00000  Uiso   1.00
C341   C     0.08141   0.54386   0.46136   0.00000  Uiso   1.00
C342   C     0.09522   0.54311   0.42066   0.00000  Uiso   1.00
C343   C     0.15944   0.51278   0.41956   0.00000  Uiso   1.00
C344   C     0.14191   0.50642   0.45988   0.00000  Uiso   1.00
C345   C     0.10418   0.52540   0.48103   0.00000  Uiso   1.00
C346   C     0.16131   0.48351   0.48017   0.00000  Uiso   1.00
C347   C     0.14921   0.48902   0.02224   0.00000  Uiso   1.00
C348   C     0.11034   0.50728   0.04242   0.00000  Uiso   1.00
C349   C     0.08872   0.52508   0.02156   0.00000  Uiso   1.00
C350   C     0.18997   0.45295   0.46038   0.00000  Uiso   1.00
C351   C     0.21343   0.43675   0.48064   0.00000  Uiso   1.00
C352   C     0.20730   0.44775   0.02084   0.00000  Uiso   1.00
C353   C     0.17576   0.47470   0.04211   0.00000  Uiso   1.00
C354   C     0.23191   0.43119   0.04022   0.00000  Uiso   1.00
C355   C     0.22586   0.44141   0.08057   0.00000  Uiso   1.00
C356   C     0.17344   0.48767   0.08208   0.00000  Uiso   1.00
H357   H     0.05879   0.53811   0.03727   0.00000  Uiso   1.00
H358   H     0.15446   0.51225   0.09875   0.00000  Uiso   1.00
H359   H     0.24400   0.42743   0.09549   0.00000  Uiso   1.00
H360   H     0.23623   0.41474   0.46465   0.00000  Uiso   1.00
H361   H     0.05195   0.55753   0.47735   0.00000  Uiso   1.00
H362   H     0.07556   0.55504   0.40582   0.00000  Uiso   1.00
H363   H     0.25536   0.40983   0.02425   0.00000  Uiso   1.00
C364   C     0.32687   0.50367   0.23466   0.00000  Uiso   1.00
C365   C     0.00685   0.49318   0.26421   0.00000  Uiso   1.00
C366   C     0.18308   0.65650   0.24229   0.00000  Uiso   1.00
C367   C     0.14933   0.34517   0.26110   0.00000  Uiso   1.00
N368   N     0.02250   0.50916   0.19620   0.00000  Uiso   1.00
O369   O     0.00945   0.49546   0.16506   0.00000  Uiso   1.00
O370   O     0.05950   0.53187   0.19222   0.00000  Uiso   1.00
O371   O     0.31269   0.49533   0.30247   0.00000  Uiso   1.00
C372   C     0.31472   0.46124   0.32228   0.00000  Uiso   1.00
H373   H     0.30818   0.47252   0.35417   0.00000  Uiso   1.00
H374   H     0.01353   0.44921   0.31345   0.00000  Uiso   1.00
C375   C     0.27990   0.42563   0.31697   0.00000  Uiso   1.00
H376   H     0.24769   0.43742   0.32811   0.00000  Uiso   1.00
H377   H     0.28542   0.41431   0.28515   0.00000  Uiso   1.00
C378   C     0.28029   0.38913   0.33927   0.00000  Uiso   1.00
H379   H     0.31173   0.37593   0.32779   0.00000  Uiso   1.00
H380   H     0.25429   0.36417   0.33532   0.00000  Uiso   1.00
H381   H     0.27473   0.39966   0.37122   0.00000  Uiso   1.00
N382   N     0.22516   0.34312   0.22345   0.00000  Uiso   1.00
O383   O     0.25960   0.66274   0.22621   0.00000  Uiso   1.00
O384   O     0.22939   0.37113   0.19962   0.00000  Uiso   1.00
O385   O     0.10779   0.65737   0.27312   0.00000  Uiso   1.00
C386   C     0.07822   0.34742   0.30286   0.00000  Uiso   1.00
H387   H     0.04564   0.66349   0.30578   0.00000  Uiso   1.00
H388   H     0.07612   0.37865   0.29479   0.00000  Uiso   1.00
C389   C     0.08785   0.35089   0.34280   0.00000  Uiso   1.00
H390   H     0.08702   0.65230   0.35088   0.00000  Uiso   1.00
H391   H     0.12048   0.36755   0.34081   0.00000  Uiso   1.00
C392   C     0.05494   0.37469   0.37497   0.00000  Uiso   1.00
H393   H     0.05551   0.40686   0.36759   0.00000  Uiso   1.00
H394   H     0.06292   0.37695   0.40342   0.00000  Uiso   1.00
H395   H     0.02202   0.35808   0.37836   0.00000  Uiso   1.00
O396   O     0.20210   0.50754   0.39990   0.00000  Uiso   1.00
C397   C     0.22936   0.54312   0.40942   0.00000  Uiso   1.00
H398   H     0.25980   0.53203   0.40999   0.00000  Uiso   1.00
H399   H     0.21607   0.56006   0.43918   0.00000  Uiso   1.00
C400   C     0.23998   0.57314   0.37773   0.00000  Uiso   1.00
H401   H     0.25359   0.55598   0.34835   0.00000  Uiso   1.00
H402   H     0.21008   0.58544   0.37738   0.00000  Uiso   1.00
C403   C     0.27238   0.61000   0.38529   0.00000  Uiso   1.00
H404   H     0.25898   0.62818   0.41415   0.00000  Uiso   1.00
H405   H     0.27940   0.63098   0.36178   0.00000  Uiso   1.00
H406   H     0.30300   0.59872   0.38513   0.00000  Uiso   1.00
N407   N     0.08853   0.50304   0.08298   0.00000  Uiso   1.00
O408   O     0.08042   0.46631   0.09558   0.00000  Uiso   1.00
O409   O     0.07121   0.53470   0.10575   0.00000  Uiso   1.00
O410   O     0.19438   0.43670   0.42152   0.00000  Uiso   1.00
C411   C     0.16090   0.40431   0.41907   0.00000  Uiso   1.00
H412   H     0.15754   0.40155   0.38873   0.00000  Uiso   1.00
H413   H     0.12898   0.41156   0.43939   0.00000  Uiso   1.00
C414   C     0.17223   0.36232   0.42613   0.00000  Uiso   1.00
H415   H     0.20610   0.35794   0.40933   0.00000  Uiso   1.00
H416   H     0.16907   0.36233   0.45796   0.00000  Uiso   1.00
C417   C     0.14268   0.65878   0.41353   0.00000  Uiso   1.00
H418   H     0.10835   0.66319   0.42845   0.00000  Uiso   1.00
H419   H     0.14990   0.62949   0.42169   0.00000  Uiso   1.00
H420   H     0.14818   0.65555   0.38111   0.00000  Uiso   1.00
Zn421  Zn    0.52577   0.47423   0.28277   0.00000  Uiso   1.00
Zn422  Zn    0.46792   0.45711   0.22257   0.00000  Uiso   1.00
Zn423  Zn    0.54500   0.52997   0.21188   0.00000  Uiso   1.00
Zn424  Zn    0.46131   0.53868   0.28277   0.00000  Uiso   1.00
O425   O     0.50000   0.50000   0.25000   0.00000  Uiso   1.00
O426   O     0.40323   0.52293   0.27820   0.00000  Uiso   1.00
O427   O     0.58773   0.48610   0.26767   0.00000  Uiso   1.00
O428   O     0.47133   0.40236   0.23607   0.00000  Uiso   1.00
O429   O     0.53771   0.58860   0.21805   0.00000  Uiso   1.00
O430   O     0.49027   0.45726   0.16625   0.00000  Uiso   1.00
O431   O     0.46020   0.53979   0.33749   0.00000  Uiso   1.00
O432   O     0.54421   0.50826   0.15877   0.00000  Uiso   1.00
O433   O     0.50532   0.49468   0.33749   0.00000  Uiso   1.00
O434   O     0.51182   0.41434   0.27820   0.00000  Uiso   1.00
O435   O     0.47914   0.59469   0.26767   0.00000  Uiso   1.00
O436   O     0.40785   0.46584   0.23607   0.00000  Uiso   1.00
O437   O     0.60119   0.52512   0.21805   0.00000  Uiso   1.00
C438   C     0.38586   0.49351   0.25908   0.00000  Uiso   1.00
C439   C     0.61429   0.50604   0.24084   0.00000  Uiso   1.00
C440   C     0.48860   0.38969   0.25912   0.00000  Uiso   1.00
C441   C     0.51058   0.61118   0.24216   0.00000  Uiso   1.00
C442   C     0.52137   0.47871   0.14401   0.00000  Uiso   1.00
C443   C     0.47905   0.52134   0.35614   0.00000  Uiso   1.00
C444   C     0.46713   0.52684   0.39941   0.00000  Uiso   1.00
C445   C     0.52998   0.46971   0.10143   0.00000  Uiso   1.00
C446   C     0.41474   0.54386   0.46136   0.00000  Uiso   1.00
C447   C     0.42855   0.54311   0.42066   0.00000  Uiso   1.00
C448   C     0.49277   0.51278   0.41956   0.00000  Uiso   1.00
C449   C     0.47524   0.50642   0.45988   0.00000  Uiso   1.00
C450   C     0.43752   0.52540   0.48103   0.00000  Uiso   1.00
C451   C     0.49465   0.48351   0.48017   0.00000  Uiso   1.00
C452   C     0.48255   0.48902   0.02224   0.00000  Uiso   1.00
C453   C     0.44367   0.50728   0.04242   0.00000  Uiso   1.00
C454   C     0.42206   0.52508   0.02156   0.00000  Uiso   1.00
C455   C     0.52331   0.45295   0.46038   0.00000  Uiso   1.00
C456   C     0.54676   0.43675   0.48064   0.00000  Uiso   1.00
C457   C     0.54064   0.44775   0.02084   0.00000  Uiso   1.00
C458   C     0.50909   0.47470   0.04211   0.00000  Uiso   1.00
C459   C     0.56524   0.43119   0.04022   0.00000  Uiso   1.00
C460   C     0.55919   0.44141   0.08057   0.00000  Uiso   1.00
C461   C     0.50677   0.48767   0.08208   0.00000  Uiso   1.00
H462   H     0.39212   0.53811   0.03727   0.00000  Uiso   1.00
H463   H     0.48780   0.51225   0.09875   0.00000  Uiso   1.00
H464   H     0.57733   0.42743   0.09549   0.00000  Uiso   1.00
H465   H     0.56956   0.41474   0.46465   0.00000  Uiso   1.00
H466   H     0.38528   0.55753   0.47735   0.00000  Uiso   1.00
H467   H     0.40890   0.55504   0.40582   0.00000  Uiso   1.00
H468   H     0.58869   0.40983   0.02425   0.00000  Uiso   1.00
C469   C     0.66020   0.50367   0.23466   0.00000  Uiso   1.00
C470   C     0.34018   0.49318   0.26421   0.00000  Uiso   1.00
C471   C     0.51641   0.65650   0.24229   0.00000  Uiso   1.00
C472   C     0.48266   0.34517   0.26110   0.00000  Uiso   1.00
N473   N     0.35584   0.50916   0.19620   0.00000  Uiso   1.00
O474   O     0.34279   0.49546   0.16506   0.00000  Uiso   1.00
O475   O     0.39283   0.53187   0.19222   0.00000  Uiso   1.00
O476   O     0.64602   0.49533   0.30247   0.00000  Uiso   1.00
C477   C     0.64806   0.46124   0.32228   0.00000  Uiso   1.00
H478   H     0.64151   0.47252   0.35417   0.00000  Uiso   1.00
H479   H     0.34687   0.44921   0.31345   0.00000  Uiso   1.00
C480   C     0.61323   0.42563   0.31697   0.00000  Uiso   1.00
H481   H     0.58102   0.43742   0.32811   0.00000  Uiso   1.00
H482   H     0.61876   0.41431   0.28515   0.00000  Uiso   1.00
C483   C     0.61362   0.38913   0.33927   0.00000  Uiso   1.00
H484   H     0.64507   0.37593   0.32779   0.00000  Uiso   1.00
H485   H     0.58762   0.36417   0.33532   0.00000  Uiso   1.00
H486   H     0.60806   0.39966   0.37122   0.00000  Uiso   1.00
N487   N     0.55849   0.34312   0.22345   0.00000  Uiso   1.00
O488   O     0.59294   0.66274   0.22621   0.00000  Uiso   1.00
O489   O     0.56273   0.37113   0.19962   0.00000  Uiso   1.00
O490   O     0.44113   0.65737   0.27312   0.00000  Uiso   1.00
C491   C     0.41155   0.34742   0.30286   0.00000  Uiso   1.00
H492   H     0.37897   0.66349   0.30578   0.00000  Uiso   1.00
H493   H     0.40945   0.37865   0.29479   0.00000  Uiso   1.00
C494   C     0.42118   0.35089   0.34280   0.00000  Uiso   1.00
H495   H     0.42036   0.65230   0.35088   0.00000  Uiso   1.00
H496   H     0.45381   0.36755   0.34081   0.00000  Uiso   1.00
C497   C     0.38827   0.37469   0.37497   0.00000  Uiso   1.00
H498   H     0.38884   0.40686   0.36759   0.00000  Uiso   1.00
H499   H     0.39625   0.37695   0.40342   0.00000  Uiso   1.00
H500   H     0.35535   0.35808   0.37836   0.00000  Uiso   1.00
O501   O     0.53544   0.50754   0.39990   0.00000  Uiso   1.00
C502   C     0.56269   0.54312   0.40942   0.00000  Uiso   1.00
H503   H     0.59314   0.53203   0.40999   0.00000  Uiso   1.00
H504   H     0.54940   0.56006   0.43918   0.00000  Uiso   1.00
C505   C     0.57331   0.57314   0.37773   0.00000  Uiso   1.00
H506   H     0.58692   0.55598   0.34835   0.00000  Uiso   1.00
H507   H     0.54341   0.58544   0.37738   0.00000  Uiso   1.00
C508   C     0.60571   0.61000   0.38529   0.00000  Uiso   1.00
H509   H     0.59231   0.62818   0.41415   0.00000  Uiso   1.00
H510   H     0.61273   0.63098   0.36178   0.00000  Uiso   1.00
H511   H     0.63633   0.59872   0.38513   0.00000  Uiso   1.00
N512   N     0.42187   0.50304   0.08298   0.00000  Uiso   1.00
O513   O     0.41375   0.46631   0.09558   0.00000  Uiso   1.00
O514   O     0.40454   0.53470   0.10575   0.00000  Uiso   1.00
O515   O     0.52771   0.43670   0.42152   0.00000  Uiso   1.00
C516   C     0.49423   0.40431   0.41907   0.00000  Uiso   1.00
H517   H     0.49087   0.40155   0.38873   0.00000  Uiso   1.00
H518   H     0.46231   0.41156   0.43939   0.00000  Uiso   1.00
C519   C     0.50556   0.36232   0.42613   0.00000  Uiso   1.00
H520   H     0.53944   0.35794   0.40933   0.00000  Uiso   1.00
H521   H     0.50240   0.36233   0.45796   0.00000  Uiso   1.00
C522   C     0.47601   0.65878   0.41353   0.00000  Uiso   1.00
H523   H     0.44168   0.66319   0.42845   0.00000  Uiso   1.00
H524   H     0.48323   0.62949   0.42169   0.00000  Uiso   1.00
H525   H     0.48152   0.65555   0.38111   0.00000  Uiso   1.00
Zn526  Zn    0.85910   0.47423   0.28277   0.00000  Uiso   1.00
Zn527  Zn    0.80125   0.45711   0.22257   0.00000  Uiso   1.00
Zn528  Zn    0.87833   0.52997   0.21188   0.00000  Uiso   1.00
Zn529  Zn    0.79465   0.53868   0.28277   0.00000  Uiso   1.00
O530   O     0.83333   0.50000   0.25000   0.00000  Uiso   1.00
O531   O     0.73656   0.52293   0.27820   0.00000  Uiso   1.00
O532   O     0.92106   0.48610   0.26767   0.00000  Uiso   1.00
O533   O     0.80467   0.40236   0.23607   0.00000  Uiso   1.00
O534   O     0.87104   0.58860   0.21805   0.00000  Uiso   1.00
O535   O     0.82360   0.45726   0.16625   0.00000  Uiso   1.00
O536   O     0.79354   0.53979   0.33749   0.00000  Uiso   1.00
O537   O     0.87755   0.50826   0.15877   0.00000  Uiso   1.00
O538   O     0.83865   0.49468   0.33749   0.00000  Uiso   1.00
O539   O     0.84515   0.41434   0.27820   0.00000  Uiso   1.00
O540   O     0.81247   0.59469   0.26767   0.00000  Uiso   1.00
O541   O     0.74119   0.46584   0.23607   0.00000  Uiso   1.00
O542   O     0.93452   0.52512   0.21805   0.00000  Uiso   1.00
C543   C     0.71920   0.49351   0.25908   0.00000  Uiso   1.00
C544   C     0.94762   0.50604   0.24084   0.00000  Uiso   1.00
C545   C     0.82193   0.38969   0.25912   0.00000  Uiso   1.00
C546   C     0.84392   0.61118   0.24216   0.00000  Uiso   1.00
C547   C     0.85470   0.47871   0.14401   0.00000  Uiso   1.00
C548   C     0.81239   0.52134   0.35614   0.00000  Uiso   1.00
C549   C     0.80047   0.52684   0.39941   0.00000  Uiso   1.00
C550   C     0.86331   0.46971   0.10143   0.00000  Uiso   1.00
C551   C     0.74807   0.54386   0.46136   0.00000  Uiso   1.00
C552   C     0.76188   0.54311   0.42066   0.00000  Uiso   1.00
C553   C     0.82610   0.51278   0.41956   0.00000  Uiso   1.00
C554   C     0.80857   0.50642   0.45988   0.00000  Uiso   1.00
C555   C     0.77085   0.52540   0.48103   0.00000  Uiso   1.00
C556   C     0.82798   0.48351   0.48017   0.00000  Uiso   1.00
C557   C     0.81588   0.48902   0.02224   0.00000  Uiso   1.00
C558   C     0.77700   0.50728   0.04242   0.00000  Uiso   1.00
C559   C     0.75539   0.52508   0.02156   0.00000  Uiso   1.00
C560   C     0.85664   0.45295   0.46038   0.00000  Uiso   1.00
C561   C     0.88009   0.43675   0.48064   0.00000  Uiso   1.00
C562   C     0.87397   0.44775   0.02084   0.00000  Uiso   1.00
C563   C     0.84243   0.47470   0.04211   0.00000  Uiso   1.00
C564   C     0.89858   0.43119   0.04022   0.00000  Uiso   1.00
C565   C     0.89252   0.44141   0.08057   0.00000  Uiso   1.00
C566   C     0.84010   0.48767   0.08208   0.00000  Uiso   1.00
H567   H     0.72546   0.53811   0.03727   0.00000  Uiso   1.00
H568   H     0.82113   0.51225   0.09875   0.00000  Uiso   1.00
H569   H     0.91067   0.42743   0.09549   0.00000  Uiso   1.00
H570   H     0.90289   0.41474   0.46465   0.00000  Uiso   1.00
H571   H     0.71861   0.55753   0.47735   0.00000  Uiso   1.00
H572   H     0.74223   0.55504   0.40582   0.00000  Uiso   1.00
H573   H     0.92203   0.40983   0.02425   0.00000  Uiso   1.00
C574   C     0.99354   0.50367   0.23466   0.00000  Uiso   1.00
C575   C     0.67351   0.49318   0.26421   0.00000  Uiso   1.00
C576   C     0.84974   0.65650   0.24229   0.00000  Uiso   1.00
C577   C     0.81600   0.34517   0.26110   0.00000  Uiso   1.00
N578   N     0.68917   0.50916   0.19620   0.00000  Uiso   1.00
O579   O     0.67612   0.49546   0.16506   0.00000  Uiso   1.00
O580   O     0.72617   0.53187   0.19222   0.00000  Uiso   1.00
O581   O     0.97935   0.49533   0.30247   0.00000  Uiso   1.00
C582   C     0.98139   0.46124   0.32228   0.00000  Uiso   1.00
H583   H     0.97485   0.47252   0.35417   0.00000  Uiso   1.00
H584   H     0.68020   0.44921   0.31345   0.00000  Uiso   1.00
C585   C     0.94657   0.42563   0.31697   0.00000  Uiso   1.00
H586   H     0.91435   0.43742   0.32811   0.00000  Uiso   1.00
H587   H     0.95209   0.41431   0.28515   0.00000  Uiso   1.00
C588   C     0.94696   0.38913   0.33927   0.00000  Uiso   1.00
H589   H     0.97840   0.37593   0.32779   0.00000  Uiso   1.00
H590   H     0.92096   0.36417   0.33532   0.00000  Uiso   1.00
H591   H     0.94139   0.39966   0.37122   0.00000  Uiso   1.00
N592   N     0.89183   0.34312   0.22345   0.00000  Uiso   1.00
O593   O     0.92627   0.66274   0.22621   0.00000  Uiso   1.00
O594   O     0.89606   0.37113   0.19962   0.00000  Uiso   1.00
O595   O     0.77446   0.65737   0.27312   0.00000  Uiso   1.00
C596   C     0.74488   0.34742   0.30286   0.00000  Uiso   1.00
H597   H     0.71231   0.66349   0.30578   0.00000  Uiso   1.00
H598   H     0.74278   0.37865   0.29479   0.00000  Uiso   1.00
C599   C     0.75451   0.35089   0.34280   0.00000  Uiso   1.00
H600   H     0.75369   0.65230   0.35088   0.00000  Uiso   1.00
H601   H     0.78714   0.36755   0.34081   0.00000  Uiso   1.00
C602   C     0.72160   0.37469   0.37497   0.00000  Uiso   1.00
H603   H     0.72217   0.40686   0.36759   0.00000  Uiso   1.00
H604   H     0.72959   0.37695   0.40342   0.00000  Uiso   1.00
H605   H     0.68868   0.35808   0.37836   0.00000  Uiso   1.00
O606   O     0.86877   0.50754   0.39990   0.00000  Uiso   1.00
C607   C     0.89602   0.54312   0.40942   0.00000  Uiso   1.00
H608   H     0.92647   0.53203   0.40999   0.00000  Uiso   1.00
H609   H     0.88273   0.56006   0.43918   0.00000  Uiso   1.00
C610   C     0.90665   0.57314   0.37773   0.00000  Uiso   1.00
H611   H     0.92026   0.55598   0.34835   0.00000  Uiso   1.00
H612   H     0.87675   0.58544   0.37738   0.00000  Uiso   1.00
C613   C     0.93904   0.61000   0.38529   0.00000  Uiso   1.00
H614   H     0.92564   0.62818   0.41415   0.00000  Uiso   1.00
H615   H     0.94607   0.63098   0.36178   0.00000  Uiso   1.00
H616   H     0.96966   0.59872   0.38513   0.00000  Uiso   1.00
N617   N     0.75520   0.50304   0.08298   0.00000  Uiso   1.00
O618   O     0.74708   0.46631   0.09558   0.00000  Uiso   1.00
O619   O     0.73787   0.53470   0.10575   0.00000  Uiso   1.00
O620   O     0.86105   0.43670   0.42152   0.00000  Uiso   1.00
C621   C     0.82756   0.40431   0.41907   0.00000  Uiso   1.00
H622   H     0.82420   0.40155   0.38873   0.00000  Uiso   1.00
H623   H     0.79565   0.41156   0.43939   0.00000  Uiso   1.00
C624   C     0.83889   0.36232   0.42613   0.00000  Uiso   1.00
H625   H     0.87277   0.35794   0.40933   0.00000  Uiso   1.00
H626   H     0.83574   0.36233   0.45796   0.00000  Uiso   1.00
C627   C     0.80935   0.65878   0.41353   0.00000  Uiso   1.00
H628   H     0.77502   0.66319   0.42845   0.00000  Uiso   1.00
H629   H     0.81657   0.62949   0.42169   0.00000  Uiso   1.00
H630   H     0.81485   0.65555   0.38111   0.00000  Uiso   1.00
Zn631  Zn    0.19244   0.80756   0.28277   0.00000  Uiso   1.00
Zn632  Zn    0.13459   0.79044   0.22257   0.00000  Uiso   1.00
Zn633  Zn    0.21166   0.86331   0.21188   0.00000  Uiso   1.00
Zn634  Zn    0.12798   0.87202   0.28277   0.00000  Uiso   1.00
O635   O     0.16667   0.83333   0.25000   0.00000  Uiso   1.00
O636   O     0.06990   0.85627   0.27820   0.00000  Uiso   1.00
O637   O     0.25440   0.81944   0.26767   0.00000  Uiso   1.00
O638   O     0.13800   0.73570   0.23607   0.00000  Uiso   1.00
O639   O     0.20437   0.92193   0.21805   0.00000  Uiso   1.00
O640   O     0.15693   0.79060   0.16625   0.00000  Uiso   1.00
O641   O     0.12687   0.87313   0.33749   0.00000  Uiso   1.00
O642   O     0.21088   0.84159   0.15877   0.00000  Uiso   1.00
O643   O     0.17198   0.82802   0.33749   0.00000  Uiso   1.00
O644   O     0.17849   0.74768   0.27820   0.00000  Uiso   1.00
O645   O     0.14581   0.92803   0.26767   0.00000  Uiso   1.00
O646   O     0.07452   0.79917   0.23607   0.00000  Uiso   1.00
O647   O     0.26785   0.85845   0.21805   0.00000  Uiso   1.00
C648   C     0.05253   0.82685   0.25908   0.00000  Uiso   1.00
C649   C     0.28096   0.83937   0.24084   0.00000  Uiso   1.00
C650   C     0.15527   0.72302   0.25912   0.00000  Uiso   1.00
C651   C     0.17725   0.94451   0.24216   0.00000  Uiso   1.00
C652   C     0.18803   0.81204   0.14401   0.00000  Uiso   1.00
C653   C     0.14572   0.85467   0.35614   0.00000  Uiso   1.00
C654   C     0.13380   0.86017   0.39941   0.00000  Uiso   1.00
C655   C     0.19665   0.80304   0.10143   0.00000  Uiso   1.00
C656   C     0.08141   0.87719   0.46136   0.00000  Uiso   1.00
C657   C     0.09522   0.87644   0.42066   0.00000  Uiso   1.00
C658   C     0.15944   0.84611   0.41956   0.00000  Uiso   1.00
C659   C     0.14191   0.83975   0.45988   0.00000  Uiso   1.00
C660   C     0.10418   0.85873   0.48103   0.00000  Uiso   1.00
C661   C     0.16131   0.81684   0.48017   0.00000  Uiso   1.00
C662   C     0.14921   0.82235   0.02224   0.00000  Uiso   1.00
C663   C     0.11034   0.84061   0.04242   0.00000  Uiso   1.00
C664   C     0.08872   0.85841   0.02156   0.00000  Uiso   1.00
C665   C     0.18997   0.78628   0.46038   0.00000  Uiso   1.00
C666   C     0.21343   0.77008   0.48064   0.00000  Uiso   1.00
C667   C     0.20730   0.78108   0.02084   0.00000  Uiso   1.00
C668   C     0.17576   0.80803   0.04211   0.00000  Uiso   1.00
C669   C     0.23191   0.76452   0.04022   0.00000  Uiso   1.00
C670   C     0.22586   0.77475   0.08057   0.00000  Uiso   1.00
C671   C     0.17344   0.82100   0.08208   0.00000  Uiso   1.00
H672   H     0.05879   0.87144   0.03727   0.00000  Uiso   1.00
H673   H     0.15446   0.84558   0.09875   0.00000  Uiso   1.00
H674   H     0.24400   0.76076   0.09549   0.00000  Uiso   1.00
H675   H     0.23623   0.74807   0.46465   0.00000  Uiso   1.00
H676   H     0.05195   0.89086   0.47735   0.00000  Uiso   1.00
H677   H     0.07556   0.88838   0.40582   0.00000  Uiso   1.00
H678   H     0.25536   0.74316   0.02425   0.00000  Uiso   1.00
C679   C     0.32687   0.83700   0.23466   0.00000  Uiso   1.00
C680   C     0.00685   0.82651   0.26421   0.00000  Uiso   1.00
C681   C     0.18308   0.98983   0.24229   0.00000  Uiso   1.00
C682   C     0.14933   0.67850   0.26110   0.00000  Uiso   1.00
N683   N     0.02250   0.84249   0.19620   0.00000  Uiso   1.00
O684   O     0.00945   0.82880   0.16506   0.00000  Uiso   1.00
O685   O     0.05950   0.86521   0.19222   0.00000  Uiso   1.00
O686   O     0.31269   0.82867   0.30247   0.00000  Uiso   1.00
C687   C     0.31472   0.79457   0.32228   0.00000  Uiso   1.00
H688   H     0.30818   0.80585   0.35417   0.00000  Uiso   1.00
H689   H     0.01353   0.78254   0.31345   0.00000  Uiso   1.00
C690   C     0.27990   0.75896   0.31697   0.00000  Uiso   1.00
H691   H     0.24769   0.77075   0.32811   0.00000  Uiso   1.00
H692   H     0.28542   0.74764   0.28515   0.00000  Uiso   1.00
C693   C     0.28029   0.72247   0.33927   0.00000  Uiso   1.00
H694   H     0.31173   0.70926   0.32779   0.00000  Uiso   1.00
H695   H     0.25429   0.69751   0.33532   0.00000  Uiso   1.00
H696   H     0.27473   0.73299   0.37122   0.00000  Uiso   1.00
N697   N     0.22516   0.67645   0.22345   0.00000  Uiso   1.00
O698   O     0.25960   0.99607   0.22621   0.00000  Uiso   1.00
O699   O     0.22939   0.70447   0.19962   0.00000  Uiso   1.00
O700   O     0.10779   0.99071   0.27312   0.00000  Uiso   1.00
C701   C     0.07822   0.68075   0.30286   0.00000  Uiso   1.00
H702   H     0.04564   0.99682   0.30578   0.00000  Uiso   1.00
H703   H     0.07612   0.71198   0.29479   0.00000  Uiso   1.00
C704   C     0.08785   0.68422   0.34280   0.00000  Uiso   1.00
H705   H     0.08702   0.98563   0.35088   0.00000  Uiso   1.00
H706   H     0.12048   0.70088   0.34081   0.00000  Uiso   1.00
C707   C     0.05494   0.70803   0.37497   0.00000  Uiso   1.00
H708   H     0.05551   0.74019   0.36759   0.00000  Uiso   1.00
H709   H     0.06292   0.71028   0.40342   0.00000  Uiso   1.00
H710   H     0.02202   0.69142   0.37836   0.00000  Uiso   1.00
O711   O     0.20210   0.84087   0.39990   0.00000  Uiso   1.00
C712   C     0.22936   0.87646   0.40942   0.00000  Uiso   1.00
H713   H     0.25980   0.86536   0.40999   0.00000  Uiso   1.00
H714   H     0.21607   0.89340   0.43918   0.00000  Uiso   1.00
C715   C     0.23998   0.90647   0.37773   0.00000  Uiso   1.00
H716   H     0.25359   0.88931   0.34835   0.00000  Uiso   1.00
H717   H     0.21008   0.91878   0.37738   0.00000  Uiso   1.00
C718   C     0.27238   0.94333   0.38529   0.00000  Uiso   1.00
H719   H     0.25898   0.96151   0.41415   0.00000  Uiso   1.00
H720   H     0.27940   0.96432   0.36178   0.00000  Uiso   1.00
H721   H     0.30300   0.93205   0.38513   0.00000  Uiso   1.00
N722   N     0.08853   0.83638   0.08298   0.00000  Uiso   1.00
O723   O     0.08042   0.79964   0.09558   0.00000  Uiso   1.00
O724   O     0.07121   0.86803   0.10575   0.00000  Uiso   1.00
O725   O     0.19438   0.77004   0.42152   0.00000  Uiso   1.00
C726   C     0.16090   0.73764   0.41907   0.00000  Uiso   1.00
H727   H     0.15754   0.73488   0.38873   0.00000  Uiso   1.00
H728   H     0.12898   0.74490   0.43939   0.00000  Uiso   1.00
C729   C     0.17223   0.69565   0.42613   0.00000  Uiso   1.00
H730   H     0.20610   0.69128   0.40933   0.00000  Uiso   1.00
H731   H     0.16907   0.69566   0.45796   0.00000  Uiso   1.00
C732   C     0.14268   0.99212   0.41353   0.00000  Uiso   1.00
H733   H     0.10835   0.99652   0.42845   0.00000  Uiso   1.00
H734   H     0.14990   0.96282   0.42169   0.00000  Uiso   1.00
H735   H     0.14818   0.98888   0.38111   0.00000  Uiso   1.00
Zn736  Zn    0.52577   0.80756   0.28277   0.00000  Uiso   1.00
Zn737  Zn    0.46792   0.79044   0.22257   0.00000  Uiso   1.00
Zn738  Zn    0.54500   0.86331   0.21188   0.00000  Uiso   1.00
Zn739  Zn    0.46131   0.87202   0.28277   0.00000  Uiso   1.00
O740   O     0.50000   0.83333   0.25000   0.00000  Uiso   1.00
O741   O     0.40323   0.85627   0.27820   0.00000  Uiso   1.00
O742   O     0.58773   0.81944   0.26767   0.00000  Uiso   1.00
O743   O     0.47133   0.73570   0.23607   0.00000  Uiso   1.00
O744   O     0.53771   0.92193   0.21805   0.00000  Uiso   1.00
O745   O     0.49027   0.79060   0.16625   0.00000  Uiso   1.00
O746   O     0.46020   0.87313   0.33749   0.00000  Uiso   1.00
O747   O     0.54421   0.84159   0.15877   0.00000  Uiso   1.00
O748   O     0.50532   0.82802   0.33749   0.00000  Uiso   1.00
O749   O     0.51182   0.74768   0.27820   0.00000  Uiso   1.00
O750   O     0.47914   0.92803   0.26767   0.00000  Uiso   1.00
O751   O     0.40785   0.79917   0.23607   0.00000  Uiso   1.00
O752   O     0.60119   0.85845   0.21805   0.00000  Uiso   1.00
C753   C     0.38586   0.82685   0.25908   0.00000  Uiso   1.00
C754   C     0.61429   0.83937   0.24084   0.00000  Uiso   1.00
C755   C     0.48860   0.72302   0.25912   0.00000  Uiso   1.00
C756   C     0.51058   0.94451   0.24216   0.00000  Uiso   1.00
C757   C     0.52137   0.81204   0.14401   0.00000  Uiso   1.00
C758   C     0.47905   0.85467   0.35614   0.00000  Uiso   1.00
C759   C     0.46713   0.86017   0.39941   0.00000  Uiso   1.00
C760   C     0.52998   0.80304   0.10143   0.00000  Uiso   1.00
C761   C     0.41474   0.87719   0.46136   0.00000  Uiso   1.00
C762   C     0.42855   0.87644   0.42066   0.00000  Uiso   1.00
C763   C     0.49277   0.84611   0.41956   0.00000  Uiso   1.00
C764   C     0.47524   0.83975   0.45988   0.00000  Uiso   1.00
C765   C     0.43752   0.85873   0.48103   0.00000  Uiso   1.00
C766   C     0.49465   0.81684   0.48017   0.00000  Uiso   1.00
C767   C     0.48255   0.82235   0.02224   0.00000  Uiso   1.00
C768   C     0.44367   0.84061   0.04242   0.00000  Uiso   1.00
C769   C     0.42206   0.85841   0.02156   0.00000  Uiso   1.00
C770   C     0.52331   0.78628   0.46038   0.00000  Uiso   1.00
C771   C     0.54676   0.77008   0.48064   0.00000  Uiso   1.00
C772   C     0.54064   0.78108   0.02084   0.00000  Uiso   1.00
C773   C     0.50909   0.80803   0.04211   0.00000  Uiso   1.00
C774   C     0.56524   0.76452   0.04022   0.00000  Uiso   1.00
C775   C     0.55919   0.77475   0.08057   0.00000  Uiso   1.00
C776   C     0.50677   0.82100   0.08208   0.00000  Uiso   1.00
H777   H     0.39212   0.87144   0.03727   0.00000  Uiso   1.00
H778   H     0.48780   0.84558   0.09875   0.00000  Uiso   1.00
H779   H     0.57733   0.76076   0.09549   0.00000  Uiso   1.00
H780   H     0.56956   0.74807   0.46465   0.00000  Uiso   1.00
H781   H     0.38528   0.89086   0.47735   0.00000  Uiso   1.00
H782   H     0.40890   0.88838   0.40582   0.00000  Uiso   1.00
H783   H     0.58869   0.74316   0.02425   0.00000  Uiso   1.00
C784   C     0.66020   0.83700   0.23466   0.00000  Uiso   1.00
C785   C     0.34018   0.82651   0.26421   0.00000  Uiso   1.00
C786   C     0.51641   0.98983   0.24229   0.00000  Uiso   1.00
C787   C     0.48266   0.67850   0.26110   0.00000  Uiso   1.00
N788   N     0.35584   0.84249   0.19620   0.00000  Uiso   1.00
O789   O     0.34279   0.82880   0.16506   0.00000  Uiso   1.00
O790   O     0.39283   0.86521   0.19222   0.00000  Uiso   1.00
O791   O     0.64602   0.82867   0.30247   0.00000  Uiso   1.00
C792   C     0.64806   0.79457   0.32228   0.00000  Uiso   1.00
H793   H     0.64151   0.80585   0.35417   0.00000  Uiso   1.00
H794   H     0.34687   0.78254   0.31345   0.00000  Uiso   1.00
C795   C     0.61323   0.75896   0.31697   0.00000  Uiso   1.00
H796   H     0.58102   0.77075   0.32811   0.00000  Uiso   1.00
H797   H     0.61876   0.74764   0.28515   0.00000  Uiso   1.00
C798   C     0.61362   0.72247   0.33927   0.00000  Uiso   1.00
H799   H     0.64507   0.70926   0.32779   0.00000  Uiso   1.00
H800   H     0.58762   0.69751   0.33532   0.00000  Uiso   1.00
H801   H     0.60806   0.73299   0.37122   0.00000  Uiso   1.00
N802   N     0.55849   0.67645   0.22345   0.00000  Uiso   1.00
O803   O     0.59294   0.99607   0.22621   0.00000  Uiso   1.00
O804   O     0.56273   0.70447   0.19962   0.00000  Uiso   1.00
O805   O     0.44113   0.99071   0.27312   0.00000  Uiso   1.00
C806   C     0.41155   0.68075   0.30286   0.00000  Uiso   1.00
H807   H     0.37897   0.99682   0.30578   0.00000  Uiso   1.00
H808   H     0.40945   0.71198   0.29479   0.00000  Uiso   1.00
C809   C     0.42118   0.68422   0.34280   0.00000  Uiso   1.00
H810   H     0.42036   0.98563   0.35088   0.00000  Uiso   1.00
H811   H     0.45381   0.70088   0.34081   0.00000  Uiso   1.00
C812   C     0.38827   0.70803   0.37497   0.00000  Uiso   1.00
H813   H     0.38884   0.74019   0.36759   0.00000  Uiso   1.00
H814   H     0.39625   0.71028   0.40342   0.00000  Uiso   1.00
H815   H     0.35535   0.69142   0.37836   0.00000  Uiso   1.00
O816   O     0.53544   0.84087   0.39990   0.00000  Uiso   1.00
C817   C     0.56269   0.87646   0.40942   0.00000  Uiso   1.00
H818   H     0.59314   0.86536   0.40999   0.00000  Uiso   1.00
H819   H     0.54940   0.89340   0.43918   0.00000  Uiso   1.00
C820   C     0.57331   0.90647   0.37773   0.00000  Uiso   1.00
H821   H     0.58692   0.88931   0.34835   0.00000  Uiso   1.00
H822   H     0.54341   0.91878   0.37738   0.00000  Uiso   1.00
C823   C     0.60571   0.94333   0.38529   0.00000  Uiso   1.00
H824   H     0.59231   0.96151   0.41415   0.00000  Uiso   1.00
H825   H     0.61273   0.96432   0.36178   0.00000  Uiso   1.00
H826   H     0.63633   0.93205   0.38513   0.00000  Uiso   1.00
N827   N     0.42187   0.83638   0.08298   0.00000  Uiso   1.00
O828   O     0.41375   0.79964   0.09558   0.00000  Uiso   1.00
O829   O     0.40454   0.86803   0.10575   0.00000  Uiso   1.00
O830   O     0.52771   0.77004   0.42152   0.00000  Uiso   1.00
C831   C     0.49423   0.73764   0.41907   0.00000  Uiso   1.00
H832   H     0.49087   0.73488   0.38873   0.00000  Uiso   1.00
H833   H     0.46231   0.74490   0.43939   0.00000  Uiso   1.00
C834   C     0.50556   0.69565   0.42613   0.00000  Uiso   1.00
H835   H     0.53944   0.69128   0.40933   0.00000  Uiso   1.00
H836   H     0.50240   0.69566   0.45796   0.00000  Uiso   1.00
C837   C     0.47601   0.99212   0.41353   0.00000  Uiso   1.00
H838   H     0.44168   0.99652   0.42845   0.00000  Uiso   1.00
H839   H     0.48323   0.96282   0.42169   0.00000  Uiso   1.00
H840   H     0.48152   0.98888   0.38111   0.00000  Uiso   1.00
Zn841  Zn    0.85910   0.80756   0.28277   0.00000  Uiso   1.00
Zn842  Zn    0.80125   0.79044   0.22257   0.00000  Uiso   1.00
Zn843  Zn    0.87833   0.86331   0.21188   0.00000  Uiso   1.00
Zn844  Zn    0.79465   0.87202   0.28277   0.00000  Uiso   1.00
O845   O     0.83333   0.83333   0.25000   0.00000  Uiso   1.00
O846   O     0.73656   0.85627   0.27820   0.00000  Uiso   1.00
O847   O     0.92106   0.81944   0.26767   0.00000  Uiso   1.00
O848   O     0.80467   0.73570   0.23607   0.00000  Uiso   1.00
O849   O     0.87104   0.92193   0.21805   0.00000  Uiso   1.00
O850   O     0.82360   0.79060   0.16625   0.00000  Uiso   1.00
O851   O     0.79354   0.87313   0.33749   0.00000  Uiso   1.00
O852   O     0.87755   0.84159   0.15877   0.00000  Uiso   1.00
O853   O     0.83865   0.82802   0.33749   0.00000  Uiso   1.00
O854   O     0.84515   0.74768   0.27820   0.00000  Uiso   1.00
O855   O     0.81247   0.92803   0.26767   0.00000  Uiso   1.00
O856   O     0.74119   0.79917   0.23607   0.00000  Uiso   1.00
O857   O     0.93452   0.85845   0.21805   0.00000  Uiso   1.00
C858   C     0.71920   0.82685   0.25908   0.00000  Uiso   1.00
C859   C     0.94762   0.83937   0.24084   0.00000  Uiso   1.00
C860   C     0.82193   0.72302   0.25912   0.00000  Uiso   1.00
C861   C     0.84392   0.94451   0.24216   0.00000  Uiso   1.00
C862   C     0.85470   0.81204   0.14401   0.00000  Uiso   1.00
C863   C     0.81239   0.85467   0.35614   0.00000  Uiso   1.00
C864   C     0.80047   0.86017   0.39941   0.00000  Uiso   1.00
C865   C     0.86331   0.80304   0.10143   0.00000  Uiso   1.00
C866   C     0.74807   0.87719   0.46136   0.00000  Uiso   1.00
C867   C     0.76188   0.87644   0.42066   0.00000  Uiso   1.00
C868   C     0.82610   0.84611   0.41956   0.00000  Uiso   1.00
C869   C     0.80857   0.83975   0.45988   0.00000  Uiso   1.00
C870   C     0.77085   0.85873   0.48103   0.00000  Uiso   1.00
C871   C     0.82798   0.81684   0.48017   0.00000  Uiso   1.00
C872   C     0.81588   0.82235   0.02224   0.00000  Uiso   1.00
C873   C     0.77700   0.84061   0.04242   0.00000  Uiso   1.00
C874   C     0.75539   0.85841   0.02156   0.00000  Uiso   1.00
C875   C     0.85664   0.78628   0.46038   0.00000  Uiso   1.00
C876   C     0.88009   0.77008   0.48064   0.00000  Uiso   1.00
C877   C     0.87397   0.78108   0.02084   0.00000  Uiso   1.00
C878   C     0.84243   0.80803   0.04211   0.00000  Uiso   1.00
C879   C     0.89858   0.76452   0.04022   0.00000  Uiso   1.00
C880   C     0.89252   0.77475   0.08057   0.00000  Uiso   1.00
C881   C     0.84010   0.82100   0.08208   0.00000  Uiso   1.00
H882   H     0.72546   0.87144   0.03727   0.00000  Uiso   1.00
H883   H     0.82113   0.84558   0.09875   0.00000  Uiso   1.00
H884   H     0.91067   0.76076   0.09549   0.00000  Uiso   1.00
H885   H     0.90289   0.74807   0.46465   0.00000  Uiso   1.00
H886   H     0.71861   0.89086   0.47735   0.00000  Uiso   1.00
H887   H     0.74223   0.88838   0.40582   0.00000  Uiso   1.00
H888   H     0.92203   0.74316   0.02425   0.00000  Uiso   1.00
C889   C     0.99354   0.83700   0.23466   0.00000  Uiso   1.00
C890   C     0.67351   0.82651   0.26421   0.00000  Uiso   1.00
C891   C     0.84974   0.98983   0.24229   0.00000  Uiso   1.00
C892   C     0.81600   0.67850   0.26110   0.00000  Uiso   1.00
N893   N     0.68917   0.84249   0.19620   0.00000  Uiso   1.00
O894   O     0.67612   0.82880   0.16506   0.00000  Uiso   1.00
O895   O     0.72617   0.86521   0.19222   0.00000  Uiso   1.00
O896   O     0.97935   0.82867   0.30247   0.00000  Uiso   1.00
C897   C     0.98139   0.79457   0.32228   0.00000  Uiso   1.00
H898   H     0.97485   0.80585   0.35417   0.00000  Uiso   1.00
H899   H     0.68020   0.78254   0.31345   0.00000  Uiso   1.00
C900   C     0.94657   0.75896   0.31697   0.00000  Uiso   1.00
H901   H     0.91435   0.77075   0.32811   0.00000  Uiso   1.00
H902   H     0.95209   0.74764   0.28515   0.00000  Uiso   1.00
C903   C     0.94696   0.72247   0.33927   0.00000  Uiso   1.00
H904   H     0.97840   0.70926   0.32779   0.00000  Uiso   1.00
H905   H     0.92096   0.69751   0.33532   0.00000  Uiso   1.00
H906   H     0.94139   0.73299   0.37122   0.00000  Uiso   1.00
N907   N     0.89183   0.67645   0.22345   0.00000  Uiso   1.00
O908   O     0.92627   0.99607   0.22621   0.00000  Uiso   1.00
O909   O     0.89606   0.70447   0.19962   0.00000  Uiso   1.00
O910   O     0.77446   0.99071   0.27312   0.00000  Uiso   1.00
C911   C     0.74488   0.68075   0.30286   0.00000  Uiso   1.00
H912   H     0.71231   0.99682   0.30578   0.00000  Uiso   1.00
H913   H     0.74278   0.71198   0.29479   0.00000  Uiso   1.00
C914   C     0.75451   0.68422   0.34280   0.00000  Uiso   1.00
H915   H     0.75369   0.98563   0.35088   0.00000  Uiso   1.00
H916   H     0.78714   0.70088   0.34081   0.00000  Uiso   1.00
C917   C     0.72160   0.70803   0.37497   0.00000  Uiso   1.00
H918   H     0.72217   0.74019   0.36759   0.00000  Uiso   1.00
H919   H     0.72959   0.71028   0.40342   0.00000  Uiso   1.00
H920   H     0.68868   0.69142   0.37836   0.00000  Uiso   1.00
O921   O     0.86877   0.84087   0.39990   0.00000  Uiso   1.00
C922   C     0.89602   0.87646   0.40942   0.00000  Uiso   1.00
H923   H     0.92647   0.86536   0.40999   0.00000  Uiso   1.00
H924   H     0.88273   0.89340   0.43918   0.00000  Uiso   1.00
C925   C     0.90665   0.90647   0.37773   0.00000  Uiso   1.00
H926   H     0.92026   0.88931   0.34835   0.00000  Uiso   1.00
H927   H     0.87675   0.91878   0.37738   0.00000  Uiso   1.00
C928   C     0.93904   0.94333   0.38529   0.00000  Uiso   1.00
H929   H     0.92564   0.96151   0.41415   0.00000  Uiso   1.00
H930   H     0.94607   0.96432   0.36178   0.00000  Uiso   1.00
H931   H     0.96966   0.93205   0.38513   0.00000  Uiso   1.00
N932   N     0.75520   0.83638   0.08298   0.00000  Uiso   1.00
O933   O     0.74708   0.79964   0.09558   0.00000  Uiso   1.00
O934   O     0.73787   0.86803   0.10575   0.00000  Uiso   1.00
O935   O     0.86105   0.77004   0.42152   0.00000  Uiso   1.00
C936   C     0.82756   0.73764   0.41907   0.00000  Uiso   1.00
H937   H     0.82420   0.73488   0.38873   0.00000  Uiso   1.00
H938   H     0.79565   0.74490   0.43939   0.00000  Uiso   1.00
C939   C     0.83889   0.69565   0.42613   0.00000  Uiso   1.00
H940   H     0.87277   0.69128   0.40933   0.00000  Uiso   1.00
H941   H     0.83574   0.69566   0.45796   0.00000  Uiso   1.00
C942   C     0.80935   0.99212   0.41353   0.00000  Uiso   1.00
H943   H     0.77502   0.99652   0.42845   0.00000  Uiso   1.00
H944   H     0.81657   0.96282   0.42169   0.00000  Uiso   1.00
H945   H     0.81485   0.98888   0.38111   0.00000  Uiso   1.00
Zn946  Zn    0.19244   0.14090   0.78277   0.00000  Uiso   1.00
Zn947  Zn    0.13459   0.12378   0.72257   0.00000  Uiso   1.00
Zn948  Zn    0.21166   0.19664   0.71188   0.00000  Uiso   1.00
Zn949  Zn    0.12798   0.20535   0.78277   0.00000  Uiso   1.00
O950   O     0.16667   0.16667   0.75000   0.00000  Uiso   1.00
O951   O     0.06990   0.18960   0.77820   0.00000  Uiso   1.00
O952   O     0.25440   0.15277   0.76767   0.00000  Uiso   1.00
O953   O     0.13800   0.06903   0.73607   0.00000  Uiso   1.00
O954   O     0.20437   0.25527   0.71805   0.00000  Uiso   1.00
O955   O     0.15693   0.12393   0.66625   0.00000  Uiso   1.00
O956   O     0.12687   0.20646   0.83749   0.00000  Uiso   1.00
O957   O     0.21088   0.17493   0.65877   0.00000  Uiso   1.00
O958   O     0.17198   0.16135   0.83749   0.00000  Uiso   1.00
O959   O     0.17849   0.08101   0.77820   0.00000  Uiso   1.00
O960   O     0.14581   0.26136   0.76767   0.00000  Uiso   1.00
O961   O     0.07452   0.13251   0.73607   0.00000  Uiso   1.00
O962   O     0.26785   0.19179   0.71805   0.00000  Uiso   1.00
C963   C     0.05253   0.16018   0.75908   0.00000  Uiso   1.00
C964   C     0.28096   0.17271   0.74084   0.00000  Uiso   1.00
C965   C     0.15527   0.05635   0.75912   0.00000  Uiso   1.00
C966   C     0.17725   0.27785   0.74216   0.00000  Uiso   1.00
C967   C     0.18803   0.14537   0.64401   0.00000  Uiso   1.00
C968   C     0.14572   0.18800   0.85614   0.00000  Uiso   1.00
C969   C     0.13380   0.19351   0.89941   0.00000  Uiso   1.00
C970   C     0.19665   0.13638   0.60143   0.00000  Uiso   1.00
C971   C     0.08141   0.21053   0.96136   0.00000  Uiso   1.00
C972   C     0.09522   0.20977   0.92066   0.00000  Uiso   1.00
C973   C     0.15944   0.17945   0.91956   0.00000  Uiso   1.00
C974   C     0.14191   0.17309   0.95988   0.00000  Uiso   1.00
C975   C     0.10418   0.19207   0.98103   0.00000  Uiso   1.00
C976   C     0.16131   0.15018   0.98017   0.00000  Uiso   1.00
C977   C     0.14921   0.15568   0.52224   0.00000  Uiso   1.00
C978   C     0.11034   0.17395   0.54242   0.00000  Uiso   1.00
C979   C     0.08872   0.19174   0.52156   0.00000  Uiso   1.00
C980   C     0.18997   0.11962   0.96038   0.00000  Uiso   1.00
C981   C     0.21343   0.10342   0.98064   0.00000  Uiso   1.00
C982   C     0.20730   0.11442   0.52084   0.00000  Uiso   1.00
C983   C     0.17576   0.14136   0.54211   0.00000  Uiso   1.00
C984   C     0.23191   0.09786   0.54022   0.00000  Uiso   1.00
C985   C     0.22586   0.10808   0.58057   0.00000  Uiso   1.00
C986   C     0.17344   0.15433   0.58208   0.00000  Uiso   1.00
H987   H     0.05879   0.20478   0.53727   0.00000  Uiso   1.00
H988   H     0.15446   0.17891   0.59875   0.00000  Uiso   1.00
H989   H     0.24400   0.09410   0.59549   0.00000  Uiso   1.00
H990   H     0.23623   0.08141   0.96465   0.00000  Uiso   1.00
H991   H     0.05195   0.22420   0.97735   0.00000  Uiso   1.00
H992   H     0.07556   0.22171   0.90582   0.00000  Uiso   1.00
H993   H     0.25536   0.07649   0.52425   0.00000  Uiso   1.00
C994   C     0.32687   0.17034   0.73466   0.00000  Uiso   1.00
C995   C     0.00685   0.15984   0.76421   0.00000  Uiso   1.00
C996   C     0.18308   0.32316   0.74229   0.00000  Uiso   1.00
C997   C     0.14933   0.01184   0.76110   0.00000  Uiso   1.00
N998   N     0.02250   0.17582   0.69620   0.00000  Uiso   1.00
O999   O     0.00945   0.16213   0.66506   0.00000  Uiso   1.00
O1000  O     0.05950   0.19854   0.69222   0.00000  Uiso   1.00
O1001  O     0.31269   0.16200   0.80247   0.00000  Uiso   1.00
C1002  C     0.31472   0.12790   0.82228   0.00000  Uiso   1.00
H1003  H     0.30818   0.13918   0.85417   0.00000  Uiso   1.00
H1004  H     0.01353   0.11588   0.81345   0.00000  Uiso   1.00
C1005  C     0.27990   0.09229   0.81697   0.00000  Uiso   1.00
H1006  H     0.24769   0.10409   0.82811   0.00000  Uiso   1.00
H1007  H     0.28542   0.08097   0.78515   0.00000  Uiso   1.00
C1008  C     0.28029   0.05580   0.83927   0.00000  Uiso   1.00
H1009  H     0.31173   0.04260   0.82779   0.00000  Uiso   1.00
H1010  H     0.25429   0.03084   0.83532   0.00000  Uiso   1.00
H1011  H     0.27473   0.06633   0.87122   0.00000  Uiso   1.00
N1012  N     0.22516   0.00979   0.72345   0.00000  Uiso   1.00
O1013  O     0.25960   0.32941   0.72621   0.00000  Uiso   1.00
O1014  O     0.22939   0.03780   0.69962   0.00000  Uiso   1.00
O1015  O     0.10779   0.32404   0.77312   0.00000  Uiso   1.00
C1016  C     0.07822   0.01408   0.80286   0.00000  Uiso   1.00
H1017  H     0.04564   0.33016   0.80578   0.00000  Uiso   1.00
H1018  H     0.07612   0.04532   0.79479   0.00000  Uiso   1.00
C1019  C     0.08785   0.01755   0.84280   0.00000  Uiso   1.00
H1020  H     0.08702   0.31896   0.85088   0.00000  Uiso   1.00
H1021  H     0.12048   0.03422   0.84081   0.00000  Uiso   1.00
C1022  C     0.05494   0.04136   0.87497   0.00000  Uiso   1.00
H1023  H     0.05551   0.07353   0.86759   0.00000  Uiso   1.00
H1024  H     0.06292   0.04362   0.90342   0.00000  Uiso   1.00
H1025  H     0.02202   0.02475   0.87836   0.00000  Uiso   1.00
O1026  O     0.20210   0.17420   0.89990   0.00000  Uiso   1.00
C1027  C     0.22936   0.20979   0.90942   0.00000  Uiso   1.00
H1028  H     0.25980   0.19869   0.90999   0.00000  Uiso   1.00
H1029  H     0.21607   0.22673   0.93918   0.00000  Uiso   1.00
C1030  C     0.23998   0.23981   0.87773   0.00000  Uiso   1.00
H1031  H     0.25359   0.22265   0.84835   0.00000  Uiso   1.00
H1032  H     0.21008   0.25211   0.87738   0.00000  Uiso   1.00
C1033  C     0.27238   0.27666   0.88529   0.00000  Uiso   1.00
H1034  H     0.25898   0.29484   0.91415   0.00000  Uiso   1.00
H1035  H     0.27940   0.29765   0.86178   0.00000  Uiso   1.00
H1036  H     0.30300   0.26539   0.88513   0.00000  Uiso   1.00
N1037  N     0.08853   0.16971   0.58298   0.00000  Uiso   1.00
O1038  O     0.08042   0.13297   0.59558   0.00000  Uiso   1.00
O1039  O     0.07121   0.20137   0.60575   0.00000  Uiso   1.00
O1040  O     0.19438   0.10337   0.92152   0.00000  Uiso   1.00
C1041  C     0.16090   0.07097   0.91907   0.00000  Uiso   1.00
H1042  H     0.15754   0.06822   0.88873   0.00000  Uiso   1.00
H1043  H     0.12898   0.07823   0.93939   0.00000  Uiso   1.00
C1044  C     0.17223   0.02898   0.92613   0.00000  Uiso   1.00
H1045  H     0.20610   0.02461   0.90933   0.00000  Uiso   1.00
H1046  H     0.16907   0.02900   0.95796   0.00000  Uiso   1.00
C1047  C     0.14268   0.32545   0.91353   0.00000  Uiso   1.00
H1048  H     0.10835   0.32985   0.92845   0.00000  Uiso   1.00
H1049  H     0.14990   0.29615   0.92169   0.00000  Uiso   1.00
H1050  H     0.14818   0.32222   0.88111   0.00000  Uiso   1.00
Zn1051 Zn    0.52577   0.14090   0.78277   0.00000  Uiso   1.00
Zn1052 Zn    0.46792   0.12378   0.72257   0.00000  Uiso   1.00
Zn1053 Zn    0.54500   0.19664   0.71188   0.00000  Uiso   1.00
Zn1054 Zn    0.46131   0.20535   0.78277   0.00000  Uiso   1.00
O1055  O     0.50000   0.16667   0.75000   0.00000  Uiso   1.00
O1056  O     0.40323   0.18960   0.77820   0.00000  Uiso   1.00
O1057  O     0.58773   0.15277   0.76767   0.00000  Uiso   1.00
O1058  O     0.47133   0.06903   0.73607   0.00000  Uiso   1.00
O1059  O     0.53771   0.25527   0.71805   0.00000  Uiso   1.00
O1060  O     0.49027   0.12393   0.66625   0.00000  Uiso   1.00
O1061  O     0.46020   0.20646   0.83749   0.00000  Uiso   1.00
O1062  O     0.54421   0.17493   0.65877   0.00000  Uiso   1.00
O1063  O     0.50532   0.16135   0.83749   0.00000  Uiso   1.00
O1064  O     0.51182   0.08101   0.77820   0.00000  Uiso   1.00
O1065  O     0.47914   0.26136   0.76767   0.00000  Uiso   1.00
O1066  O     0.40785   0.13251   0.73607   0.00000  Uiso   1.00
O1067  O     0.60119   0.19179   0.71805   0.00000  Uiso   1.00
C1068  C     0.38586   0.16018   0.75908   0.00000  Uiso   1.00
C1069  C     0.61429   0.17271   0.74084   0.00000  Uiso   1.00
C1070  C     0.48860   0.05635   0.75912   0.00000  Uiso   1.00
C1071  C     0.51058   0.27785   0.74216   0.00000  Uiso   1.00
C1072  C     0.52137   0.14537   0.64401   0.00000  Uiso   1.00
C1073  C     0.47905   0.18800   0.85614   0.00000  Uiso   1.00
C1074  C     0.46713   0.19351   0.89941   0.00000  Uiso   1.00
C1075  C     0.52998   0.13638   0.60143   0.00000  Uiso   1.00
C1076  C     0.41474   0.21053   0.96136   0.00000  Uiso   1.00
C1077  C     0.42855   0.20977   0.92066   0.00000  Uiso   1.00
C1078  C     0.49277   0.17945   0.91956   0.00000  Uiso   1.00
C1079  C     0.47524   0.17309   0.95988   0.00000  Uiso   1.00
C1080  C     0.43752   0.19207   0.98103   0.00000  Uiso   1.00
C1081  C     0.49465   0.15018   0.98017   0.00000  Uiso   1.00
C1082  C     0.48255   0.15568   0.52224   0.00000  Uiso   1.00
C1083  C     0.44367   0.17395   0.54242   0.00000  Uiso   1.00
C1084  C     0.42206   0.19174   0.52156   0.00000  Uiso   1.00
C1085  C     0.52331   0.11962   0.96038   0.00000  Uiso   1.00
C1086  C     0.54676   0.10342   0.98064   0.00000  Uiso   1.00
C1087  C     0.54064   0.11442   0.52084   0.00000  Uiso   1.00
C1088  C     0.50909   0.14136   0.54211   0.00000  Uiso   1.00
C1089  C     0.56524   0.09786   0.54022   0.00000  Uiso   1.00
C1090  C     0.55919   0.10808   0.58057   0.00000  Uiso   1.00
C1091  C     0.50677   0.15433   0.58208   0.00000  Uiso   1.00
H1092  H     0.39212   0.20478   0.53727   0.00000  Uiso   1.00
H1093  H     0.48780   0.17891   0.59875   0.00000  Uiso   1.00
H1094  H     0.57733   0.09410   0.59549   0.00000  Uiso   1.00
H1095  H     0.56956   0.08141   0.96465   0.00000  Uiso   1.00
H1096  H     0.38528   0.22420   0.97735   0.00000  Uiso   1.00
H1097  H     0.40890   0.22171   0.90582   0.00000  Uiso   1.00
H1098  H     0.58869   0.07649   0.52425   0.00000  Uiso   1.00
C1099  C     0.66020   0.17034   0.73466   0.00000  Uiso   1.00
C1100  C     0.34018   0.15984   0.76421   0.00000  Uiso   1.00
C1101  C     0.51641   0.32316   0.74229   0.00000  Uiso   1.00
C1102  C     0.48266   0.01184   0.76110   0.00000  Uiso   1.00
N1103  N     0.35584   0.17582   0.69620   0.00000  Uiso   1.00
O1104  O     0.34279   0.16213   0.66506   0.00000  Uiso   1.00
O1105  O     0.39283   0.19854   0.69222   0.00000  Uiso   1.00
O1106  O     0.64602   0.16200   0.80247   0.00000  Uiso   1.00
C1107  C     0.64806   0.12790   0.82228   0.00000  Uiso   1.00
H1108  H     0.64151   0.13918   0.85417   0.00000  Uiso   1.00
H1109  H     0.34687   0.11588   0.81345   0.00000  Uiso   1.00
C1110  C     0.61323   0.09229   0.81697   0.00000  Uiso   1.00
H1111  H     0.58102   0.10409   0.82811   0.00000  Uiso   1.00
H1112  H     0.61876   0.08097   0.78515   0.00000  Uiso   1.00
C1113  C     0.61362   0.05580   0.83927   0.00000  Uiso   1.00
H1114  H     0.64507   0.04260   0.82779   0.00000  Uiso   1.00
H1115  H     0.58762   0.03084   0.83532   0.00000  Uiso   1.00
H1116  H     0.60806   0.06633   0.87122   0.00000  Uiso   1.00
N1117  N     0.55849   0.00979   0.72345   0.00000  Uiso   1.00
O1118  O     0.59294   0.32941   0.72621   0.00000  Uiso   1.00
O1119  O     0.56273   0.03780   0.69962   0.00000  Uiso   1.00
O1120  O     0.44113   0.32404   0.77312   0.00000  Uiso   1.00
C1121  C     0.41155   0.01408   0.80286   0.00000  Uiso   1.00
H1122  H     0.37897   0.33016   0.80578   0.00000  Uiso   1.00
H1123  H     0.40945   0.04532   0.79479   0.00000  Uiso   1.00
C1124  C     0.42118   0.01755   0.84280   0.00000  Uiso   1.00
H1125  H     0.42036   0.31896   0.85088   0.00000  Uiso   1.00
H1126  H     0.45381   0.03422   0.84081   0.00000  Uiso   1.00
C1127  C     0.38827   0.04136   0.87497   0.00000  Uiso   1.00
H1128  H     0.38884   0.07353   0.86759   0.00000  Uiso   1.00
H1129  H     0.39625   0.04362   0.90342   0.00000  Uiso   1.00
H1130  H     0.35535   0.02475   0.87836   0.00000  Uiso   1.00
O1131  O     0.53544   0.17420   0.89990   0.00000  Uiso   1.00
C1132  C     0.56269   0.20979   0.90942   0.00000  Uiso   1.00
H1133  H     0.59314   0.19869   0.90999   0.00000  Uiso   1.00
H1134  H     0.54940   0.22673   0.93918   0.00000  Uiso   1.00
C1135  C     0.57331   0.23981   0.87773   0.00000  Uiso   1.00
H1136  H     0.58692   0.22265   0.84835   0.00000  Uiso   1.00
H1137  H     0.54341   0.25211   0.87738   0.00000  Uiso   1.00
C1138  C     0.60571   0.27666   0.88529   0.00000  Uiso   1.00
H1139  H     0.59231   0.29484   0.91415   0.00000  Uiso   1.00
H1140  H     0.61273   0.29765   0.86178   0.00000  Uiso   1.00
H1141  H     0.63633   0.26539   0.88513   0.00000  Uiso   1.00
N1142  N     0.42187   0.16971   0.58298   0.00000  Uiso   1.00
O1143  O     0.41375   0.13297   0.59558   0.00000  Uiso   1.00
O1144  O     0.40454   0.20137   0.60575   0.00000  Uiso   1.00
O1145  O     0.52771   0.10337   0.92152   0.00000  Uiso   1.00
C1146  C     0.49423   0.07097   0.91907   0.00000  Uiso   1.00
H1147  H     0.49087   0.06822   0.88873   0.00000  Uiso   1.00
H1148  H     0.46231   0.07823   0.93939   0.00000  Uiso   1.00
C1149  C     0.50556   0.02898   0.92613   0.00000  Uiso   1.00
H1150  H     0.53944   0.02461   0.90933   0.00000  Uiso   1.00
H1151  H     0.50240   0.02900   0.95796   0.00000  Uiso   1.00
C1152  C     0.47601   0.32545   0.91353   0.00000  Uiso   1.00
H1153  H     0.44168   0.32985   0.92845   0.00000  Uiso   1.00
H1154  H     0.48323   0.29615   0.92169   0.00000  Uiso   1.00
H1155  H     0.48152   0.32222   0.88111   0.00000  Uiso   1.00
Zn1156 Zn    0.85910   0.14090   0.78277   0.00000  Uiso   1.00
Zn1157 Zn    0.80125   0.12378   0.72257   0.00000  Uiso   1.00
Zn1158 Zn    0.87833   0.19664   0.71188   0.00000  Uiso   1.00
Zn1159 Zn    0.79465   0.20535   0.78277   0.00000  Uiso   1.00
O1160  O     0.83333   0.16667   0.75000   0.00000  Uiso   1.00
O1161  O     0.73656   0.18960   0.77820   0.00000  Uiso   1.00
O1162  O     0.92106   0.15277   0.76767   0.00000  Uiso   1.00
O1163  O     0.80467   0.06903   0.73607   0.00000  Uiso   1.00
O1164  O     0.87104   0.25527   0.71805   0.00000  Uiso   1.00
O1165  O     0.82360   0.12393   0.66625   0.00000  Uiso   1.00
O1166  O     0.79354   0.20646   0.83749   0.00000  Uiso   1.00
O1167  O     0.87755   0.17493   0.65877   0.00000  Uiso   1.00
O1168  O     0.83865   0.16135   0.83749   0.00000  Uiso   1.00
O1169  O     0.84515   0.08101   0.77820   0.00000  Uiso   1.00
O1170  O     0.81247   0.26136   0.76767   0.00000  Uiso   1.00
O1171  O     0.74119   0.13251   0.73607   0.00000  Uiso   1.00
O1172  O     0.93452   0.19179   0.71805   0.00000  Uiso   1.00
C1173  C     0.71920   0.16018   0.75908   0.00000  Uiso   1.00
C1174  C     0.94762   0.17271   0.74084   0.00000  Uiso   1.00
C1175  C     0.82193   0.05635   0.75912   0.00000  Uiso   1.00
C1176  C     0.84392   0.27785   0.74216   0.00000  Uiso   1.00
C1177  C     0.85470   0.14537   0.64401   0.00000  Uiso   1.00
C1178  C     0.81239   0.18800   0.85614   0.00000  Uiso   1.00
C1179  C     0.80047   0.19351   0.89941   0.00000  Uiso   1.00
C1180  C     0.86331   0.13638   0.60143   0.00000  Uiso   1.00
C1181  C     0.74807   0.21053   0.96136   0.00000  Uiso   1.00
C1182  C     0.76188   0.20977   0.92066   0.00000  Uiso   1.00
C1183  C     0.82610   0.17945   0.91956   0.00000  Uiso   1.00
C1184  C     0.80857   0.17309   0.95988   0.00000  Uiso   1.00
C1185  C     0.77085   0.19207   0.98103   0.00000  Uiso   1.00
C1186  C     0.82798   0.15018   0.98017   0.00000  Uiso   1.00
C1187  C     0.81588   0.15568   0.52224   0.00000  Uiso   1.00
C1188  C     0.77700   0.17395   0.54242   0.00000  Uiso   1.00
C1189  C     0.75539   0.19174   0.52156   0.00000  Uiso   1.00
C1190  C     0.85664   0.11962   0.96038   0.00000  Uiso   1.00
C1191  C     0.88009   0.10342   0.98064   0.00000  Uiso   1.00
C1192  C     0.87397   0.11442   0.52084   0.00000  Uiso   1.00
C1193  C     0.84243   0.14136   0.54211   0.00000  Uiso   1.00
C1194  C     0.89858   0.09786   0.54022   0.00000  Uiso   1.00
C1195  C     0.89252   0.10808   0.58057   0.00000  Uiso   1.00
C1196  C     0.84010   0.15433   0.58208   0.00000  Uiso   1.00
H1197  H     0.72546   0.20478   0.53727   0.00000  Uiso   1.00
H1198  H     0.82113   0.17891   0.59875   0.00000  Uiso   1.00
H1199  H     0.91067   0.09410   0.59549   0.00000  Uiso   1.00
H1200  H     0.90289   0.08141   0.96465   0.00000  Uiso   1.00
H1201  H     0.71861   0.22420   0.97735   0.00000  Uiso   1.00
H1202  H     0.74223   0.22171   0.90582   0.00000  Uiso   1.00
H1203  H     0.92203   0.07649   0.52425   0.00000  Uiso   1.00
C1204  C     0.99354   0.17034   0.73466   0.00000  Uiso   1.00
C1205  C     0.67351   0.15984   0.76421   0.00000  Uiso   1.00
C1206  C     0.84974   0.32316   0.74229   0.00000  Uiso   1.00
C1207  C     0.81600   0.01184   0.76110   0.00000  Uiso   1.00
N1208  N     0.68917   0.17582   0.69620   0.00000  Uiso   1.00
O1209  O     0.67612   0.16213   0.66506   0.00000  Uiso   1.00
O1210  O     0.72617   0.19854   0.69222   0.00000  Uiso   1.00
O1211  O     0.97935   0.16200   0.80247   0.00000  Uiso   1.00
C1212  C     0.98139   0.12790   0.82228   0.00000  Uiso   1.00
H1213  H     0.97485   0.13918   0.85417   0.00000  Uiso   1.00
H1214  H     0.68020   0.11588   0.81345   0.00000  Uiso   1.00
C1215  C     0.94657   0.09229   0.81697   0.00000  Uiso   1.00
H1216  H     0.91435   0.10409   0.82811   0.00000  Uiso   1.00
H1217  H     0.95209   0.08097   0.78515   0.00000  Uiso   1.00
C1218  C     0.94696   0.05580   0.83927   0.00000  Uiso   1.00
H1219  H     0.97840   0.04260   0.82779   0.00000  Uiso   1.00
H1220  H     0.92096   0.03084   0.83532   0.00000  Uiso   1.00
H1221  H     0.94139   0.06633   0.87122   0.00000  Uiso   1.00
N1222  N     0.89183   0.00979   0.72345   0.00000  Uiso   1.00
O1223  O     0.92627   0.32941   0.72621   0.00000  Uiso   1.00
O1224  O     0.89606   0.03780   0.69962   0.00000  Uiso   1.00
O1225  O     0.77446   0.32404   0.77312   0.00000  Uiso   1.00
C1226  C     0.74488   0.01408   0.80286   0.00000  Uiso   1.00
H1227  H     0.71231   0.33016   0.80578   0.00000  Uiso   1.00
H1228  H     0.74278   0.04532   0.79479   0.00000  Uiso   1.00
C1229  C     0.75451   0.01755   0.84280   0.00000  Uiso   1.00
H1230  H     0.75369   0.31896   0.85088   0.00000  Uiso   1.00
H1231  H     0.78714   0.03422   0.84081   0.00000  Uiso   1.00
C1232  C     0.72160   0.04136   0.87497   0.00000  Uiso   1.00
H1233  H     0.72217   0.07353   0.86759   0.00000  Uiso   1.00
H1234  H     0.72959   0.04362   0.90342   0.00000  Uiso   1.00
H1235  H     0.68868   0.02475   0.87836   0.00000  Uiso   1.00
O1236  O     0.86877   0.17420   0.89990   0.00000  Uiso   1.00
C1237  C     0.89602   0.20979   0.90942   0.00000  Uiso   1.00
H1238  H     0.92647   0.19869   0.90999   0.00000  Uiso   1.00
H1239  H     0.88273   0.22673   0.93918   0.00000  Uiso   1.00
C1240  C     0.90665   0.23981   0.87773   0.00000  Uiso   1.00
H1241  H     0.92026   0.22265   0.84835   0.00000  Uiso   1.00
H1242  H     0.87675   0.25211   0.87738   0.00000  Uiso   1.00
C1243  C     0.93904   0.27666   0.88529   0.00000  Uiso   1.00
H1244  H     0.92564   0.29484   0.91415   0.00000  Uiso   1.00
H1245  H     0.94607   0.29765   0.86178   0.00000  Uiso   1.00
H1246  H     0.96966   0.26539   0.88513   0.00000  Uiso   1.00
N1247  N     0.75520   0.16971   0.58298   0.00000  Uiso   1.00
O1248  O     0.74708   0.13297   0.59558   0.00000  Uiso   1.00
O1249  O     0.73787   0.20137   0.60575   0.00000  Uiso   1.00
O1250  O     0.86105   0.10337   0.92152   0.00000  Uiso   1.00
C1251  C     0.82756   0.07097   0.91907   0.00000  Uiso   1.00
H1252  H     0.82420   0.06822   0.88873   0.00000  Uiso   1.00
H1253  H     0.79565   0.07823   0.93939   0.00000  Uiso   1.00
C1254  C     0.83889   0.02898   0.92613   0.00000  Uiso   1.00
H1255  H     0.87277   0.02461   0.90933   0.00000  Uiso   1.00
H1256  H     0.83574   0.02900   0.95796   0.00000  Uiso   1.00
C1257  C     0.80935   0.32545   0.91353   0.00000  Uiso   1.00
H1258  H     0.77502   0.32985   0.92845   0.00000  Uiso   1.00
H1259  H     0.81657   0.29615   0.92169   0.00000  Uiso   1.00
H1260  H     0.81485   0.32222   0.88111   0.00000  Uiso   1.00
Zn1261 Zn    0.19244   0.47423   0.78277   0.00000  Uiso   1.00
Zn1262 Zn    0.13459   0.45711   0.72257   0.00000  Uiso   1.00
Zn1263 Zn    0.21166   0.52997   0.71188   0.00000  Uiso   1.00
Zn1264 Zn    0.12798   0.53868   0.78277   0.00000  Uiso   1.00
O1265  O     0.16667   0.50000   0.75000   0.00000  Uiso   1.00
O1266  O     0.06990   0.52293   0.77820   0.00000  Uiso   1.00
O1267  O     0.25440   0.48610   0.76767   0.00000  Uiso   1.00
O1268  O     0.13800   0.40236   0.73607   0.00000  Uiso   1.00
O1269  O     0.20437   0.58860   0.71805   0.00000  Uiso   1.00
O1270  O     0.15693   0.45726   0.66625   0.00000  Uiso   1.00
O1271  O     0.12687   0.53979   0.83749   0.00000  Uiso   1.00
O1272  O     0.21088   0.50826   0.65877   0.00000  Uiso   1.00
O1273  O     0.17198   0.49468   0.83749   0.00000  Uiso   1.00
O1274  O     0.17849   0.41434   0.77820   0.00000  Uiso   1.00
O1275  O     0.14581   0.59469   0.76767   0.00000  Uiso   1.00
O1276  O     0.07452   0.46584   0.73607   0.00000  Uiso   1.00
O1277  O     0.26785   0.52512   0.71805   0.00000  Uiso   1.00
C1278  C     0.05253   0.49351   0.75908   0.00000  Uiso   1.00
C1279  C     0.28096   0.50604   0.74084   0.00000  Uiso   1.00
C1280  C     0.15527   0.38969   0.75912   0.00000  Uiso   1.00
C1281  C     0.17725   0.61118   0.74216   0.00000  Uiso   1.00
C1282  C     0.18803   0.47871   0.64401   0.00000  Uiso   1.00
C1283  C     0.14572   0.52134   0.85614   0.00000  Uiso   1.00
C1284  C     0.13380   0.52684   0.89941   0.00000  Uiso   1.00
C1285  C     0.19665   0.46971   0.60143   0.00000  Uiso   1.00
C1286  C     0.08141   0.54386   0.96136   0.00000  Uiso   1.00
C1287  C     0.09522   0.54311   0.92066   0.00000  Uiso   1.00
C1288  C     0.15944   0.51278   0.91956   0.00000  Uiso   1.00
C1289  C     0.14191   0.50642   0.95988   0.00000  Uiso   1.00
C1290  C     0.10418   0.52540   0.98103   0.00000  Uiso   1.00
C1291  C     0.16131   0.48351   0.98017   0.00000  Uiso   1.00
C1292  C     0.14921   0.48902   0.52224   0.00000  Uiso   1.00
C1293  C     0.11034   0.50728   0.54242   0.00000  Uiso   1.00
C1294  C     0.08872   0.52508   0.52156   0.00000  Uiso   1.00
C1295  C     0.18997   0.45295   0.96038   0.00000  Uiso   1.00
C1296  C     0.21343   0.43675   0.98064   0.00000  Uiso   1.00
C1297  C     0.20730   0.44775   0.52084   0.00000  Uiso   1.00
C1298  C     0.17576   0.47470   0.54211   0.00000  Uiso   1.00
C1299  C     0.23191   0.43119   0.54022   0.00000  Uiso   1.00
C1300  C     0.22586   0.44141   0.58057   0.00000  Uiso   1.00
C1301  C     0.17344   0.48767   0.58208   0.00000  Uiso   1.00
H1302  H     0.05879   0.53811   0.53727   0.00000  Uiso   1.00
H1303  H     0.15446   0.51225   0.59875   0.00000  Uiso   1.00
H1304  H     0.24400   0.42743   0.59549   0.00000  Uiso   1.00
H1305  H     0.23623   0.41474   0.96465   0.00000  Uiso   1.00
H1306  H     0.05195   0.55753   0.97735   0.00000  Uiso   1.00
H1307  H     0.07556   0.55504   0.90582   0.00000  Uiso   1.00
H1308  H     0.25536   0.40983   0.52425   0.00000  Uiso   1.00
C1309  C     0.32687   0.50367   0.73466   0.00000  Uiso   1.00
C1310  C     0.00685   0.49318   0.76421   0.00000  Uiso   1.00
C1311  C     0.18308   0.65650   0.74229   0.00000  Uiso   1.00
C1312  C     0.14933   0.34517   0.76110   0.00000  Uiso   1.00
N1313  N     0.02250   0.50916   0.69620   0.00000  Uiso   1.00
O1314  O     0.00945   0.49546   0.66506   0.00000  Uiso   1.00
O1315  O     0.05950   0.53187   0.69222   0.00000  Uiso   1.00
O1316  O     0.31269   0.49533   0.80247   0.00000  Uiso   1.00
C1317  C     0.31472   0.46124   0.82228   0.00000  Uiso   1.00
H1318  H     0.30818   0.47252   0.85417   0.00000  Uiso   1.00
H1319  H     0.01353   0.44921   0.81345   0.00000  Uiso   1.00
C1320  C     0.27990   0.42563   0.81697   0.00000  Uiso   1.00
H1321  H     0.24769   0.43742   0.82811   0.00000  Uiso   1.00
H1322  H     0.28542   0.41431   0.78515   0.00000  Uiso   1.00
C1323  C     0.28029   0.38913   0.83927   0.00000  Uiso   1.00
H1324  H     0.31173   0.37593   0.82779   0.00000  Uiso   1.00
H1325  H     0.25429   0.36417   0.83532   0.00000  Uiso   1.00
H1326  H     0.27473   0.39966   0.87122   0.00000  Uiso   1.00
N1327  N     0.22516   0.34312   0.72345   0.00000  Uiso   1.00
O1328  O     0.25960   0.66274   0.72621   0.00000  Uiso   1.00
O1329  O     0.22939   0.37113   0.69962   0.00000  Uiso   1.00
O1330  O     0.10779   0.65737   0.77312   0.00000  Uiso   1.00
C1331  C     0.07822   0.34742   0.80286   0.00000  Uiso   1.00
H1332  H     0.04564   0.66349   0.80578   0.00000  Uiso   1.00
H1333  H     0.07612   0.37865   0.79479   0.00000  Uiso   1.00
C1334  C     0.08785   0.35089   0.84280   0.00000  Uiso   1.00
H1335  H     0.08702   0.65230   0.85088   0.00000  Uiso   1.00
H1336  H     0.12048   0.36755   0.84081   0.00000  Uiso   1.00
C1337  C     0.05494   0.37469   0.87497   0.00000  Uiso   1.00
H1338  H     0.05551   0.40686   0.86759   0.00000  Uiso   1.00
H1339  H     0.06292   0.37695   0.90342   0.00000  Uiso   1.00
H1340  H     0.02202   0.35808   0.87836   0.00000  Uiso   1.00
O1341  O     0.20210   0.50754   0.89990   0.00000  Uiso   1.00
C1342  C     0.22936   0.54312   0.90942   0.00000  Uiso   1.00
H1343  H     0.25980   0.53203   0.90999   0.00000  Uiso   1.00
H1344  H     0.21607   0.56006   0.93918   0.00000  Uiso   1.00
C1345  C     0.23998   0.57314   0.87773   0.00000  Uiso   1.00
H1346  H     0.25359   0.55598   0.84835   0.00000  Uiso   1.00
H1347  H     0.21008   0.58544   0.87738   0.00000  Uiso   1.00
C1348  C     0.27238   0.61000   0.88529   0.00000  Uiso   1.00
H1349  H     0.25898   0.62818   0.91415   0.00000  Uiso   1.00
H1350  H     0.27940   0.63098   0.86178   0.00000  Uiso   1.00
H1351  H     0.30300   0.59872   0.88513   0.00000  Uiso   1.00
N1352  N     0.08853   0.50304   0.58298   0.00000  Uiso   1.00
O1353  O     0.08042   0.46631   0.59558   0.00000  Uiso   1.00
O1354  O     0.07121   0.53470   0.60575   0.00000  Uiso   1.00
O1355  O     0.19438   0.43670   0.92152   0.00000  Uiso   1.00
C1356  C     0.16090   0.40431   0.91907   0.00000  Uiso   1.00
H1357  H     0.15754   0.40155   0.88873   0.00000  Uiso   1.00
H1358  H     0.12898   0.41156   0.93939   0.00000  Uiso   1.00
C1359  C     0.17223   0.36232   0.92613   0.00000  Uiso   1.00
H1360  H     0.20610   0.35794   0.90933   0.00000  Uiso   1.00
H1361  H     0.16907   0.36233   0.95796   0.00000  Uiso   1.00
C1362  C     0.14268   0.65878   0.91353   0.00000  Uiso   1.00
H1363  H     0.10835   0.66319   0.92845   0.00000  Uiso   1.00
H1364  H     0.14990   0.62949   0.92169   0.00000  Uiso   1.00
H1365  H     0.14818   0.65555   0.88111   0.00000  Uiso   1.00
Zn1366 Zn    0.52577   0.47423   0.78277   0.00000  Uiso   1.00
Zn1367 Zn    0.46792   0.45711   0.72257   0.00000  Uiso   1.00
Zn1368 Zn    0.54500   0.52997   0.71188   0.00000  Uiso   1.00
Zn1369 Zn    0.46131   0.53868   0.78277   0.00000  Uiso   1.00
O1370  O     0.50000   0.50000   0.75000   0.00000  Uiso   1.00
O1371  O     0.40323   0.52293   0.77820   0.00000  Uiso   1.00
O1372  O     0.58773   0.48610   0.76767   0.00000  Uiso   1.00
O1373  O     0.47133   0.40236   0.73607   0.00000  Uiso   1.00
O1374  O     0.53771   0.58860   0.71805   0.00000  Uiso   1.00
O1375  O     0.49027   0.45726   0.66625   0.00000  Uiso   1.00
O1376  O     0.46020   0.53979   0.83749   0.00000  Uiso   1.00
O1377  O     0.54421   0.50826   0.65877   0.00000  Uiso   1.00
O1378  O     0.50532   0.49468   0.83749   0.00000  Uiso   1.00
O1379  O     0.51182   0.41434   0.77820   0.00000  Uiso   1.00
O1380  O     0.47914   0.59469   0.76767   0.00000  Uiso   1.00
O1381  O     0.40785   0.46584   0.73607   0.00000  Uiso   1.00
O1382  O     0.60119   0.52512   0.71805   0.00000  Uiso   1.00
C1383  C     0.38586   0.49351   0.75908   0.00000  Uiso   1.00
C1384  C     0.61429   0.50604   0.74084   0.00000  Uiso   1.00
C1385  C     0.48860   0.38969   0.75912   0.00000  Uiso   1.00
C1386  C     0.51058   0.61118   0.74216   0.00000  Uiso   1.00
C1387  C     0.52137   0.47871   0.64401   0.00000  Uiso   1.00
C1388  C     0.47905   0.52134   0.85614   0.00000  Uiso   1.00
C1389  C     0.46713   0.52684   0.89941   0.00000  Uiso   1.00
C1390  C     0.52998   0.46971   0.60143   0.00000  Uiso   1.00
C1391  C     0.41474   0.54386   0.96136   0.00000  Uiso   1.00
C1392  C     0.42855   0.54311   0.92066   0.00000  Uiso   1.00
C1393  C     0.49277   0.51278   0.91956   0.00000  Uiso   1.00
C1394  C     0.47524   0.50642   0.95988   0.00000  Uiso   1.00
C1395  C     0.43752   0.52540   0.98103   0.00000  Uiso   1.00
C1396  C     0.49465   0.48351   0.98017   0.00000  Uiso   1.00
C1397  C     0.48255   0.48902   0.52224   0.00000  Uiso   1.00
C1398  C     0.44367   0.50728   0.54242   0.00000  Uiso   1.00
C1399  C     0.42206   0.52508   0.52156   0.00000  Uiso   1.00
C1400  C     0.52331   0.45295   0.96038   0.00000  Uiso   1.00
C1401  C     0.54676   0.43675   0.98064   0.00000  Uiso   1.00
C1402  C     0.54064   0.44775   0.52084   0.00000  Uiso   1.00
C1403  C     0.50909   0.47470   0.54211   0.00000  Uiso   1.00
C1404  C     0.56524   0.43119   0.54022   0.00000  Uiso   1.00
C1405  C     0.55919   0.44141   0.58057   0.00000  Uiso   1.00
C1406  C     0.50677   0.48767   0.58208   0.00000  Uiso   1.00
H1407  H     0.39212   0.53811   0.53727   0.00000  Uiso   1.00
H1408  H     0.48780   0.51225   0.59875   0.00000  Uiso   1.00
H1409  H     0.57733   0.42743   0.59549   0.00000  Uiso   1.00
H1410  H     0.56956   0.41474   0.96465   0.00000  Uiso   1.00
H1411  H     0.38528   0.55753   0.97735   0.00000  Uiso   1.00
H1412  H     0.40890   0.55504   0.90582   0.00000  Uiso   1.00
H1413  H     0.58869   0.40983   0.52425   0.00000  Uiso   1.00
C1414  C     0.66020   0.50367   0.73466   0.00000  Uiso   1.00
C1415  C     0.34018   0.49318   0.76421   0.00000  Uiso   1.00
C1416  C     0.51641   0.65650   0.74229   0.00000  Uiso   1.00
C1417  C     0.48266   0.34517   0.76110   0.00000  Uiso   1.00
N1418  N     0.35584   0.50916   0.69620   0.00000  Uiso   1.00
O1419  O     0.34279   0.49546   0.66506   0.00000  Uiso   1.00
O1420  O     0.39283   0.53187   0.69222   0.00000  Uiso   1.00
O1421  O     0.64602   0.49533   0.80247   0.00000  Uiso   1.00
C1422  C     0.64806   0.46124   0.82228   0.00000  Uiso   1.00
H1423  H     0.64151   0.47252   0.85417   0.00000  Uiso   1.00
H1424  H     0.34687   0.44921   0.81345   0.00000  Uiso   1.00
C1425  C     0.61323   0.42563   0.81697   0.00000  Uiso   1.00
H1426  H     0.58102   0.43742   0.82811   0.00000  Uiso   1.00
H1427  H     0.61876   0.41431   0.78515   0.00000  Uiso   1.00
C1428  C     0.61362   0.38913   0.83927   0.00000  Uiso   1.00
H1429  H     0.64507   0.37593   0.82779   0.00000  Uiso   1.00
H1430  H     0.58762   0.36417   0.83532   0.00000  Uiso   1.00
H1431  H     0.60806   0.39966   0.87122   0.00000  Uiso   1.00
N1432  N     0.55849   0.34312   0.72345   0.00000  Uiso   1.00
O1433  O     0.59294   0.66274   0.72621   0.00000  Uiso   1.00
O1434  O     0.56273   0.37113   0.69962   0.00000  Uiso   1.00
O1435  O     0.44113   0.65737   0.77312   0.00000  Uiso   1.00
C1436  C     0.41155   0.34742   0.80286   0.00000  Uiso   1.00
H1437  H     0.37897   0.66349   0.80578   0.00000  Uiso   1.00
H1438  H     0.40945   0.37865   0.79479   0.00000  Uiso   1.00
C1439  C     0.42118   0.35089   0.84280   0.00000  Uiso   1.00
H1440  H     0.42036   0.65230   0.85088   0.00000  Uiso   1.00
H1441  H     0.45381   0.36755   0.84081   0.00000  Uiso   1.00
C1442  C     0.38827   0.37469   0.87497   0.00000  Uiso   1.00
H1443  H     0.38884   0.40686   0.86759   0.00000  Uiso   1.00
H1444  H     0.39625   0.37695   0.90342   0.00000  Uiso   1.00
H1445  H     0.35535   0.35808   0.87836   0.00000  Uiso   1.00
O1446  O     0.53544   0.50754   0.89990   0.00000  Uiso   1.00
C1447  C     0.56269   0.54312   0.90942   0.00000  Uiso   1.00
H1448  H     0.59314   0.53203   0.90999   0.00000  Uiso   1.00
H1449  H     0.54940   0.56006   0.93918   0.00000  Uiso   1.00
C1450  C     0.57331   0.57314   0.87773   0.00000  Uiso   1.00
H1451  H     0.58692   0.55598   0.84835   0.00000  Uiso   1.00
H1452  H     0.54341   0.58544   0.87738   0.00000  Uiso   1.00
C1453  C     0.60571   0.61000   0.88529   0.00000  Uiso   1.00
H1454  H     0.59231   0.62818   0.91415   0.00000  Uiso   1.00
H1455  H     0.61273   0.63098   0.86178   0.00000  Uiso   1.00
H1456  H     0.63633   0.59872   0.88513   0.00000  Uiso   1.00
N1457  N     0.42187   0.50304   0.58298   0.00000  Uiso   1.00
O1458  O     0.41375   0.46631   0.59558   0.00000  Uiso   1.00
O1459  O     0.40454   0.53470   0.60575   0.00000  Uiso   1.00
O1460  O     0.52771   0.43670   0.92152   0.00000  Uiso   1.00
C1461  C     0.49423   0.40431   0.91907   0.00000  Uiso   1.00
H1462  H     0.49087   0.40155   0.88873   0.00000  Uiso   1.00
H1463  H     0.46231   0.41156   0.93939   0.00000  Uiso   1.00
C1464  C     0.50556   0.36232   0.92613   0.00000  Uiso   1.00
H1465  H     0.53944   0.35794   0.90933   0.00000  Uiso   1.00
H1466  H     0.50240   0.36233   0.95796   0.00000  Uiso   1.00
C1467  C     0.47601   0.65878   0.91353   0.00000  Uiso   1.00
H1468  H     0.44168   0.66319   0.92845   0.00000  Uiso   1.00
H1469  H     0.48323   0.62949   0.92169   0.00000  Uiso   1.00
H1470  H     0.48152   0.65555   0.88111   0.00000  Uiso   1.00
Zn1471 Zn    0.85910   0.47423   0.78277   0.00000  Uiso   1.00
Zn1472 Zn    0.80125   0.45711   0.72257   0.00000  Uiso   1.00
Zn1473 Zn    0.87833   0.52997   0.71188   0.00000  Uiso   1.00
Zn1474 Zn    0.79465   0.53868   0.78277   0.00000  Uiso   1.00
O1475  O     0.83333   0.50000   0.75000   0.00000  Uiso   1.00
O1476  O     0.73656   0.52293   0.77820   0.00000  Uiso   1.00
O1477  O     0.92106   0.48610   0.76767   0.00000  Uiso   1.00
O1478  O     0.80467   0.40236   0.73607   0.00000  Uiso   1.00
O1479  O     0.87104   0.58860   0.71805   0.00000  Uiso   1.00
O1480  O     0.82360   0.45726   0.66625   0.00000  Uiso   1.00
O1481  O     0.79354   0.53979   0.83749   0.00000  Uiso   1.00
O1482  O     0.87755   0.50826   0.65877   0.00000  Uiso   1.00
O1483  O     0.83865   0.49468   0.83749   0.00000  Uiso   1.00
O1484  O     0.84515   0.41434   0.77820   0.00000  Uiso   1.00
O1485  O     0.81247   0.59469   0.76767   0.00000  Uiso   1.00
O1486  O     0.74119   0.46584   0.73607   0.00000  Uiso   1.00
O1487  O     0.93452   0.52512   0.71805   0.00000  Uiso   1.00
C1488  C     0.71920   0.49351   0.75908   0.00000  Uiso   1.00
C1489  C     0.94762   0.50604   0.74084   0.00000  Uiso   1.00
C1490  C     0.82193   0.38969   0.75912   0.00000  Uiso   1.00
C1491  C     0.84392   0.61118   0.74216   0.00000  Uiso   1.00
C1492  C     0.85470   0.47871   0.64401   0.00000  Uiso   1.00
C1493  C     0.81239   0.52134   0.85614   0.00000  Uiso   1.00
C1494  C     0.80047   0.52684   0.89941   0.00000  Uiso   1.00
C1495  C     0.86331   0.46971   0.60143   0.00000  Uiso   1.00
C1496  C     0.74807   0.54386   0.96136   0.00000  Uiso   1.00
C1497  C     0.76188   0.54311   0.92066   0.00000  Uiso   1.00
C1498  C     0.82610   0.51278   0.91956   0.00000  Uiso   1.00
C1499  C     0.80857   0.50642   0.95988   0.00000  Uiso   1.00
C1500  C     0.77085   0.52540   0.98103   0.00000  Uiso   1.00
C1501  C     0.82798   0.48351   0.98017   0.00000  Uiso   1.00
C1502  C     0.81588   0.48902   0.52224   0.00000  Uiso   1.00
C1503  C     0.77700   0.50728   0.54242   0.00000  Uiso   1.00
C1504  C     0.75539   0.52508   0.52156   0.00000  Uiso   1.00
C1505  C     0.85664   0.45295   0.96038   0.00000  Uiso   1.00
C1506  C     0.88009   0.43675   0.98064   0.00000  Uiso   1.00
C1507  C     0.87397   0.44775   0.52084   0.00000  Uiso   1.00
C1508  C     0.84243   0.47470   0.54211   0.00000  Uiso   1.00
C1509  C     0.89858   0.43119   0.54022   0.00000  Uiso   1.00
C1510  C     0.89252   0.44141   0.58057   0.00000  Uiso   1.00
C1511  C     0.84010   0.48767   0.58208   0.00000  Uiso   1.00
H1512  H     0.72546   0.53811   0.53727   0.00000  Uiso   1.00
H1513  H     0.82113   0.51225   0.59875   0.00000  Uiso   1.00
H1514  H     0.91067   0.42743   0.59549   0.00000  Uiso   1.00
H1515  H     0.90289   0.41474   0.96465   0.00000  Uiso   1.00
H1516  H     0.71861   0.55753   0.97735   0.00000  Uiso   1.00
H1517  H     0.74223   0.55504   0.90582   0.00000  Uiso   1.00
H1518  H     0.92203   0.40983   0.52425   0.00000  Uiso   1.00
C1519  C     0.99354   0.50367   0.73466   0.00000  Uiso   1.00
C1520  C     0.67351   0.49318   0.76421   0.00000  Uiso   1.00
C1521  C     0.84974   0.65650   0.74229   0.00000  Uiso   1.00
C1522  C     0.81600   0.34517   0.76110   0.00000  Uiso   1.00
N1523  N     0.68917   0.50916   0.69620   0.00000  Uiso   1.00
O1524  O     0.67612   0.49546   0.66506   0.00000  Uiso   1.00
O1525  O     0.72617   0.53187   0.69222   0.00000  Uiso   1.00
O1526  O     0.97935   0.49533   0.80247   0.00000  Uiso   1.00
C1527  C     0.98139   0.46124   0.82228   0.00000  Uiso   1.00
H1528  H     0.97485   0.47252   0.85417   0.00000  Uiso   1.00
H1529  H     0.68020   0.44921   0.81345   0.00000  Uiso   1.00
C1530  C     0.94657   0.42563   0.81697   0.00000  Uiso   1.00
H1531  H     0.91435   0.43742   0.82811   0.00000  Uiso   1.00
H1532  H     0.95209   0.41431   0.78515   0.00000  Uiso   1.00
C1533  C     0.94696   0.38913   0.83927   0.00000  Uiso   1.00
H1534  H     0.97840   0.37593   0.82779   0.00000  Uiso   1.00
H1535  H     0.92096   0.36417   0.83532   0.00000  Uiso   1.00
H1536  H     0.94139   0.39966   0.87122   0.00000  Uiso   1.00
N1537  N     0.89183   0.34312   0.72345   0.00000  Uiso   1.00
O1538  O     0.92627   0.66274   0.72621   0.00000  Uiso   1.00
O1539  O     0.89606   0.37113   0.69962   0.00000  Uiso   1.00
O1540  O     0.77446   0.65737   0.77312   0.00000  Uiso   1.00
C1541  C     0.74488   0.34742   0.80286   0.00000  Uiso   1.00
H1542  H     0.71231   0.66349   0.80578   0.00000  Uiso   1.00
H1543  H     0.74278   0.37865   0.79479   0.00000  Uiso   1.00
C1544  C     0.75451   0.35089   0.84280   0.00000  Uiso   1.00
H1545  H     0.75369   0.65230   0.85088   0.00000  Uiso   1.00
H1546  H     0.78714   0.36755   0.84081   0.00000  Uiso   1.00
C1547  C     0.72160   0.37469   0.87497   0.00000  Uiso   1.00
H1548  H     0.72217   0.40686   0.86759   0.00000  Uiso   1.00
H1549  H     0.72959   0.37695   0.90342   0.00000  Uiso   1.00
H1550  H     0.68868   0.35808   0.87836   0.00000  Uiso   1.00
O1551  O     0.86877   0.50754   0.89990   0.00000  Uiso   1.00
C1552  C     0.89602   0.54312   0.90942   0.00000  Uiso   1.00
H1553  H     0.92647   0.53203   0.90999   0.00000  Uiso   1.00
H1554  H     0.88273   0.56006   0.93918   0.00000  Uiso   1.00
C1555  C     0.90665   0.57314   0.87773   0.00000  Uiso   1.00
H1556  H     0.92026   0.55598   0.84835   0.00000  Uiso   1.00
H1557  H     0.87675   0.58544   0.87738   0.00000  Uiso   1.00
C1558  C     0.93904   0.61000   0.88529   0.00000  Uiso   1.00
H1559  H     0.92564   0.62818   0.91415   0.00000  Uiso   1.00
H1560  H     0.94607   0.63098   0.86178   0.00000  Uiso   1.00
H1561  H     0.96966   0.59872   0.88513   0.00000  Uiso   1.00
N1562  N     0.75520   0.50304   0.58298   0.00000  Uiso   1.00
O1563  O     0.74708   0.46631   0.59558   0.00000  Uiso   1.00
O1564  O     0.73787   0.53470   0.60575   0.00000  Uiso   1.00
O1565  O     0.86105   0.43670   0.92152   0.00000  Uiso   1.00
C1566  C     0.82756   0.40431   0.91907   0.00000  Uiso   1.00
H1567  H     0.82420   0.40155   0.88873   0.00000  Uiso   1.00
H1568  H     0.79565   0.41156   0.93939   0.00000  Uiso   1.00
C1569  C     0.83889   0.36232   0.92613   0.00000  Uiso   1.00
H1570  H     0.87277   0.35794   0.90933   0.00000  Uiso   1.00
H1571  H     0.83574   0.36233   0.95796   0.00000  Uiso   1.00
C1572  C     0.80935   0.65878   0.91353   0.00000  Uiso   1.00
H1573  H     0.77502   0.66319   0.92845   0.00000  Uiso   1.00
H1574  H     0.81657   0.62949   0.92169   0.00000  Uiso   1.00
H1575  H     0.81485   0.65555   0.88111   0.00000  Uiso   1.00
Zn1576 Zn    0.19244   0.80756   0.78277   0.00000  Uiso   1.00
Zn1577 Zn    0.13459   0.79044   0.72257   0.00000  Uiso   1.00
Zn1578 Zn    0.21166   0.86331   0.71188   0.00000  Uiso   1.00
Zn1579 Zn    0.12798   0.87202   0.78277   0.00000  Uiso   1.00
O1580  O     0.16667   0.83333   0.75000   0.00000  Uiso   1.00
O1581  O     0.06990   0.85627   0.77820   0.00000  Uiso   1.00
O1582  O     0.25440   0.81944   0.76767   0.00000  Uiso   1.00
O1583  O     0.13800   0.73570   0.73607   0.00000  Uiso   1.00
O1584  O     0.20437   0.92193   0.71805   0.00000  Uiso   1.00
O1585  O     0.15693   0.79060   0.66625   0.00000  Uiso   1.00
O1586  O     0.12687   0.87313   0.83749   0.00000  Uiso   1.00
O1587  O     0.21088   0.84159   0.65877   0.00000  Uiso   1.00
O1588  O     0.17198   0.82802   0.83749   0.00000  Uiso   1.00
O1589  O     0.17849   0.74768   0.77820   0.00000  Uiso   1.00
O1590  O     0.14581   0.92803   0.76767   0.00000  Uiso   1.00
O1591  O     0.07452   0.79917   0.73607   0.00000  Uiso   1.00
O1592  O     0.26785   0.85845   0.71805   0.00000  Uiso   1.00
C1593  C     0.05253   0.82685   0.75908   0.00000  Uiso   1.00
C1594  C     0.28096   0.83937   0.74084   0.00000  Uiso   1.00
C1595  C     0.15527   0.72302   0.75912   0.00000  Uiso   1.00
C1596  C     0.17725   0.94451   0.74216   0.00000  Uiso   1.00
C1597  C     0.18803   0.81204   0.64401   0.00000  Uiso   1.00
C1598  C     0.14572   0.85467   0.85614   0.00000  Uiso   1.00
C1599  C     0.13380   0.86017   0.89941   0.00000  Uiso   1.00
C1600  C     0.19665   0.80304   0.60143   0.00000  Uiso   1.00
C1601  C     0.08141   0.87719   0.96136   0.00000  Uiso   1.00
C1602  C     0.09522   0.87644   0.92066   0.00000  Uiso   1.00
C1603  C     0.15944   0.84611   0.91956   0.00000  Uiso   1.00
C1604  C     0.14191   0.83975   0.95988   0.00000  Uiso   1.00
C1605  C     0.10418   0.85873   0.98103   0.00000  Uiso   1.00
C1606  C     0.16131   0.81684   0.98017   0.00000  Uiso   1.00
C1607  C     0.14921   0.82235   0.52224   0.00000  Uiso   1.00
C1608  C     0.11034   0.84061   0.54242   0.00000  Uiso   1.00
C1609  C     0.08872   0.85841   0.52156   0.00000  Uiso   1.00
C1610  C     0.18997   0.78628   0.96038   0.00000  Uiso   1.00
C1611  C     0.21343   0.77008   0.98064   0.00000  Uiso   1.00
C1612  C     0.20730   0.78108   0.52084   0.00000  Uiso   1.00
C1613  C     0.17576   0.80803   0.54211   0.00000  Uiso   1.00
C1614  C     0.23191   0.76452   0.54022   0.00000  Uiso   1.00
C1615  C     0.22586   0.77475   0.58057   0.00000  Uiso   1.00
C1616  C     0.17344   0.82100   0.58208   0.00000  Uiso   1.00
H1617  H     0.05879   0.87144   0.53727   0.00000  Uiso   1.00
H1618  H     0.15446   0.84558   0.59875   0.00000  Uiso   1.00
H1619  H     0.24400   0.76076   0.59549   0.00000  Uiso   1.00
H1620  H     0.23623   0.74807   0.96465   0.00000  Uiso   1.00
H1621  H     0.05195   0.89086   0.97735   0.00000  Uiso   1.00
H1622  H     0.07556   0.88838   0.90582   0.00000  Uiso   1.00
H1623  H     0.25536   0.74316   0.52425   0.00000  Uiso   1.00
C1624  C     0.32687   0.83700   0.73466   0.00000  Uiso   1.00
C1625  C     0.00685   0.82651   0.76421   0.00000  Uiso   1.00
C1626  C     0.18308   0.98983   0.74229   0.00000  Uiso   1.00
C1627  C     0.14933   0.67850   0.76110   0.00000  Uiso   1.00
N1628  N     0.02250   0.84249   0.69620   0.00000  Uiso   1.00
O1629  O     0.00945   0.82880   0.66506   0.00000  Uiso   1.00
O1630  O     0.05950   0.86521   0.69222   0.00000  Uiso   1.00
O1631  O     0.31269   0.82867   0.80247   0.00000  Uiso   1.00
C1632  C     0.31472   0.79457   0.82228   0.00000  Uiso   1.00
H1633  H     0.30818   0.80585   0.85417   0.00000  Uiso   1.00
H1634  H     0.01353   0.78254   0.81345   0.00000  Uiso   1.00
C1635  C     0.27990   0.75896   0.81697   0.00000  Uiso   1.00
H1636  H     0.24769   0.77075   0.82811   0.00000  Uiso   1.00
H1637  H     0.28542   0.74764   0.78515   0.00000  Uiso   1.00
C1638  C     0.28029   0.72247   0.83927   0.00000  Uiso   1.00
H1639  H     0.31173   0.70926   0.82779   0.00000  Uiso   1.00
H1640  H     0.25429   0.69751   0.83532   0.00000  Uiso   1.00
H1641  H     0.27473   0.73299   0.87122   0.00000  Uiso   1.00
N1642  N     0.22516   0.67645   0.72345   0.00000  Uiso   1.00
O1643  O     0.25960   0.99607   0.72621   0.00000  Uiso   1.00
O1644  O     0.22939   0.70447   0.69962   0.00000  Uiso   1.00
O1645  O     0.10779   0.99071   0.77312   0.00000  Uiso   1.00
C1646  C     0.07822   0.68075   0.80286   0.00000  Uiso   1.00
H1647  H     0.04564   0.99682   0.80578   0.00000  Uiso   1.00
H1648  H     0.07612   0.71198   0.79479   0.00000  Uiso   1.00
C1649  C     0.08785   0.68422   0.84280   0.00000  Uiso   1.00
H1650  H     0.08702   0.98563   0.85088   0.00000  Uiso   1.00
H1651  H     0.12048   0.70088   0.84081   0.00000  Uiso   1.00
C1652  C     0.05494   0.70803   0.87497   0.00000  Uiso   1.00
H1653  H     0.05551   0.74019   0.86759   0.00000  Uiso   1.00
H1654  H     0.06292   0.71028   0.90342   0.00000  Uiso   1.00
H1655  H     0.02202   0.69142   0.87836   0.00000  Uiso   1.00
O1656  O     0.20210   0.84087   0.89990   0.00000  Uiso   1.00
C1657  C     0.22936   0.87646   0.90942   0.00000  Uiso   1.00
H1658  H     0.25980   0.86536   0.90999   0.00000  Uiso   1.00
H1659  H     0.21607   0.89340   0.93918   0.00000  Uiso   1.00
C1660  C     0.23998   0.90647   0.87773   0.00000  Uiso   1.00
H1661  H     0.25359   0.88931   0.84835   0.00000  Uiso   1.00
H1662  H     0.21008   0.91878   0.87738   0.00000  Uiso   1.00
C1663  C     0.27238   0.94333   0.88529   0.00000  Uiso   1.00
H1664  H     0.25898   0.96151   0.91415   0.00000  Uiso   1.00
H1665  H     0.27940   0.96432   0.86178   0.00000  Uiso   1.00
H1666  H     0.30300   0.93205   0.88513   0.00000  Uiso   1.00
N1667  N     0.08853   0.83638   0.58298   0.00000  Uiso   1.00
O1668  O     0.08042   0.79964   0.59558   0.00000  Uiso   1.00
O1669  O     0.07121   0.86803   0.60575   0.00000  Uiso   1.00
O1670  O     0.19438   0.77004   0.92152   0.00000  Uiso   1.00
C1671  C     0.16090   0.73764   0.91907   0.00000  Uiso   1.00
H1672  H     0.15754   0.73488   0.88873   0.00000  Uiso   1.00
H1673  H     0.12898   0.74490   0.93939   0.00000  Uiso   1.00
C1674  C     0.17223   0.69565   0.92613   0.00000  Uiso   1.00
H1675  H     0.20610   0.69128   0.90933   0.00000  Uiso   1.00
H1676  H     0.16907   0.69566   0.95796   0.00000  Uiso   1.00
C1677  C     0.14268   0.99212   0.91353   0.00000  Uiso   1.00
H1678  H     0.10835   0.99652   0.92845   0.00000  Uiso   1.00
H1679  H     0.14990   0.96282   0.92169   0.00000  Uiso   1.00
H1680  H     0.14818   0.98888   0.88111   0.00000  Uiso   1.00
Zn1681 Zn    0.52577   0.80756   0.78277   0.00000  Uiso   1.00
Zn1682 Zn    0.46792   0.79044   0.72257   0.00000  Uiso   1.00
Zn1683 Zn    0.54500   0.86331   0.71188   0.00000  Uiso   1.00
Zn1684 Zn    0.46131   0.87202   0.78277   0.00000  Uiso   1.00
O1685  O     0.50000   0.83333   0.75000   0.00000  Uiso   1.00
O1686  O     0.40323   0.85627   0.77820   0.00000  Uiso   1.00
O1687  O     0.58773   0.81944   0.76767   0.00000  Uiso   1.00
O1688  O     0.47133   0.73570   0.73607   0.00000  Uiso   1.00
O1689  O     0.53771   0.92193   0.71805   0.00000  Uiso   1.00
O1690  O     0.49027   0.79060   0.66625   0.00000  Uiso   1.00
O1691  O     0.46020   0.87313   0.83749   0.00000  Uiso   1.00
O1692  O     0.54421   0.84159   0.65877   0.00000  Uiso   1.00
O1693  O     0.50532   0.82802   0.83749   0.00000  Uiso   1.00
O1694  O     0.51182   0.74768   0.77820   0.00000  Uiso   1.00
O1695  O     0.47914   0.92803   0.76767   0.00000  Uiso   1.00
O1696  O     0.40785   0.79917   0.73607   0.00000  Uiso   1.00
O1697  O     0.60119   0.85845   0.71805   0.00000  Uiso   1.00
C1698  C     0.38586   0.82685   0.75908   0.00000  Uiso   1.00
C1699  C     0.61429   0.83937   0.74084   0.00000  Uiso   1.00
C1700  C     0.48860   0.72302   0.75912   0.00000  Uiso   1.00
C1701  C     0.51058   0.94451   0.74216   0.00000  Uiso   1.00
C1702  C     0.52137   0.81204   0.64401   0.00000  Uiso   1.00
C1703  C     0.47905   0.85467   0.85614   0.00000  Uiso   1.00
C1704  C     0.46713   0.86017   0.89941   0.00000  Uiso   1.00
C1705  C     0.52998   0.80304   0.60143   0.00000  Uiso   1.00
C1706  C     0.41474   0.87719   0.96136   0.00000  Uiso   1.00
C1707  C     0.42855   0.87644   0.92066   0.00000  Uiso   1.00
C1708  C     0.49277   0.84611   0.91956   0.00000  Uiso   1.00
C1709  C     0.47524   0.83975   0.95988   0.00000  Uiso   1.00
C1710  C     0.43752   0.85873   0.98103   0.00000  Uiso   1.00
C1711  C     0.49465   0.81684   0.98017   0.00000  Uiso   1.00
C1712  C     0.48255   0.82235   0.52224   0.00000  Uiso   1.00
C1713  C     0.44367   0.84061   0.54242   0.00000  Uiso   1.00
C1714  C     0.42206   0.85841   0.52156   0.00000  Uiso   1.00
C1715  C     0.52331   0.78628   0.96038   0.00000  Uiso   1.00
C1716  C     0.54676   0.77008   0.98064   0.00000  Uiso   1.00
C1717  C     0.54064   0.78108   0.52084   0.00000  Uiso   1.00
C1718  C     0.50909   0.80803   0.54211   0.00000  Uiso   1.00
C1719  C     0.56524   0.76452   0.54022   0.00000  Uiso   1.00
C1720  C     0.55919   0.77475   0.58057   0.00000  Uiso   1.00
C1721  C     0.50677   0.82100   0.58208   0.00000  Uiso   1.00
H1722  H     0.39212   0.87144   0.53727   0.00000  Uiso   1.00
H1723  H     0.48780   0.84558   0.59875   0.00000  Uiso   1.00
H1724  H     0.57733   0.76076   0.59549   0.00000  Uiso   1.00
H1725  H     0.56956   0.74807   0.96465   0.00000  Uiso   1.00
H1726  H     0.38528   0.89086   0.97735   0.00000  Uiso   1.00
H1727  H     0.40890   0.88838   0.90582   0.00000  Uiso   1.00
H1728  H     0.58869   0.74316   0.52425   0.00000  Uiso   1.00
C1729  C     0.66020   0.83700   0.73466   0.00000  Uiso   1.00
C1730  C     0.34018   0.82651   0.76421   0.00000  Uiso   1.00
C1731  C     0.51641   0.98983   0.74229   0.00000  Uiso   1.00
C1732  C     0.48266   0.67850   0.76110   0.00000  Uiso   1.00
N1733  N     0.35584   0.84249   0.69620   0.00000  Uiso   1.00
O1734  O     0.34279   0.82880   0.66506   0.00000  Uiso   1.00
O1735  O     0.39283   0.86521   0.69222   0.00000  Uiso   1.00
O1736  O     0.64602   0.82867   0.80247   0.00000  Uiso   1.00
C1737  C     0.64806   0.79457   0.82228   0.00000  Uiso   1.00
H1738  H     0.64151   0.80585   0.85417   0.00000  Uiso   1.00
H1739  H     0.34687   0.78254   0.81345   0.00000  Uiso   1.00
C1740  C     0.61323   0.75896   0.81697   0.00000  Uiso   1.00
H1741  H     0.58102   0.77075   0.82811   0.00000  Uiso   1.00
H1742  H     0.61876   0.74764   0.78515   0.00000  Uiso   1.00
C1743  C     0.61362   0.72247   0.83927   0.00000  Uiso   1.00
H1744  H     0.64507   0.70926   0.82779   0.00000  Uiso   1.00
H1745  H     0.58762   0.69751   0.83532   0.00000  Uiso   1.00
H1746  H     0.60806   0.73299   0.87122   0.00000  Uiso   1.00
N1747  N     0.55849   0.67645   0.72345   0.00000  Uiso   1.00
O1748  O     0.59294   0.99607   0.72621   0.00000  Uiso   1.00
O1749  O     0.56273   0.70447   0.69962   0.00000  Uiso   1.00
O1750  O     0.44113   0.99071   0.77312   0.00000  Uiso   1.00
C1751  C     0.41155   0.68075   0.80286   0.00000  Uiso   1.00
H1752  H     0.37897   0.99682   0.80578   0.00000  Uiso   1.00
H1753  H     0.40945   0.71198   0.79479   0.00000  Uiso   1.00
C1754  C     0.42118   0.68422   0.84280   0.00000  Uiso   1.00
H1755  H     0.42036   0.98563   0.85088   0.00000  Uiso   1.00
H1756  H     0.45381   0.70088   0.84081   0.00000  Uiso   1.00
C1757  C     0.38827   0.70803   0.87497   0.00000  Uiso   1.00
H1758  H     0.38884   0.74019   0.86759   0.00000  Uiso   1.00
H1759  H     0.39625   0.71028   0.90342   0.00000  Uiso   1.00
H1760  H     0.35535   0.69142   0.87836   0.00000  Uiso   1.00
O1761  O     0.53544   0.84087   0.89990   0.00000  Uiso   1.00
C1762  C     0.56269   0.87646   0.90942   0.00000  Uiso   1.00
H1763  H     0.59314   0.86536   0.90999   0.00000  Uiso   1.00
H1764  H     0.54940   0.89340   0.93918   0.00000  Uiso   1.00
C1765  C     0.57331   0.90647   0.87773   0.00000  Uiso   1.00
H1766  H     0.58692   0.88931   0.84835   0.00000  Uiso   1.00
H1767  H     0.54341   0.91878   0.87738   0.00000  Uiso   1.00
C1768  C     0.60571   0.94333   0.88529   0.00000  Uiso   1.00
H1769  H     0.59231   0.96151   0.91415   0.00000  Uiso   1.00
H1770  H     0.61273   0.96432   0.86178   0.00000  Uiso   1.00
H1771  H     0.63633   0.93205   0.88513   0.00000  Uiso   1.00
N1772  N     0.42187   0.83638   0.58298   0.00000  Uiso   1.00
O1773  O     0.41375   0.79964   0.59558   0.00000  Uiso   1.00
O1774  O     0.40454   0.86803   0.60575   0.00000  Uiso   1.00
O1775  O     0.52771   0.77004   0.92152   0.00000  Uiso   1.00
C1776  C     0.49423   0.73764   0.91907   0.00000  Uiso   1.00
H1777  H     0.49087   0.73488   0.88873   0.00000  Uiso   1.00
H1778  H     0.46231   0.74490   0.93939   0.00000  Uiso   1.00
C1779  C     0.50556   0.69565   0.92613   0.00000  Uiso   1.00
H1780  H     0.53944   0.69128   0.90933   0.00000  Uiso   1.00
H1781  H     0.50240   0.69566   0.95796   0.00000  Uiso   1.00
C1782  C     0.47601   0.99212   0.91353   0.00000  Uiso   1.00
H1783  H     0.44168   0.99652   0.92845   0.00000  Uiso   1.00
H1784  H     0.48323   0.96282   0.92169   0.00000  Uiso   1.00
H1785  H     0.48152   0.98888   0.88111   0.00000  Uiso   1.00
Zn1786 Zn    0.85910   0.80756   0.78277   0.00000  Uiso   1.00
Zn1787 Zn    0.80125   0.79044   0.72257   0.00000  Uiso   1.00
Zn1788 Zn    0.87833   0.86331   0.71188   0.00000  Uiso   1.00
Zn1789 Zn    0.79465   0.87202   0.78277   0.00000  Uiso   1.00
O1790  O     0.83333   0.83333   0.75000   0.00000  Uiso   1.00
O1791  O     0.73656   0.85627   0.77820   0.00000  Uiso   1.00
O1792  O     0.92106   0.81944   0.76767   0.00000  Uiso   1.00
O1793  O     0.80467   0.73570   0.73607   0.00000  Uiso   1.00
O1794  O     0.87104   0.92193   0.71805   0.00000  Uiso   1.00
O1795  O     0.82360   0.79060   0.66625   0.00000  Uiso   1.00
O1796  O     0.79354   0.87313   0.83749   0.00000  Uiso   1.00
O1797  O     0.87755   0.84159   0.65877   0.00000  Uiso   1.00
O1798  O     0.83865   0.82802   0.83749   0.00000  Uiso   1.00
O1799  O     0.84515   0.74768   0.77820   0.00000  Uiso   1.00
O1800  O     0.81247   0.92803   0.76767   0.00000  Uiso   1.00
O1801  O     0.74119   0.79917   0.73607   0.00000  Uiso   1.00
O1802  O     0.93452   0.85845   0.71805   0.00000  Uiso   1.00
C1803  C     0.71920   0.82685   0.75908   0.00000  Uiso   1.00
C1804  C     0.94762   0.83937   0.74084   0.00000  Uiso   1.00
C1805  C     0.82193   0.72302   0.75912   0.00000  Uiso   1.00
C1806  C     0.84392   0.94451   0.74216   0.00000  Uiso   1.00
C1807  C     0.85470   0.81204   0.64401   0.00000  Uiso   1.00
C1808  C     0.81239   0.85467   0.85614   0.00000  Uiso   1.00
C1809  C     0.80047   0.86017   0.89941   0.00000  Uiso   1.00
C1810  C     0.86331   0.80304   0.60143   0.00000  Uiso   1.00
C1811  C     0.74807   0.87719   0.96136   0.00000  Uiso   1.00
C1812  C     0.76188   0.87644   0.92066   0.00000  Uiso   1.00
C1813  C     0.82610   0.84611   0.91956   0.00000  Uiso   1.00
C1814  C     0.80857   0.83975   0.95988   0.00000  Uiso   1.00
C1815  C     0.77085   0.85873   0.98103   0.00000  Uiso   1.00
C1816  C     0.82798   0.81684   0.98017   0.00000  Uiso   1.00
C1817  C     0.81588   0.82235   0.52224   0.00000  Uiso   1.00
C1818  C     0.77700   0.84061   0.54242   0.00000  Uiso   1.00
C1819  C     0.75539   0.85841   0.52156   0.00000  Uiso   1.00
C1820  C     0.85664   0.78628   0.96038   0.00000  Uiso   1.00
C1821  C     0.88009   0.77008   0.98064   0.00000  Uiso   1.00
C1822  C     0.87397   0.78108   0.52084   0.00000  Uiso   1.00
C1823  C     0.84243   0.80803   0.54211   0.00000  Uiso   1.00
C1824  C     0.89858   0.76452   0.54022   0.00000  Uiso   1.00
C1825  C     0.89252   0.77475   0.58057   0.00000  Uiso   1.00
C1826  C     0.84010   0.82100   0.58208   0.00000  Uiso   1.00
H1827  H     0.72546   0.87144   0.53727   0.00000  Uiso   1.00
H1828  H     0.82113   0.84558   0.59875   0.00000  Uiso   1.00
H1829  H     0.91067   0.76076   0.59549   0.00000  Uiso   1.00
H1830  H     0.90289   0.74807   0.96465   0.00000  Uiso   1.00
H1831  H     0.71861   0.89086   0.97735   0.00000  Uiso   1.00
H1832  H     0.74223   0.88838   0.90582   0.00000  Uiso   1.00
H1833  H     0.92203   0.74316   0.52425   0.00000  Uiso   1.00
C1834  C     0.99354   0.83700   0.73466   0.00000  Uiso   1.00
C1835  C     0.67351   0.82651   0.76421   0.00000  Uiso   1.00
C1836  C     0.84974   0.98983   0.74229   0.00000  Uiso   1.00
C1837  C     0.81600   0.67850   0.76110   0.00000  Uiso   1.00
N1838  N     0.68917   0.84249   0.69620   0.00000  Uiso   1.00
O1839  O     0.67612   0.82880   0.66506   0.00000  Uiso   1.00
O1840  O     0.72617   0.86521   0.69222   0.00000  Uiso   1.00
O1841  O     0.97935   0.82867   0.80247   0.00000  Uiso   1.00
C1842  C     0.98139   0.79457   0.82228   0.00000  Uiso   1.00
H1843  H     0.97485   0.80585   0.85417   0.00000  Uiso   1.00
H1844  H     0.68020   0.78254   0.81345   0.00000  Uiso   1.00
C1845  C     0.94657   0.75896   0.81697   0.00000  Uiso   1.00
H1846  H     0.91435   0.77075   0.82811   0.00000  Uiso   1.00
H1847  H     0.95209   0.74764   0.78515   0.00000  Uiso   1.00
C1848  C     0.94696   0.72247   0.83927   0.00000  Uiso   1.00
H1849  H     0.97840   0.70926   0.82779   0.00000  Uiso   1.00
H1850  H     0.92096   0.69751   0.83532   0.00000  Uiso   1.00
H1851  H     0.94139   0.73299   0.87122   0.00000  Uiso   1.00
N1852  N     0.89183   0.67645   0.72345   0.00000  Uiso   1.00
O1853  O     0.92627   0.99607   0.72621   0.00000  Uiso   1.00
O1854  O     0.89606   0.70447   0.69962   0.00000  Uiso   1.00
O1855  O     0.77446   0.99071   0.77312   0.00000  Uiso   1.00
C1856  C     0.74488   0.68075   0.80286   0.00000  Uiso   1.00
H1857  H     0.71231   0.99682   0.80578   0.00000  Uiso   1.00
H1858  H     0.74278   0.71198   0.79479   0.00000  Uiso   1.00
C1859  C     0.75451   0.68422   0.84280   0.00000  Uiso   1.00
H1860  H     0.75369   0.98563   0.85088   0.00000  Uiso   1.00
H1861  H     0.78714   0.70088   0.84081   0.00000  Uiso   1.00
C1862  C     0.72160   0.70803   0.87497   0.00000  Uiso   1.00
H1863  H     0.72217   0.74019   0.86759   0.00000  Uiso   1.00
H1864  H     0.72959   0.71028   0.90342   0.00000  Uiso   1.00
H1865  H     0.68868   0.69142   0.87836   0.00000  Uiso   1.00
O1866  O     0.86877   0.84087   0.89990   0.00000  Uiso   1.00
C1867  C     0.89602   0.87646   0.90942   0.00000  Uiso   1.00
H1868  H     0.92647   0.86536   0.90999   0.00000  Uiso   1.00
H1869  H     0.88273   0.89340   0.93918   0.00000  Uiso   1.00
C1870  C     0.90665   0.90647   0.87773   0.00000  Uiso   1.00
H1871  H     0.92026   0.88931   0.84835   0.00000  Uiso   1.00
H1872  H     0.87675   0.91878   0.87738   0.00000  Uiso   1.00
C1873  C     0.93904   0.94333   0.88529   0.00000  Uiso   1.00
H1874  H     0.92564   0.96151   0.91415   0.00000  Uiso   1.00
H1875  H     0.94607   0.96432   0.86178   0.00000  Uiso   1.00
H1876  H     0.96966   0.93205   0.88513   0.00000  Uiso   1.00
N1877  N     0.75520   0.83638   0.58298   0.00000  Uiso   1.00
O1878  O     0.74708   0.79964   0.59558   0.00000  Uiso   1.00
O1879  O     0.73787   0.86803   0.60575   0.00000  Uiso   1.00
O1880  O     0.86105   0.77004   0.92152   0.00000  Uiso   1.00
C1881  C     0.82756   0.73764   0.91907   0.00000  Uiso   1.00
H1882  H     0.82420   0.73488   0.88873   0.00000  Uiso   1.00
H1883  H     0.79565   0.74490   0.93939   0.00000  Uiso   1.00
C1884  C     0.83889   0.69565   0.92613   0.00000  Uiso   1.00
H1885  H     0.87277   0.69128   0.90933   0.00000  Uiso   1.00
H1886  H     0.83574   0.69566   0.95796   0.00000  Uiso   1.00
C1887  C     0.80935   0.99212   0.91353   0.00000  Uiso   1.00
H1888  H     0.77502   0.99652   0.92845   0.00000  Uiso   1.00
H1889  H     0.81657   0.96282   0.92169   0.00000  Uiso   1.00
H1890  H     0.81485   0.98888   0.88111   0.00000  Uiso   1.00
loop_
_geom_bond_atom_site_label_1
_geom_bond_atom_site_label_2
_geom_bond_distance
_geom_bond_site_symmetry_2
_ccdc_geom_bond_type
Zn1    O5      1.961   .     S
Zn1    O13     1.921   .     S
Zn1    O7      1.930   .     S
Zn1    O14     1.927   .     S
Zn2    O16     1.929   .     S
Zn2    O5      1.942   .     S
Zn2    O10     1.929   .     S
Zn2    O8      1.936   .     S
Zn3    O12     1.930   .     S
Zn3    O9      1.926   .     S
Zn3    O5      1.940   .     S
Zn3    O17     1.940   .     S
Zn4    O6      1.938   .     S
Zn4    O11     1.939   .     S
Zn4    O5      1.925   .     S
Zn4    O15     1.934   .     S
O6     C18     1.256   .     A
O7     C19     1.274   .     A
O8     C20     1.266   .     A
O9     C21     1.272   .     A
O10    C22     1.278   .     A
O11    C23     1.283   .     A
O12    C22     1.276   .     A
O13    C23     1.280   .     A
O14    C20     1.283   .     A
O15    C21     1.268   .     A
O16    C18     1.274   .     A
O17    C19     1.287   .     A
C18    C50     1.446   .     S
C19    C49     1.461   .     S
C20    C52     1.441   .     S
C21    C51     1.457   .     S
C22    C25     1.456   .     S
C23    C24     1.469   .     S
C24    C27     1.399   .     A
C24    C28     1.409   .     A
C25    C40     1.395   .     A
C25    C41     1.394   .     A
C26    C27     1.388   .     A
C26    C30     1.401   .     A
C26    H46     1.084   .     S
C27    H47     1.083   .     S
C28    C29     1.420   .     A
C28    O81     1.386   .     S
C29    C30     1.416   .     A
C29    C31     1.429   .     A
C30    C979    1.388   .     S
C31    C35     1.427   .     A
C31    C977    1.428   .     S
C32    C38     1.429   .     A
C32    C33     1.428   .     A
C32    C976    1.428   1_554 S
C33    N92     1.432   .     S
C33    C34     1.392   .     A
C34    H42     1.085   .     S
C34    C975    1.388   1_554 S
C35    C36     1.392   .     A
C35    O95     1.384   .     S
C36    H45     1.085   .     S
C36    C982    1.390   .     S
C37    C38     1.418   .     A
C37    C39     1.404   .     A
C37    C981    1.390   1_554 S
C38    C41     1.411   .     A
C39    C40     1.392   .     A
C39    H48     1.084   .     S
C40    H44     1.083   .     S
C41    H43     1.079   .     S
C49    C155    1.355   .     S
C49    N158    1.441   .     S
C50    C259    1.355   1_455 S
C50    O266    1.396   1_455 S
C51    C367    1.352   .     S
C51    N382    1.445   .     S
C52    C681    1.352   1_545 S
C52    O700    1.403   1_545 S
N53    O55     1.302   .     A
N53    O54     1.301   .     A
N53    C259    1.441   1_455 S
O56    C57     1.418   .     S
O56    C155    1.396   .     S
C57    C60     1.532   .     S
C57    H58     1.111   .     S
C57    H164    1.114   .     S
H59    C267    1.114   1_455 S
C60    C63     1.526   .     S
C60    H62     1.112   .     S
C60    H61     1.112   .     S
C63    H65     1.111   .     S
C63    H66     1.111   .     S
C63    H64     1.111   .     S
N67    O69     1.302   .     A
N67    C681    1.445   1_545 S
N67    O698    1.301   1_545 S
O68    N382    1.301   .     S
O70    C367    1.403   .     S
O70    C386    1.419   .     S
C71    H73     1.111   .     S
C71    C74     1.533   .     S
C71    O700    1.419   1_545 S
C71    H702    1.111   1_545 S
H72    C386    1.111   .     S
C74    H76     1.110   .     S
C74    C77     1.526   .     S
C74    H705    1.111   1_545 S
H75    C389    1.111   .     S
C77    H78     1.111   .     S
C77    H79     1.110   .     S
C77    H80     1.111   .     S
O81    C82     1.417   .     S
C82    H84     1.117   .     S
C82    C85     1.533   .     S
C82    H83     1.111   .     S
C85    H87     1.110   .     S
C85    C88     1.526   .     S
C85    H86     1.112   .     S
C88    H91     1.111   .     S
C88    H90     1.110   .     S
C88    H89     1.111   .     S
N92    O94     1.301   .     A
N92    O93     1.302   .     A
O95    C96     1.416   .     S
C96    C99     1.537   .     S
C96    H98     1.116   .     S
C96    H97     1.110   .     S
C99    H101    1.111   .     S
C99    H100    1.111   .     S
C99    C732    1.526   1_545 S
C102   H105    1.110   .     S
C102   H104    1.110   .     S
C102   H103    1.111   .     S
C102   C414    1.526   .     S
Zn106  O110    1.961   .     S
Zn106  O118    1.921   .     S
Zn106  O112    1.930   .     S
Zn106  O119    1.927   .     S
Zn107  O121    1.929   .     S
Zn107  O110    1.942   .     S
Zn107  O115    1.929   .     S
Zn107  O113    1.936   .     S
Zn108  O117    1.930   .     S
Zn108  O114    1.926   .     S
Zn108  O110    1.940   .     S
Zn108  O122    1.940   .     S
Zn109  O111    1.938   .     S
Zn109  O116    1.939   .     S
Zn109  O110    1.925   .     S
Zn109  O120    1.934   .     S
O111   C123    1.256   .     A
O112   C124    1.274   .     A
O113   C125    1.266   .     A
O114   C126    1.272   .     A
O115   C127    1.278   .     A
O116   C128    1.283   .     A
O117   C127    1.276   .     A
O118   C128    1.280   .     A
O119   C125    1.283   .     A
O120   C126    1.268   .     A
O121   C123    1.274   .     A
O122   C124    1.287   .     A
C123   C155    1.446   .     S
C124   C154    1.461   .     S
C125   C157    1.441   .     S
C126   C156    1.457   .     S
C127   C130    1.456   .     S
C128   C129    1.469   .     S
C129   C132    1.399   .     A
C129   C133    1.409   .     A
C130   C145    1.395   .     A
C130   C146    1.394   .     A
C131   C132    1.388   .     A
C131   C135    1.401   .     A
C131   H151    1.084   .     S
C132   H152    1.083   .     S
C133   C134    1.420   .     A
C133   O186    1.386   .     S
C134   C135    1.416   .     A
C134   C136    1.429   .     A
C135   C1084   1.388   .     S
C136   C140    1.427   .     A
C136   C1082   1.428   .     S
C137   C143    1.429   .     A
C137   C138    1.428   .     A
C137   C1081   1.428   1_554 S
C138   N197    1.432   .     S
C138   C139    1.392   .     A
C139   H147    1.085   .     S
C139   C1080   1.388   1_554 S
C140   C141    1.392   .     A
C140   O200    1.384   .     S
C141   H150    1.085   .     S
C141   C1087   1.390   .     S
C142   C143    1.418   .     A
C142   C144    1.404   .     A
C142   C1086   1.390   1_554 S
C143   C146    1.411   .     A
C144   C145    1.392   .     A
C144   H153    1.084   .     S
C145   H149    1.083   .     S
C146   H148    1.079   .     S
C154   C260    1.355   .     S
C154   N263    1.441   .     S
C156   C472    1.352   .     S
C156   N487    1.445   .     S
C157   C786    1.352   1_545 S
C157   O805    1.403   1_545 S
N158   O160    1.302   .     A
N158   O159    1.301   .     A
O161   C162    1.418   .     S
O161   C260    1.396   .     S
C162   C165    1.532   .     S
C162   H163    1.111   .     S
C162   H269    1.114   .     S
C165   C168    1.526   .     S
C165   H167    1.112   .     S
C165   H166    1.112   .     S
C168   H170    1.111   .     S
C168   H171    1.111   .     S
C168   H169    1.111   .     S
N172   O174    1.302   .     A
N172   C786    1.445   1_545 S
N172   O803    1.301   1_545 S
O173   N487    1.301   .     S
O175   C472    1.403   .     S
O175   C491    1.419   .     S
C176   H178    1.111   .     S
C176   C179    1.533   .     S
C176   O805    1.419   1_545 S
C176   H807    1.111   1_545 S
H177   C491    1.111   .     S
C179   H181    1.110   .     S
C179   C182    1.526   .     S
C179   H810    1.111   1_545 S
H180   C494    1.111   .     S
C182   H183    1.111   .     S
C182   H184    1.110   .     S
C182   H185    1.111   .     S
O186   C187    1.417   .     S
C187   H189    1.117   .     S
C187   C190    1.533   .     S
C187   H188    1.111   .     S
C190   H192    1.110   .     S
C190   C193    1.526   .     S
C190   H191    1.112   .     S
C193   H196    1.111   .     S
C193   H195    1.110   .     S
C193   H194    1.111   .     S
N197   O199    1.301   .     A
N197   O198    1.302   .     A
O200   C201    1.416   .     S
C201   C204    1.537   .     S
C201   H203    1.116   .     S
C201   H202    1.110   .     S
C204   H206    1.111   .     S
C204   H205    1.111   .     S
C204   C837    1.526   1_545 S
C207   H210    1.110   .     S
C207   H209    1.110   .     S
C207   H208    1.111   .     S
C207   C519    1.526   .     S
Zn211  O215    1.961   .     S
Zn211  O223    1.921   .     S
Zn211  O217    1.930   .     S
Zn211  O224    1.927   .     S
Zn212  O226    1.929   .     S
Zn212  O215    1.942   .     S
Zn212  O220    1.929   .     S
Zn212  O218    1.936   .     S
Zn213  O222    1.930   .     S
Zn213  O219    1.926   .     S
Zn213  O215    1.940   .     S
Zn213  O227    1.940   .     S
Zn214  O216    1.938   .     S
Zn214  O221    1.939   .     S
Zn214  O215    1.925   .     S
Zn214  O225    1.934   .     S
O216   C228    1.256   .     A
O217   C229    1.274   .     A
O218   C230    1.266   .     A
O219   C231    1.272   .     A
O220   C232    1.278   .     A
O221   C233    1.283   .     A
O222   C232    1.276   .     A
O223   C233    1.280   .     A
O224   C230    1.283   .     A
O225   C231    1.268   .     A
O226   C228    1.274   .     A
O227   C229    1.287   .     A
C228   C260    1.446   .     S
C229   C259    1.461   .     S
C230   C262    1.441   .     S
C231   C261    1.457   .     S
C232   C235    1.456   .     S
C233   C234    1.469   .     S
C234   C237    1.399   .     A
C234   C238    1.409   .     A
C235   C250    1.395   .     A
C235   C251    1.394   .     A
C236   C237    1.388   .     A
C236   C240    1.401   .     A
C236   H256    1.084   .     S
C237   H257    1.083   .     S
C238   C239    1.420   .     A
C238   O291    1.386   .     S
C239   C240    1.416   .     A
C239   C241    1.429   .     A
C240   C1189   1.388   .     S
C241   C245    1.427   .     A
C241   C1187   1.428   .     S
C242   C248    1.429   .     A
C242   C243    1.428   .     A
C242   C1186   1.428   1_554 S
C243   N302    1.432   .     S
C243   C244    1.392   .     A
C244   H252    1.085   .     S
C244   C1185   1.388   1_554 S
C245   C246    1.392   .     A
C245   O305    1.384   .     S
C246   H255    1.085   .     S
C246   C1192   1.390   .     S
C247   C248    1.418   .     A
C247   C249    1.404   .     A
C247   C1191   1.390   1_554 S
C248   C251    1.411   .     A
C249   C250    1.392   .     A
C249   H258    1.084   .     S
C250   H254    1.083   .     S
C251   H253    1.079   .     S
C259   C50     1.355   1_655 S
C259   N53     1.441   1_655 S
C261   C577    1.352   .     S
C261   N592    1.445   .     S
C262   C891    1.352   1_545 S
C262   O910    1.403   1_545 S
N263   O265    1.302   .     A
N263   O264    1.301   .     A
O266   C267    1.418   .     S
O266   C50     1.396   1_655 S
C267   C270    1.532   .     S
C267   H268    1.111   .     S
C267   H59     1.114   1_655 S
C270   C273    1.526   .     S
C270   H272    1.112   .     S
C270   H271    1.112   .     S
C273   H275    1.111   .     S
C273   H276    1.111   .     S
C273   H274    1.111   .     S
N277   O279    1.302   .     A
N277   C891    1.445   1_545 S
N277   O908    1.301   1_545 S
O278   N592    1.301   .     S
O280   C577    1.403   .     S
O280   C596    1.419   .     S
C281   H283    1.111   .     S
C281   C284    1.533   .     S
C281   O910    1.419   1_545 S
C281   H912    1.111   1_545 S
H282   C596    1.111   .     S
C284   H286    1.110   .     S
C284   C287    1.526   .     S
C284   H915    1.111   1_545 S
H285   C599    1.111   .     S
C287   H288    1.111   .     S
C287   H289    1.110   .     S
C287   H290    1.111   .     S
O291   C292    1.417   .     S
C292   H294    1.117   .     S
C292   C295    1.533   .     S
C292   H293    1.111   .     S
C295   H297    1.110   .     S
C295   C298    1.526   .     S
C295   H296    1.112   .     S
C298   H301    1.111   .     S
C298   H300    1.110   .     S
C298   H299    1.111   .     S
N302   O304    1.301   .     A
N302   O303    1.302   .     A
O305   C306    1.416   .     S
C306   C309    1.537   .     S
C306   H308    1.116   .     S
C306   H307    1.110   .     S
C309   H311    1.111   .     S
C309   H310    1.111   .     S
C309   C942    1.526   1_545 S
C312   H315    1.110   .     S
C312   H314    1.110   .     S
C312   H313    1.111   .     S
C312   C624    1.526   .     S
Zn316  O320    1.961   .     S
Zn316  O328    1.921   .     S
Zn316  O322    1.930   .     S
Zn316  O329    1.927   .     S
Zn317  O331    1.929   .     S
Zn317  O320    1.942   .     S
Zn317  O325    1.929   .     S
Zn317  O323    1.936   .     S
Zn318  O327    1.930   .     S
Zn318  O324    1.926   .     S
Zn318  O320    1.940   .     S
Zn318  O332    1.940   .     S
Zn319  O321    1.938   .     S
Zn319  O326    1.939   .     S
Zn319  O320    1.925   .     S
Zn319  O330    1.934   .     S
O321   C333    1.256   .     A
O322   C334    1.274   .     A
O323   C335    1.266   .     A
O324   C336    1.272   .     A
O325   C337    1.278   .     A
O326   C338    1.283   .     A
O327   C337    1.276   .     A
O328   C338    1.280   .     A
O329   C335    1.283   .     A
O330   C336    1.268   .     A
O331   C333    1.274   .     A
O332   C334    1.287   .     A
C333   C365    1.446   .     S
C334   C364    1.461   .     S
C335   C367    1.441   .     S
C336   C366    1.457   .     S
C337   C340    1.456   .     S
C338   C339    1.469   .     S
C339   C342    1.399   .     A
C339   C343    1.409   .     A
C340   C355    1.395   .     A
C340   C356    1.394   .     A
C341   C342    1.388   .     A
C341   C345    1.401   .     A
C341   H361    1.084   .     S
C342   H362    1.083   .     S
C343   C344    1.420   .     A
C343   O396    1.386   .     S
C344   C345    1.416   .     A
C344   C346    1.429   .     A
C345   C1294   1.388   .     S
C346   C350    1.427   .     A
C346   C1292   1.428   .     S
C347   C353    1.429   .     A
C347   C348    1.428   .     A
C347   C1291   1.428   1_554 S
C348   N407    1.432   .     S
C348   C349    1.392   .     A
C349   H357    1.085   .     S
C349   C1290   1.388   1_554 S
C350   C351    1.392   .     A
C350   O410    1.384   .     S
C351   H360    1.085   .     S
C351   C1297   1.390   .     S
C352   C353    1.418   .     A
C352   C354    1.404   .     A
C352   C1296   1.390   1_554 S
C353   C356    1.411   .     A
C354   C355    1.392   .     A
C354   H363    1.084   .     S
C355   H359    1.083   .     S
C356   H358    1.079   .     S
C364   C470    1.355   .     S
C364   N473    1.441   .     S
C365   C574    1.355   1_455 S
C365   O581    1.396   1_455 S
C366   C682    1.352   .     S
C366   N697    1.445   .     S
N368   O370    1.302   .     A
N368   O369    1.301   .     A
N368   C574    1.441   1_455 S
O371   C372    1.418   .     S
O371   C470    1.396   .     S
C372   C375    1.532   .     S
C372   H373    1.111   .     S
C372   H479    1.114   .     S
H374   C582    1.114   1_455 S
C375   C378    1.526   .     S
C375   H377    1.112   .     S
C375   H376    1.112   .     S
C378   H380    1.111   .     S
C378   H381    1.111   .     S
C378   H379    1.111   .     S
N382   O384    1.302   .     A
O383   N697    1.301   .     S
O385   C682    1.403   .     S
O385   C701    1.419   .     S
C386   H388    1.111   .     S
C386   C389    1.533   .     S
H387   C701    1.111   .     S
C389   H391    1.110   .     S
C389   C392    1.526   .     S
H390   C704    1.111   .     S
C392   H393    1.111   .     S
C392   H394    1.110   .     S
C392   H395    1.111   .     S
O396   C397    1.417   .     S
C397   H399    1.117   .     S
C397   C400    1.533   .     S
C397   H398    1.111   .     S
C400   H402    1.110   .     S
C400   C403    1.526   .     S
C400   H401    1.112   .     S
C403   H406    1.111   .     S
C403   H405    1.110   .     S
C403   H404    1.111   .     S
N407   O409    1.301   .     A
N407   O408    1.302   .     A
O410   C411    1.416   .     S
C411   C414    1.537   .     S
C411   H413    1.116   .     S
C411   H412    1.110   .     S
C414   H416    1.111   .     S
C414   H415    1.111   .     S
C417   H420    1.110   .     S
C417   H419    1.110   .     S
C417   H418    1.111   .     S
C417   C729    1.526   .     S
Zn421  O425    1.961   .     S
Zn421  O433    1.921   .     S
Zn421  O427    1.930   .     S
Zn421  O434    1.927   .     S
Zn422  O436    1.929   .     S
Zn422  O425    1.942   .     S
Zn422  O430    1.929   .     S
Zn422  O428    1.936   .     S
Zn423  O432    1.930   .     S
Zn423  O429    1.926   .     S
Zn423  O425    1.940   .     S
Zn423  O437    1.940   .     S
Zn424  O426    1.938   .     S
Zn424  O431    1.939   .     S
Zn424  O425    1.925   .     S
Zn424  O435    1.934   .     S
O426   C438    1.256   .     A
O427   C439    1.274   .     A
O428   C440    1.266   .     A
O429   C441    1.272   .     A
O430   C442    1.278   .     A
O431   C443    1.283   .     A
O432   C442    1.276   .     A
O433   C443    1.280   .     A
O434   C440    1.283   .     A
O435   C441    1.268   .     A
O436   C438    1.274   .     A
O437   C439    1.287   .     A
C438   C470    1.446   .     S
C439   C469    1.461   .     S
C440   C472    1.441   .     S
C441   C471    1.457   .     S
C442   C445    1.456   .     S
C443   C444    1.469   .     S
C444   C447    1.399   .     A
C444   C448    1.409   .     A
C445   C460    1.395   .     A
C445   C461    1.394   .     A
C446   C447    1.388   .     A
C446   C450    1.401   .     A
C446   H466    1.084   .     S
C447   H467    1.083   .     S
C448   C449    1.420   .     A
C448   O501    1.386   .     S
C449   C450    1.416   .     A
C449   C451    1.429   .     A
C450   C1399   1.388   .     S
C451   C455    1.427   .     A
C451   C1397   1.428   .     S
C452   C458    1.429   .     A
C452   C453    1.428   .     A
C452   C1396   1.428   1_554 S
C453   N512    1.432   .     S
C453   C454    1.392   .     A
C454   H462    1.085   .     S
C454   C1395   1.388   1_554 S
C455   C456    1.392   .     A
C455   O515    1.384   .     S
C456   H465    1.085   .     S
C456   C1402   1.390   .     S
C457   C458    1.418   .     A
C457   C459    1.404   .     A
C457   C1401   1.390   1_554 S
C458   C461    1.411   .     A
C459   C460    1.392   .     A
C459   H468    1.084   .     S
C460   H464    1.083   .     S
C461   H463    1.079   .     S
C469   C575    1.355   .     S
C469   N578    1.441   .     S
C471   C787    1.352   .     S
C471   N802    1.445   .     S
N473   O475    1.302   .     A
N473   O474    1.301   .     A
O476   C477    1.418   .     S
O476   C575    1.396   .     S
C477   C480    1.532   .     S
C477   H478    1.111   .     S
C477   H584    1.114   .     S
C480   C483    1.526   .     S
C480   H482    1.112   .     S
C480   H481    1.112   .     S
C483   H485    1.111   .     S
C483   H486    1.111   .     S
C483   H484    1.111   .     S
N487   O489    1.302   .     A
O488   N802    1.301   .     S
O490   C787    1.403   .     S
O490   C806    1.419   .     S
C491   H493    1.111   .     S
C491   C494    1.533   .     S
H492   C806    1.111   .     S
C494   H496    1.110   .     S
C494   C497    1.526   .     S
H495   C809    1.111   .     S
C497   H498    1.111   .     S
C497   H499    1.110   .     S
C497   H500    1.111   .     S
O501   C502    1.417   .     S
C502   H504    1.117   .     S
C502   C505    1.533   .     S
C502   H503    1.111   .     S
C505   H507    1.110   .     S
C505   C508    1.526   .     S
C505   H506    1.112   .     S
C508   H511    1.111   .     S
C508   H510    1.110   .     S
C508   H509    1.111   .     S
N512   O514    1.301   .     A
N512   O513    1.302   .     A
O515   C516    1.416   .     S
C516   C519    1.537   .     S
C516   H518    1.116   .     S
C516   H517    1.110   .     S
C519   H521    1.111   .     S
C519   H520    1.111   .     S
C522   H525    1.110   .     S
C522   H524    1.110   .     S
C522   H523    1.111   .     S
C522   C834    1.526   .     S
Zn526  O530    1.961   .     S
Zn526  O538    1.921   .     S
Zn526  O532    1.930   .     S
Zn526  O539    1.927   .     S
Zn527  O541    1.929   .     S
Zn527  O530    1.942   .     S
Zn527  O535    1.929   .     S
Zn527  O533    1.936   .     S
Zn528  O537    1.930   .     S
Zn528  O534    1.926   .     S
Zn528  O530    1.940   .     S
Zn528  O542    1.940   .     S
Zn529  O531    1.938   .     S
Zn529  O536    1.939   .     S
Zn529  O530    1.925   .     S
Zn529  O540    1.934   .     S
O531   C543    1.256   .     A
O532   C544    1.274   .     A
O533   C545    1.266   .     A
O534   C546    1.272   .     A
O535   C547    1.278   .     A
O536   C548    1.283   .     A
O537   C547    1.276   .     A
O538   C548    1.280   .     A
O539   C545    1.283   .     A
O540   C546    1.268   .     A
O541   C543    1.274   .     A
O542   C544    1.287   .     A
C543   C575    1.446   .     S
C544   C574    1.461   .     S
C545   C577    1.441   .     S
C546   C576    1.457   .     S
C547   C550    1.456   .     S
C548   C549    1.469   .     S
C549   C552    1.399   .     A
C549   C553    1.409   .     A
C550   C565    1.395   .     A
C550   C566    1.394   .     A
C551   C552    1.388   .     A
C551   C555    1.401   .     A
C551   H571    1.084   .     S
C552   H572    1.083   .     S
C553   C554    1.420   .     A
C553   O606    1.386   .     S
C554   C555    1.416   .     A
C554   C556    1.429   .     A
C555   C1504   1.388   .     S
C556   C560    1.427   .     A
C556   C1502   1.428   .     S
C557   C563    1.429   .     A
C557   C558    1.428   .     A
C557   C1501   1.428   1_554 S
C558   N617    1.432   .     S
C558   C559    1.392   .     A
C559   H567    1.085   .     S
C559   C1500   1.388   1_554 S
C560   C561    1.392   .     A
C560   O620    1.384   .     S
C561   H570    1.085   .     S
C561   C1507   1.390   .     S
C562   C563    1.418   .     A
C562   C564    1.404   .     A
C562   C1506   1.390   1_554 S
C563   C566    1.411   .     A
C564   C565    1.392   .     A
C564   H573    1.084   .     S
C565   H569    1.083   .     S
C566   H568    1.079   .     S
C574   C365    1.355   1_655 S
C574   N368    1.441   1_655 S
C576   C892    1.352   .     S
C576   N907    1.445   .     S
N578   O580    1.302   .     A
N578   O579    1.301   .     A
O581   C582    1.418   .     S
O581   C365    1.396   1_655 S
C582   C585    1.532   .     S
C582   H583    1.111   .     S
C582   H374    1.114   1_655 S
C585   C588    1.526   .     S
C585   H587    1.112   .     S
C585   H586    1.112   .     S
C588   H590    1.111   .     S
C588   H591    1.111   .     S
C588   H589    1.111   .     S
N592   O594    1.302   .     A
O593   N907    1.301   .     S
O595   C892    1.403   .     S
O595   C911    1.419   .     S
C596   H598    1.111   .     S
C596   C599    1.533   .     S
H597   C911    1.111   .     S
C599   H601    1.110   .     S
C599   C602    1.526   .     S
H600   C914    1.111   .     S
C602   H603    1.111   .     S
C602   H604    1.110   .     S
C602   H605    1.111   .     S
O606   C607    1.417   .     S
C607   H609    1.117   .     S
C607   C610    1.533   .     S
C607   H608    1.111   .     S
C610   H612    1.110   .     S
C610   C613    1.526   .     S
C610   H611    1.112   .     S
C613   H616    1.111   .     S
C613   H615    1.110   .     S
C613   H614    1.111   .     S
N617   O619    1.301   .     A
N617   O618    1.302   .     A
O620   C621    1.416   .     S
C621   C624    1.537   .     S
C621   H623    1.116   .     S
C621   H622    1.110   .     S
C624   H626    1.111   .     S
C624   H625    1.111   .     S
C627   H630    1.110   .     S
C627   H629    1.110   .     S
C627   H628    1.111   .     S
C627   C939    1.526   .     S
Zn631  O635    1.961   .     S
Zn631  O643    1.921   .     S
Zn631  O637    1.930   .     S
Zn631  O644    1.927   .     S
Zn632  O646    1.929   .     S
Zn632  O635    1.942   .     S
Zn632  O640    1.929   .     S
Zn632  O638    1.936   .     S
Zn633  O642    1.930   .     S
Zn633  O639    1.926   .     S
Zn633  O635    1.940   .     S
Zn633  O647    1.940   .     S
Zn634  O636    1.938   .     S
Zn634  O641    1.939   .     S
Zn634  O635    1.925   .     S
Zn634  O645    1.934   .     S
O636   C648    1.256   .     A
O637   C649    1.274   .     A
O638   C650    1.266   .     A
O639   C651    1.272   .     A
O640   C652    1.278   .     A
O641   C653    1.283   .     A
O642   C652    1.276   .     A
O643   C653    1.280   .     A
O644   C650    1.283   .     A
O645   C651    1.268   .     A
O646   C648    1.274   .     A
O647   C649    1.287   .     A
C648   C680    1.446   .     S
C649   C679    1.461   .     S
C650   C682    1.441   .     S
C651   C681    1.457   .     S
C652   C655    1.456   .     S
C653   C654    1.469   .     S
C654   C657    1.399   .     A
C654   C658    1.409   .     A
C655   C670    1.395   .     A
C655   C671    1.394   .     A
C656   C657    1.388   .     A
C656   C660    1.401   .     A
C656   H676    1.084   .     S
C657   H677    1.083   .     S
C658   C659    1.420   .     A
C658   O711    1.386   .     S
C659   C660    1.416   .     A
C659   C661    1.429   .     A
C660   C1609   1.388   .     S
C661   C665    1.427   .     A
C661   C1607   1.428   .     S
C662   C668    1.429   .     A
C662   C663    1.428   .     A
C662   C1606   1.428   1_554 S
C663   N722    1.432   .     S
C663   C664    1.392   .     A
C664   H672    1.085   .     S
C664   C1605   1.388   1_554 S
C665   C666    1.392   .     A
C665   O725    1.384   .     S
C666   H675    1.085   .     S
C666   C1612   1.390   .     S
C667   C668    1.418   .     A
C667   C669    1.404   .     A
C667   C1611   1.390   1_554 S
C668   C671    1.411   .     A
C669   C670    1.392   .     A
C669   H678    1.084   .     S
C670   H674    1.083   .     S
C671   H673    1.079   .     S
C679   C785    1.355   .     S
C679   N788    1.441   .     S
C680   C889    1.355   1_455 S
C680   O896    1.396   1_455 S
C681   C52     1.352   1_565 S
C681   N67     1.445   1_565 S
N683   O685    1.302   .     A
N683   O684    1.301   .     A
N683   C889    1.441   1_455 S
O686   C687    1.418   .     S
O686   C785    1.396   .     S
C687   C690    1.532   .     S
C687   H688    1.111   .     S
C687   H794    1.114   .     S
H689   C897    1.114   1_455 S
C690   C693    1.526   .     S
C690   H692    1.112   .     S
C690   H691    1.112   .     S
C693   H695    1.111   .     S
C693   H696    1.111   .     S
C693   H694    1.111   .     S
N697   O699    1.302   .     A
O698   N67     1.301   1_565 S
O700   C52     1.403   1_565 S
O700   C71     1.419   1_565 S
C701   H703    1.111   .     S
C701   C704    1.533   .     S
H702   C71     1.111   1_565 S
C704   H706    1.110   .     S
C704   C707    1.526   .     S
H705   C74     1.111   1_565 S
C707   H708    1.111   .     S
C707   H709    1.110   .     S
C707   H710    1.111   .     S
O711   C712    1.417   .     S
C712   H714    1.117   .     S
C712   C715    1.533   .     S
C712   H713    1.111   .     S
C715   H717    1.110   .     S
C715   C718    1.526   .     S
C715   H716    1.112   .     S
C718   H721    1.111   .     S
C718   H720    1.110   .     S
C718   H719    1.111   .     S
N722   O724    1.301   .     A
N722   O723    1.302   .     A
O725   C726    1.416   .     S
C726   C729    1.537   .     S
C726   H728    1.116   .     S
C726   H727    1.110   .     S
C729   H731    1.111   .     S
C729   H730    1.111   .     S
C732   H735    1.110   .     S
C732   H734    1.110   .     S
C732   H733    1.111   .     S
C732   C99     1.526   1_565 S
Zn736  O740    1.961   .     S
Zn736  O748    1.921   .     S
Zn736  O742    1.930   .     S
Zn736  O749    1.927   .     S
Zn737  O751    1.929   .     S
Zn737  O740    1.942   .     S
Zn737  O745    1.929   .     S
Zn737  O743    1.936   .     S
Zn738  O747    1.930   .     S
Zn738  O744    1.926   .     S
Zn738  O740    1.940   .     S
Zn738  O752    1.940   .     S
Zn739  O741    1.938   .     S
Zn739  O746    1.939   .     S
Zn739  O740    1.925   .     S
Zn739  O750    1.934   .     S
O741   C753    1.256   .     A
O742   C754    1.274   .     A
O743   C755    1.266   .     A
O744   C756    1.272   .     A
O745   C757    1.278   .     A
O746   C758    1.283   .     A
O747   C757    1.276   .     A
O748   C758    1.280   .     A
O749   C755    1.283   .     A
O750   C756    1.268   .     A
O751   C753    1.274   .     A
O752   C754    1.287   .     A
C753   C785    1.446   .     S
C754   C784    1.461   .     S
C755   C787    1.441   .     S
C756   C786    1.457   .     S
C757   C760    1.456   .     S
C758   C759    1.469   .     S
C759   C762    1.399   .     A
C759   C763    1.409   .     A
C760   C775    1.395   .     A
C760   C776    1.394   .     A
C761   C762    1.388   .     A
C761   C765    1.401   .     A
C761   H781    1.084   .     S
C762   H782    1.083   .     S
C763   C764    1.420   .     A
C763   O816    1.386   .     S
C764   C765    1.416   .     A
C764   C766    1.429   .     A
C765   C1714   1.388   .     S
C766   C770    1.427   .     A
C766   C1712   1.428   .     S
C767   C773    1.429   .     A
C767   C768    1.428   .     A
C767   C1711   1.428   1_554 S
C768   N827    1.432   .     S
C768   C769    1.392   .     A
C769   H777    1.085   .     S
C769   C1710   1.388   1_554 S
C770   C771    1.392   .     A
C770   O830    1.384   .     S
C771   H780    1.085   .     S
C771   C1717   1.390   .     S
C772   C773    1.418   .     A
C772   C774    1.404   .     A
C772   C1716   1.390   1_554 S
C773   C776    1.411   .     A
C774   C775    1.392   .     A
C774   H783    1.084   .     S
C775   H779    1.083   .     S
C776   H778    1.079   .     S
C784   C890    1.355   .     S
C784   N893    1.441   .     S
C786   C157    1.352   1_565 S
C786   N172    1.445   1_565 S
N788   O790    1.302   .     A
N788   O789    1.301   .     A
O791   C792    1.418   .     S
O791   C890    1.396   .     S
C792   C795    1.532   .     S
C792   H793    1.111   .     S
C792   H899    1.114   .     S
C795   C798    1.526   .     S
C795   H797    1.112   .     S
C795   H796    1.112   .     S
C798   H800    1.111   .     S
C798   H801    1.111   .     S
C798   H799    1.111   .     S
N802   O804    1.302   .     A
O803   N172    1.301   1_565 S
O805   C157    1.403   1_565 S
O805   C176    1.419   1_565 S
C806   H808    1.111   .     S
C806   C809    1.533   .     S
H807   C176    1.111   1_565 S
C809   H811    1.110   .     S
C809   C812    1.526   .     S
H810   C179    1.111   1_565 S
C812   H813    1.111   .     S
C812   H814    1.110   .     S
C812   H815    1.111   .     S
O816   C817    1.417   .     S
C817   H819    1.117   .     S
C817   C820    1.533   .     S
C817   H818    1.111   .     S
C820   H822    1.110   .     S
C820   C823    1.526   .     S
C820   H821    1.112   .     S
C823   H826    1.111   .     S
C823   H825    1.110   .     S
C823   H824    1.111   .     S
N827   O829    1.301   .     A
N827   O828    1.302   .     A
O830   C831    1.416   .     S
C831   C834    1.537   .     S
C831   H833    1.116   .     S
C831   H832    1.110   .     S
C834   H836    1.111   .     S
C834   H835    1.111   .     S
C837   H840    1.110   .     S
C837   H839    1.110   .     S
C837   H838    1.111   .     S
C837   C204    1.526   1_565 S
Zn841  O845    1.961   .     S
Zn841  O853    1.921   .     S
Zn841  O847    1.930   .     S
Zn841  O854    1.927   .     S
Zn842  O856    1.929   .     S
Zn842  O845    1.942   .     S
Zn842  O850    1.929   .     S
Zn842  O848    1.936   .     S
Zn843  O852    1.930   .     S
Zn843  O849    1.926   .     S
Zn843  O845    1.940   .     S
Zn843  O857    1.940   .     S
Zn844  O846    1.938   .     S
Zn844  O851    1.939   .     S
Zn844  O845    1.925   .     S
Zn844  O855    1.934   .     S
O846   C858    1.256   .     A
O847   C859    1.274   .     A
O848   C860    1.266   .     A
O849   C861    1.272   .     A
O850   C862    1.278   .     A
O851   C863    1.283   .     A
O852   C862    1.276   .     A
O853   C863    1.280   .     A
O854   C860    1.283   .     A
O855   C861    1.268   .     A
O856   C858    1.274   .     A
O857   C859    1.287   .     A
C858   C890    1.446   .     S
C859   C889    1.461   .     S
C860   C892    1.441   .     S
C861   C891    1.457   .     S
C862   C865    1.456   .     S
C863   C864    1.469   .     S
C864   C867    1.399   .     A
C864   C868    1.409   .     A
C865   C880    1.395   .     A
C865   C881    1.394   .     A
C866   C867    1.388   .     A
C866   C870    1.401   .     A
C866   H886    1.084   .     S
C867   H887    1.083   .     S
C868   C869    1.420   .     A
C868   O921    1.386   .     S
C869   C870    1.416   .     A
C869   C871    1.429   .     A
C870   C1819   1.388   .     S
C871   C875    1.427   .     A
C871   C1817   1.428   .     S
C872   C878    1.429   .     A
C872   C873    1.428   .     A
C872   C1816   1.428   1_554 S
C873   N932    1.432   .     S
C873   C874    1.392   .     A
C874   H882    1.085   .     S
C874   C1815   1.388   1_554 S
C875   C876    1.392   .     A
C875   O935    1.384   .     S
C876   H885    1.085   .     S
C876   C1822   1.390   .     S
C877   C878    1.418   .     A
C877   C879    1.404   .     A
C877   C1821   1.390   1_554 S
C878   C881    1.411   .     A
C879   C880    1.392   .     A
C879   H888    1.084   .     S
C880   H884    1.083   .     S
C881   H883    1.079   .     S
C889   C680    1.355   1_655 S
C889   N683    1.441   1_655 S
C891   C262    1.352   1_565 S
C891   N277    1.445   1_565 S
N893   O895    1.302   .     A
N893   O894    1.301   .     A
O896   C897    1.418   .     S
O896   C680    1.396   1_655 S
C897   C900    1.532   .     S
C897   H898    1.111   .     S
C897   H689    1.114   1_655 S
C900   C903    1.526   .     S
C900   H902    1.112   .     S
C900   H901    1.112   .     S
C903   H905    1.111   .     S
C903   H906    1.111   .     S
C903   H904    1.111   .     S
N907   O909    1.302   .     A
O908   N277    1.301   1_565 S
O910   C262    1.403   1_565 S
O910   C281    1.419   1_565 S
C911   H913    1.111   .     S
C911   C914    1.533   .     S
H912   C281    1.111   1_565 S
C914   H916    1.110   .     S
C914   C917    1.526   .     S
H915   C284    1.111   1_565 S
C917   H918    1.111   .     S
C917   H919    1.110   .     S
C917   H920    1.111   .     S
O921   C922    1.417   .     S
C922   H924    1.117   .     S
C922   C925    1.533   .     S
C922   H923    1.111   .     S
C925   H927    1.110   .     S
C925   C928    1.526   .     S
C925   H926    1.112   .     S
C928   H931    1.111   .     S
C928   H930    1.110   .     S
C928   H929    1.111   .     S
N932   O934    1.301   .     A
N932   O933    1.302   .     A
O935   C936    1.416   .     S
C936   C939    1.537   .     S
C936   H938    1.116   .     S
C936   H937    1.110   .     S
C939   H941    1.111   .     S
C939   H940    1.111   .     S
C942   H945    1.110   .     S
C942   H944    1.110   .     S
C942   H943    1.111   .     S
C942   C309    1.526   1_565 S
Zn946  O950    1.961   .     S
Zn946  O958    1.921   .     S
Zn946  O952    1.930   .     S
Zn946  O959    1.927   .     S
Zn947  O961    1.929   .     S
Zn947  O950    1.942   .     S
Zn947  O955    1.929   .     S
Zn947  O953    1.936   .     S
Zn948  O957    1.930   .     S
Zn948  O954    1.926   .     S
Zn948  O950    1.940   .     S
Zn948  O962    1.940   .     S
Zn949  O951    1.938   .     S
Zn949  O956    1.939   .     S
Zn949  O950    1.925   .     S
Zn949  O960    1.934   .     S
O951   C963    1.256   .     A
O952   C964    1.274   .     A
O953   C965    1.266   .     A
O954   C966    1.272   .     A
O955   C967    1.278   .     A
O956   C968    1.283   .     A
O957   C967    1.276   .     A
O958   C968    1.280   .     A
O959   C965    1.283   .     A
O960   C966    1.268   .     A
O961   C963    1.274   .     A
O962   C964    1.287   .     A
C963   C995    1.446   .     S
C964   C994    1.461   .     S
C965   C997    1.441   .     S
C966   C996    1.457   .     S
C967   C970    1.456   .     S
C968   C969    1.469   .     S
C969   C972    1.399   .     A
C969   C973    1.409   .     A
C970   C985    1.395   .     A
C970   C986    1.394   .     A
C971   C972    1.388   .     A
C971   C975    1.401   .     A
C971   H991    1.084   .     S
C972   H992    1.083   .     S
C973   C974    1.420   .     A
C973   O1026   1.386   .     S
C974   C975    1.416   .     A
C974   C976    1.429   .     A
C975   C34     1.388   1_556 S
C976   C980    1.427   .     A
C976   C32     1.428   1_556 S
C977   C983    1.429   .     A
C977   C978    1.428   .     A
C978   N1037   1.432   .     S
C978   C979    1.392   .     A
C979   H987    1.085   .     S
C980   C981    1.392   .     A
C980   O1040   1.384   .     S
C981   H990    1.085   .     S
C981   C37     1.390   1_556 S
C982   C983    1.418   .     A
C982   C984    1.404   .     A
C983   C986    1.411   .     A
C984   C985    1.392   .     A
C984   H993    1.084   .     S
C985   H989    1.083   .     S
C986   H988    1.079   .     S
C994   C1100   1.355   .     S
C994   N1103   1.441   .     S
C995   C1204   1.355   1_455 S
C995   O1211   1.396   1_455 S
C996   C1312   1.352   .     S
C996   N1327   1.445   .     S
C997   C1626   1.352   1_545 S
C997   O1645   1.403   1_545 S
N998   O1000   1.302   .     A
N998   O999    1.301   .     A
N998   C1204   1.441   1_455 S
O1001  C1002   1.418   .     S
O1001  C1100   1.396   .     S
C1002  C1005   1.532   .     S
C1002  H1003   1.111   .     S
C1002  H1109   1.114   .     S
H1004  C1212   1.114   1_455 S
C1005  C1008   1.526   .     S
C1005  H1007   1.112   .     S
C1005  H1006   1.112   .     S
C1008  H1010   1.111   .     S
C1008  H1011   1.111   .     S
C1008  H1009   1.111   .     S
N1012  O1014   1.302   .     A
N1012  C1626   1.445   1_545 S
N1012  O1643   1.301   1_545 S
O1013  N1327   1.301   .     S
O1015  C1312   1.403   .     S
O1015  C1331   1.419   .     S
C1016  H1018   1.111   .     S
C1016  C1019   1.533   .     S
C1016  O1645   1.419   1_545 S
C1016  H1647   1.111   1_545 S
H1017  C1331   1.111   .     S
C1019  H1021   1.110   .     S
C1019  C1022   1.526   .     S
C1019  H1650   1.111   1_545 S
H1020  C1334   1.111   .     S
C1022  H1023   1.111   .     S
C1022  H1024   1.110   .     S
C1022  H1025   1.111   .     S
O1026  C1027   1.417   .     S
C1027  H1029   1.117   .     S
C1027  C1030   1.533   .     S
C1027  H1028   1.111   .     S
C1030  H1032   1.110   .     S
C1030  C1033   1.526   .     S
C1030  H1031   1.112   .     S
C1033  H1036   1.111   .     S
C1033  H1035   1.110   .     S
C1033  H1034   1.111   .     S
N1037  O1039   1.301   .     A
N1037  O1038   1.302   .     A
O1040  C1041   1.416   .     S
C1041  C1044   1.537   .     S
C1041  H1043   1.116   .     S
C1041  H1042   1.110   .     S
C1044  H1046   1.111   .     S
C1044  H1045   1.111   .     S
C1044  C1677   1.526   1_545 S
C1047  H1050   1.110   .     S
C1047  H1049   1.110   .     S
C1047  H1048   1.111   .     S
C1047  C1359   1.526   .     S
Zn1051 O1055   1.961   .     S
Zn1051 O1063   1.921   .     S
Zn1051 O1057   1.930   .     S
Zn1051 O1064   1.927   .     S
Zn1052 O1066   1.929   .     S
Zn1052 O1055   1.942   .     S
Zn1052 O1060   1.929   .     S
Zn1052 O1058   1.936   .     S
Zn1053 O1062   1.930   .     S
Zn1053 O1059   1.926   .     S
Zn1053 O1055   1.940   .     S
Zn1053 O1067   1.940   .     S
Zn1054 O1056   1.938   .     S
Zn1054 O1061   1.939   .     S
Zn1054 O1055   1.925   .     S
Zn1054 O1065   1.934   .     S
O1056  C1068   1.256   .     A
O1057  C1069   1.274   .     A
O1058  C1070   1.266   .     A
O1059  C1071   1.272   .     A
O1060  C1072   1.278   .     A
O1061  C1073   1.283   .     A
O1062  C1072   1.276   .     A
O1063  C1073   1.280   .     A
O1064  C1070   1.283   .     A
O1065  C1071   1.268   .     A
O1066  C1068   1.274   .     A
O1067  C1069   1.287   .     A
C1068  C1100   1.446   .     S
C1069  C1099   1.461   .     S
C1070  C1102   1.441   .     S
C1071  C1101   1.457   .     S
C1072  C1075   1.456   .     S
C1073  C1074   1.469   .     S
C1074  C1077   1.399   .     A
C1074  C1078   1.409   .     A
C1075  C1090   1.395   .     A
C1075  C1091   1.394   .     A
C1076  C1077   1.388   .     A
C1076  C1080   1.401   .     A
C1076  H1096   1.084   .     S
C1077  H1097   1.083   .     S
C1078  C1079   1.420   .     A
C1078  O1131   1.386   .     S
C1079  C1080   1.416   .     A
C1079  C1081   1.429   .     A
C1080  C139    1.388   1_556 S
C1081  C1085   1.427   .     A
C1081  C137    1.428   1_556 S
C1082  C1088   1.429   .     A
C1082  C1083   1.428   .     A
C1083  N1142   1.432   .     S
C1083  C1084   1.392   .     A
C1084  H1092   1.085   .     S
C1085  C1086   1.392   .     A
C1085  O1145   1.384   .     S
C1086  H1095   1.085   .     S
C1086  C142    1.390   1_556 S
C1087  C1088   1.418   .     A
C1087  C1089   1.404   .     A
C1088  C1091   1.411   .     A
C1089  C1090   1.392   .     A
C1089  H1098   1.084   .     S
C1090  H1094   1.083   .     S
C1091  H1093   1.079   .     S
C1099  C1205   1.355   .     S
C1099  N1208   1.441   .     S
C1101  C1417   1.352   .     S
C1101  N1432   1.445   .     S
C1102  C1731   1.352   1_545 S
C1102  O1750   1.403   1_545 S
N1103  O1105   1.302   .     A
N1103  O1104   1.301   .     A
O1106  C1107   1.418   .     S
O1106  C1205   1.396   .     S
C1107  C1110   1.532   .     S
C1107  H1108   1.111   .     S
C1107  H1214   1.114   .     S
C1110  C1113   1.526   .     S
C1110  H1112   1.112   .     S
C1110  H1111   1.112   .     S
C1113  H1115   1.111   .     S
C1113  H1116   1.111   .     S
C1113  H1114   1.111   .     S
N1117  O1119   1.302   .     A
N1117  C1731   1.445   1_545 S
N1117  O1748   1.301   1_545 S
O1118  N1432   1.301   .     S
O1120  C1417   1.403   .     S
O1120  C1436   1.419   .     S
C1121  H1123   1.111   .     S
C1121  C1124   1.533   .     S
C1121  O1750   1.419   1_545 S
C1121  H1752   1.111   1_545 S
H1122  C1436   1.111   .     S
C1124  H1126   1.110   .     S
C1124  C1127   1.526   .     S
C1124  H1755   1.111   1_545 S
H1125  C1439   1.111   .     S
C1127  H1128   1.111   .     S
C1127  H1129   1.110   .     S
C1127  H1130   1.111   .     S
O1131  C1132   1.417   .     S
C1132  H1134   1.117   .     S
C1132  C1135   1.533   .     S
C1132  H1133   1.111   .     S
C1135  H1137   1.110   .     S
C1135  C1138   1.526   .     S
C1135  H1136   1.112   .     S
C1138  H1141   1.111   .     S
C1138  H1140   1.110   .     S
C1138  H1139   1.111   .     S
N1142  O1144   1.301   .     A
N1142  O1143   1.302   .     A
O1145  C1146   1.416   .     S
C1146  C1149   1.537   .     S
C1146  H1148   1.116   .     S
C1146  H1147   1.110   .     S
C1149  H1151   1.111   .     S
C1149  H1150   1.111   .     S
C1149  C1782   1.526   1_545 S
C1152  H1155   1.110   .     S
C1152  H1154   1.110   .     S
C1152  H1153   1.111   .     S
C1152  C1464   1.526   .     S
Zn1156 O1160   1.961   .     S
Zn1156 O1168   1.921   .     S
Zn1156 O1162   1.930   .     S
Zn1156 O1169   1.927   .     S
Zn1157 O1171   1.929   .     S
Zn1157 O1160   1.942   .     S
Zn1157 O1165   1.929   .     S
Zn1157 O1163   1.936   .     S
Zn1158 O1167   1.930   .     S
Zn1158 O1164   1.926   .     S
Zn1158 O1160   1.940   .     S
Zn1158 O1172   1.940   .     S
Zn1159 O1161   1.938   .     S
Zn1159 O1166   1.939   .     S
Zn1159 O1160   1.925   .     S
Zn1159 O1170   1.934   .     S
O1161  C1173   1.256   .     A
O1162  C1174   1.274   .     A
O1163  C1175   1.266   .     A
O1164  C1176   1.272   .     A
O1165  C1177   1.278   .     A
O1166  C1178   1.283   .     A
O1167  C1177   1.276   .     A
O1168  C1178   1.280   .     A
O1169  C1175   1.283   .     A
O1170  C1176   1.268   .     A
O1171  C1173   1.274   .     A
O1172  C1174   1.287   .     A
C1173  C1205   1.446   .     S
C1174  C1204   1.461   .     S
C1175  C1207   1.441   .     S
C1176  C1206   1.457   .     S
C1177  C1180   1.456   .     S
C1178  C1179   1.469   .     S
C1179  C1182   1.399   .     A
C1179  C1183   1.409   .     A
C1180  C1195   1.395   .     A
C1180  C1196   1.394   .     A
C1181  C1182   1.388   .     A
C1181  C1185   1.401   .     A
C1181  H1201   1.084   .     S
C1182  H1202   1.083   .     S
C1183  C1184   1.420   .     A
C1183  O1236   1.386   .     S
C1184  C1185   1.416   .     A
C1184  C1186   1.429   .     A
C1185  C244    1.388   1_556 S
C1186  C1190   1.427   .     A
C1186  C242    1.428   1_556 S
C1187  C1193   1.429   .     A
C1187  C1188   1.428   .     A
C1188  N1247   1.432   .     S
C1188  C1189   1.392   .     A
C1189  H1197   1.085   .     S
C1190  C1191   1.392   .     A
C1190  O1250   1.384   .     S
C1191  H1200   1.085   .     S
C1191  C247    1.390   1_556 S
C1192  C1193   1.418   .     A
C1192  C1194   1.404   .     A
C1193  C1196   1.411   .     A
C1194  C1195   1.392   .     A
C1194  H1203   1.084   .     S
C1195  H1199   1.083   .     S
C1196  H1198   1.079   .     S
C1204  C995    1.355   1_655 S
C1204  N998    1.441   1_655 S
C1206  C1522   1.352   .     S
C1206  N1537   1.445   .     S
C1207  C1836   1.352   1_545 S
C1207  O1855   1.403   1_545 S
N1208  O1210   1.302   .     A
N1208  O1209   1.301   .     A
O1211  C1212   1.418   .     S
O1211  C995    1.396   1_655 S
C1212  C1215   1.532   .     S
C1212  H1213   1.111   .     S
C1212  H1004   1.114   1_655 S
C1215  C1218   1.526   .     S
C1215  H1217   1.112   .     S
C1215  H1216   1.112   .     S
C1218  H1220   1.111   .     S
C1218  H1221   1.111   .     S
C1218  H1219   1.111   .     S
N1222  O1224   1.302   .     A
N1222  C1836   1.445   1_545 S
N1222  O1853   1.301   1_545 S
O1223  N1537   1.301   .     S
O1225  C1522   1.403   .     S
O1225  C1541   1.419   .     S
C1226  H1228   1.111   .     S
C1226  C1229   1.533   .     S
C1226  O1855   1.419   1_545 S
C1226  H1857   1.111   1_545 S
H1227  C1541   1.111   .     S
C1229  H1231   1.110   .     S
C1229  C1232   1.526   .     S
C1229  H1860   1.111   1_545 S
H1230  C1544   1.111   .     S
C1232  H1233   1.111   .     S
C1232  H1234   1.110   .     S
C1232  H1235   1.111   .     S
O1236  C1237   1.417   .     S
C1237  H1239   1.117   .     S
C1237  C1240   1.533   .     S
C1237  H1238   1.111   .     S
C1240  H1242   1.110   .     S
C1240  C1243   1.526   .     S
C1240  H1241   1.112   .     S
C1243  H1246   1.111   .     S
C1243  H1245   1.110   .     S
C1243  H1244   1.111   .     S
N1247  O1249   1.301   .     A
N1247  O1248   1.302   .     A
O1250  C1251   1.416   .     S
C1251  C1254   1.537   .     S
C1251  H1253   1.116   .     S
C1251  H1252   1.110   .     S
C1254  H1256   1.111   .     S
C1254  H1255   1.111   .     S
C1254  C1887   1.526   1_545 S
C1257  H1260   1.110   .     S
C1257  H1259   1.110   .     S
C1257  H1258   1.111   .     S
C1257  C1569   1.526   .     S
Zn1261 O1265   1.961   .     S
Zn1261 O1273   1.921   .     S
Zn1261 O1267   1.930   .     S
Zn1261 O1274   1.927   .     S
Zn1262 O1276   1.929   .     S
Zn1262 O1265   1.942   .     S
Zn1262 O1270   1.929   .     S
Zn1262 O1268   1.936   .     S
Zn1263 O1272   1.930   .     S
Zn1263 O1269   1.926   .     S
Zn1263 O1265   1.940   .     S
Zn1263 O1277   1.940   .     S
Zn1264 O1266   1.938   .     S
Zn1264 O1271   1.939   .     S
Zn1264 O1265   1.925   .     S
Zn1264 O1275   1.934   .     S
O1266  C1278   1.256   .     A
O1267  C1279   1.274   .     A
O1268  C1280   1.266   .     A
O1269  C1281   1.272   .     A
O1270  C1282   1.278   .     A
O1271  C1283   1.283   .     A
O1272  C1282   1.276   .     A
O1273  C1283   1.280   .     A
O1274  C1280   1.283   .     A
O1275  C1281   1.268   .     A
O1276  C1278   1.274   .     A
O1277  C1279   1.287   .     A
C1278  C1310   1.446   .     S
C1279  C1309   1.461   .     S
C1280  C1312   1.441   .     S
C1281  C1311   1.457   .     S
C1282  C1285   1.456   .     S
C1283  C1284   1.469   .     S
C1284  C1287   1.399   .     A
C1284  C1288   1.409   .     A
C1285  C1300   1.395   .     A
C1285  C1301   1.394   .     A
C1286  C1287   1.388   .     A
C1286  C1290   1.401   .     A
C1286  H1306   1.084   .     S
C1287  H1307   1.083   .     S
C1288  C1289   1.420   .     A
C1288  O1341   1.386   .     S
C1289  C1290   1.416   .     A
C1289  C1291   1.429   .     A
C1290  C349    1.388   1_556 S
C1291  C1295   1.427   .     A
C1291  C347    1.428   1_556 S
C1292  C1298   1.429   .     A
C1292  C1293   1.428   .     A
C1293  N1352   1.432   .     S
C1293  C1294   1.392   .     A
C1294  H1302   1.085   .     S
C1295  C1296   1.392   .     A
C1295  O1355   1.384   .     S
C1296  H1305   1.085   .     S
C1296  C352    1.390   1_556 S
C1297  C1298   1.418   .     A
C1297  C1299   1.404   .     A
C1298  C1301   1.411   .     A
C1299  C1300   1.392   .     A
C1299  H1308   1.084   .     S
C1300  H1304   1.083   .     S
C1301  H1303   1.079   .     S
C1309  C1415   1.355   .     S
C1309  N1418   1.441   .     S
C1310  C1519   1.355   1_455 S
C1310  O1526   1.396   1_455 S
C1311  C1627   1.352   .     S
C1311  N1642   1.445   .     S
N1313  O1315   1.302   .     A
N1313  O1314   1.301   .     A
N1313  C1519   1.441   1_455 S
O1316  C1317   1.418   .     S
O1316  C1415   1.396   .     S
C1317  C1320   1.532   .     S
C1317  H1318   1.111   .     S
C1317  H1424   1.114   .     S
H1319  C1527   1.114   1_455 S
C1320  C1323   1.526   .     S
C1320  H1322   1.112   .     S
C1320  H1321   1.112   .     S
C1323  H1325   1.111   .     S
C1323  H1326   1.111   .     S
C1323  H1324   1.111   .     S
N1327  O1329   1.302   .     A
O1328  N1642   1.301   .     S
O1330  C1627   1.403   .     S
O1330  C1646   1.419   .     S
C1331  H1333   1.111   .     S
C1331  C1334   1.533   .     S
H1332  C1646   1.111   .     S
C1334  H1336   1.110   .     S
C1334  C1337   1.526   .     S
H1335  C1649   1.111   .     S
C1337  H1338   1.111   .     S
C1337  H1339   1.110   .     S
C1337  H1340   1.111   .     S
O1341  C1342   1.417   .     S
C1342  H1344   1.117   .     S
C1342  C1345   1.533   .     S
C1342  H1343   1.111   .     S
C1345  H1347   1.110   .     S
C1345  C1348   1.526   .     S
C1345  H1346   1.112   .     S
C1348  H1351   1.111   .     S
C1348  H1350   1.110   .     S
C1348  H1349   1.111   .     S
N1352  O1354   1.301   .     A
N1352  O1353   1.302   .     A
O1355  C1356   1.416   .     S
C1356  C1359   1.537   .     S
C1356  H1358   1.116   .     S
C1356  H1357   1.110   .     S
C1359  H1361   1.111   .     S
C1359  H1360   1.111   .     S
C1362  H1365   1.110   .     S
C1362  H1364   1.110   .     S
C1362  H1363   1.111   .     S
C1362  C1674   1.526   .     S
Zn1366 O1370   1.961   .     S
Zn1366 O1378   1.921   .     S
Zn1366 O1372   1.930   .     S
Zn1366 O1379   1.927   .     S
Zn1367 O1381   1.929   .     S
Zn1367 O1370   1.942   .     S
Zn1367 O1375   1.929   .     S
Zn1367 O1373   1.936   .     S
Zn1368 O1377   1.930   .     S
Zn1368 O1374   1.926   .     S
Zn1368 O1370   1.940   .     S
Zn1368 O1382   1.940   .     S
Zn1369 O1371   1.938   .     S
Zn1369 O1376   1.939   .     S
Zn1369 O1370   1.925   .     S
Zn1369 O1380   1.934   .     S
O1371  C1383   1.256   .     A
O1372  C1384   1.274   .     A
O1373  C1385   1.266   .     A
O1374  C1386   1.272   .     A
O1375  C1387   1.278   .     A
O1376  C1388   1.283   .     A
O1377  C1387   1.276   .     A
O1378  C1388   1.280   .     A
O1379  C1385   1.283   .     A
O1380  C1386   1.268   .     A
O1381  C1383   1.274   .     A
O1382  C1384   1.287   .     A
C1383  C1415   1.446   .     S
C1384  C1414   1.461   .     S
C1385  C1417   1.441   .     S
C1386  C1416   1.457   .     S
C1387  C1390   1.456   .     S
C1388  C1389   1.469   .     S
C1389  C1392   1.399   .     A
C1389  C1393   1.409   .     A
C1390  C1405   1.395   .     A
C1390  C1406   1.394   .     A
C1391  C1392   1.388   .     A
C1391  C1395   1.401   .     A
C1391  H1411   1.084   .     S
C1392  H1412   1.083   .     S
C1393  C1394   1.420   .     A
C1393  O1446   1.386   .     S
C1394  C1395   1.416   .     A
C1394  C1396   1.429   .     A
C1395  C454    1.388   1_556 S
C1396  C1400   1.427   .     A
C1396  C452    1.428   1_556 S
C1397  C1403   1.429   .     A
C1397  C1398   1.428   .     A
C1398  N1457   1.432   .     S
C1398  C1399   1.392   .     A
C1399  H1407   1.085   .     S
C1400  C1401   1.392   .     A
C1400  O1460   1.384   .     S
C1401  H1410   1.085   .     S
C1401  C457    1.390   1_556 S
C1402  C1403   1.418   .     A
C1402  C1404   1.404   .     A
C1403  C1406   1.411   .     A
C1404  C1405   1.392   .     A
C1404  H1413   1.084   .     S
C1405  H1409   1.083   .     S
C1406  H1408   1.079   .     S
C1414  C1520   1.355   .     S
C1414  N1523   1.441   .     S
C1416  C1732   1.352   .     S
C1416  N1747   1.445   .     S
N1418  O1420   1.302   .     A
N1418  O1419   1.301   .     A
O1421  C1422   1.418   .     S
O1421  C1520   1.396   .     S
C1422  C1425   1.532   .     S
C1422  H1423   1.111   .     S
C1422  H1529   1.114   .     S
C1425  C1428   1.526   .     S
C1425  H1427   1.112   .     S
C1425  H1426   1.112   .     S
C1428  H1430   1.111   .     S
C1428  H1431   1.111   .     S
C1428  H1429   1.111   .     S
N1432  O1434   1.302   .     A
O1433  N1747   1.301   .     S
O1435  C1732   1.403   .     S
O1435  C1751   1.419   .     S
C1436  H1438   1.111   .     S
C1436  C1439   1.533   .     S
H1437  C1751   1.111   .     S
C1439  H1441   1.110   .     S
C1439  C1442   1.526   .     S
H1440  C1754   1.111   .     S
C1442  H1443   1.111   .     S
C1442  H1444   1.110   .     S
C1442  H1445   1.111   .     S
O1446  C1447   1.417   .     S
C1447  H1449   1.117   .     S
C1447  C1450   1.533   .     S
C1447  H1448   1.111   .     S
C1450  H1452   1.110   .     S
C1450  C1453   1.526   .     S
C1450  H1451   1.112   .     S
C1453  H1456   1.111   .     S
C1453  H1455   1.110   .     S
C1453  H1454   1.111   .     S
N1457  O1459   1.301   .     A
N1457  O1458   1.302   .     A
O1460  C1461   1.416   .     S
C1461  C1464   1.537   .     S
C1461  H1463   1.116   .     S
C1461  H1462   1.110   .     S
C1464  H1466   1.111   .     S
C1464  H1465   1.111   .     S
C1467  H1470   1.110   .     S
C1467  H1469   1.110   .     S
C1467  H1468   1.111   .     S
C1467  C1779   1.526   .     S
Zn1471 O1475   1.961   .     S
Zn1471 O1483   1.921   .     S
Zn1471 O1477   1.930   .     S
Zn1471 O1484   1.927   .     S
Zn1472 O1486   1.929   .     S
Zn1472 O1475   1.942   .     S
Zn1472 O1480   1.929   .     S
Zn1472 O1478   1.936   .     S
Zn1473 O1482   1.930   .     S
Zn1473 O1479   1.926   .     S
Zn1473 O1475   1.940   .     S
Zn1473 O1487   1.940   .     S
Zn1474 O1476   1.938   .     S
Zn1474 O1481   1.939   .     S
Zn1474 O1475   1.925   .     S
Zn1474 O1485   1.934   .     S
O1476  C1488   1.256   .     A
O1477  C1489   1.274   .     A
O1478  C1490   1.266   .     A
O1479  C1491   1.272   .     A
O1480  C1492   1.278   .     A
O1481  C1493   1.283   .     A
O1482  C1492   1.276   .     A
O1483  C1493   1.280   .     A
O1484  C1490   1.283   .     A
O1485  C1491   1.268   .     A
O1486  C1488   1.274   .     A
O1487  C1489   1.287   .     A
C1488  C1520   1.446   .     S
C1489  C1519   1.461   .     S
C1490  C1522   1.441   .     S
C1491  C1521   1.457   .     S
C1492  C1495   1.456   .     S
C1493  C1494   1.469   .     S
C1494  C1497   1.399   .     A
C1494  C1498   1.409   .     A
C1495  C1510   1.395   .     A
C1495  C1511   1.394   .     A
C1496  C1497   1.388   .     A
C1496  C1500   1.401   .     A
C1496  H1516   1.084   .     S
C1497  H1517   1.083   .     S
C1498  C1499   1.420   .     A
C1498  O1551   1.386   .     S
C1499  C1500   1.416   .     A
C1499  C1501   1.429   .     A
C1500  C559    1.388   1_556 S
C1501  C1505   1.427   .     A
C1501  C557    1.428   1_556 S
C1502  C1508   1.429   .     A
C1502  C1503   1.428   .     A
C1503  N1562   1.432   .     S
C1503  C1504   1.392   .     A
C1504  H1512   1.085   .     S
C1505  C1506   1.392   .     A
C1505  O1565   1.384   .     S
C1506  H1515   1.085   .     S
C1506  C562    1.390   1_556 S
C1507  C1508   1.418   .     A
C1507  C1509   1.404   .     A
C1508  C1511   1.411   .     A
C1509  C1510   1.392   .     A
C1509  H1518   1.084   .     S
C1510  H1514   1.083   .     S
C1511  H1513   1.079   .     S
C1519  C1310   1.355   1_655 S
C1519  N1313   1.441   1_655 S
C1521  C1837   1.352   .     S
C1521  N1852   1.445   .     S
N1523  O1525   1.302   .     A
N1523  O1524   1.301   .     A
O1526  C1527   1.418   .     S
O1526  C1310   1.396   1_655 S
C1527  C1530   1.532   .     S
C1527  H1528   1.111   .     S
C1527  H1319   1.114   1_655 S
C1530  C1533   1.526   .     S
C1530  H1532   1.112   .     S
C1530  H1531   1.112   .     S
C1533  H1535   1.111   .     S
C1533  H1536   1.111   .     S
C1533  H1534   1.111   .     S
N1537  O1539   1.302   .     A
O1538  N1852   1.301   .     S
O1540  C1837   1.403   .     S
O1540  C1856   1.419   .     S
C1541  H1543   1.111   .     S
C1541  C1544   1.533   .     S
H1542  C1856   1.111   .     S
C1544  H1546   1.110   .     S
C1544  C1547   1.526   .     S
H1545  C1859   1.111   .     S
C1547  H1548   1.111   .     S
C1547  H1549   1.110   .     S
C1547  H1550   1.111   .     S
O1551  C1552   1.417   .     S
C1552  H1554   1.117   .     S
C1552  C1555   1.533   .     S
C1552  H1553   1.111   .     S
C1555  H1557   1.110   .     S
C1555  C1558   1.526   .     S
C1555  H1556   1.112   .     S
C1558  H1561   1.111   .     S
C1558  H1560   1.110   .     S
C1558  H1559   1.111   .     S
N1562  O1564   1.301   .     A
N1562  O1563   1.302   .     A
O1565  C1566   1.416   .     S
C1566  C1569   1.537   .     S
C1566  H1568   1.116   .     S
C1566  H1567   1.110   .     S
C1569  H1571   1.111   .     S
C1569  H1570   1.111   .     S
C1572  H1575   1.110   .     S
C1572  H1574   1.110   .     S
C1572  H1573   1.111   .     S
C1572  C1884   1.526   .     S
Zn1576 O1580   1.961   .     S
Zn1576 O1588   1.921   .     S
Zn1576 O1582   1.930   .     S
Zn1576 O1589   1.927   .     S
Zn1577 O1591   1.929   .     S
Zn1577 O1580   1.942   .     S
Zn1577 O1585   1.929   .     S
Zn1577 O1583   1.936   .     S
Zn1578 O1587   1.930   .     S
Zn1578 O1584   1.926   .     S
Zn1578 O1580   1.940   .     S
Zn1578 O1592   1.940   .     S
Zn1579 O1581   1.938   .     S
Zn1579 O1586   1.939   .     S
Zn1579 O1580   1.925   .     S
Zn1579 O1590   1.934   .     S
O1581  C1593   1.256   .     A
O1582  C1594   1.274   .     A
O1583  C1595   1.266   .     A
O1584  C1596   1.272   .     A
O1585  C1597   1.278   .     A
O1586  C1598   1.283   .     A
O1587  C1597   1.276   .     A
O1588  C1598   1.280   .     A
O1589  C1595   1.283   .     A
O1590  C1596   1.268   .     A
O1591  C1593   1.274   .     A
O1592  C1594   1.287   .     A
C1593  C1625   1.446   .     S
C1594  C1624   1.461   .     S
C1595  C1627   1.441   .     S
C1596  C1626   1.457   .     S
C1597  C1600   1.456   .     S
C1598  C1599   1.469   .     S
C1599  C1602   1.399   .     A
C1599  C1603   1.409   .     A
C1600  C1615   1.395   .     A
C1600  C1616   1.394   .     A
C1601  C1602   1.388   .     A
C1601  C1605   1.401   .     A
C1601  H1621   1.084   .     S
C1602  H1622   1.083   .     S
C1603  C1604   1.420   .     A
C1603  O1656   1.386   .     S
C1604  C1605   1.416   .     A
C1604  C1606   1.429   .     A
C1605  C664    1.388   1_556 S
C1606  C1610   1.427   .     A
C1606  C662    1.428   1_556 S
C1607  C1613   1.429   .     A
C1607  C1608   1.428   .     A
C1608  N1667   1.432   .     S
C1608  C1609   1.392   .     A
C1609  H1617   1.085   .     S
C1610  C1611   1.392   .     A
C1610  O1670   1.384   .     S
C1611  H1620   1.085   .     S
C1611  C667    1.390   1_556 S
C1612  C1613   1.418   .     A
C1612  C1614   1.404   .     A
C1613  C1616   1.411   .     A
C1614  C1615   1.392   .     A
C1614  H1623   1.084   .     S
C1615  H1619   1.083   .     S
C1616  H1618   1.079   .     S
C1624  C1730   1.355   .     S
C1624  N1733   1.441   .     S
C1625  C1834   1.355   1_455 S
C1625  O1841   1.396   1_455 S
C1626  C997    1.352   1_565 S
C1626  N1012   1.445   1_565 S
N1628  O1630   1.302   .     A
N1628  O1629   1.301   .     A
N1628  C1834   1.441   1_455 S
O1631  C1632   1.418   .     S
O1631  C1730   1.396   .     S
C1632  C1635   1.532   .     S
C1632  H1633   1.111   .     S
C1632  H1739   1.114   .     S
H1634  C1842   1.114   1_455 S
C1635  C1638   1.526   .     S
C1635  H1637   1.112   .     S
C1635  H1636   1.112   .     S
C1638  H1640   1.111   .     S
C1638  H1641   1.111   .     S
C1638  H1639   1.111   .     S
N1642  O1644   1.302   .     A
O1643  N1012   1.301   1_565 S
O1645  C997    1.403   1_565 S
O1645  C1016   1.419   1_565 S
C1646  H1648   1.111   .     S
C1646  C1649   1.533   .     S
H1647  C1016   1.111   1_565 S
C1649  H1651   1.110   .     S
C1649  C1652   1.526   .     S
H1650  C1019   1.111   1_565 S
C1652  H1653   1.111   .     S
C1652  H1654   1.110   .     S
C1652  H1655   1.111   .     S
O1656  C1657   1.417   .     S
C1657  H1659   1.117   .     S
C1657  C1660   1.533   .     S
C1657  H1658   1.111   .     S
C1660  H1662   1.110   .     S
C1660  C1663   1.526   .     S
C1660  H1661   1.112   .     S
C1663  H1666   1.111   .     S
C1663  H1665   1.110   .     S
C1663  H1664   1.111   .     S
N1667  O1669   1.301   .     A
N1667  O1668   1.302   .     A
O1670  C1671   1.416   .     S
C1671  C1674   1.537   .     S
C1671  H1673   1.116   .     S
C1671  H1672   1.110   .     S
C1674  H1676   1.111   .     S
C1674  H1675   1.111   .     S
C1677  H1680   1.110   .     S
C1677  H1679   1.110   .     S
C1677  H1678   1.111   .     S
C1677  C1044   1.526   1_565 S
Zn1681 O1685   1.961   .     S
Zn1681 O1693   1.921   .     S
Zn1681 O1687   1.930   .     S
Zn1681 O1694   1.927   .     S
Zn1682 O1696   1.929   .     S
Zn1682 O1685   1.942   .     S
Zn1682 O1690   1.929   .     S
Zn1682 O1688   1.936   .     S
Zn1683 O1692   1.930   .     S
Zn1683 O1689   1.926   .     S
Zn1683 O1685   1.940   .     S
Zn1683 O1697   1.940   .     S
Zn1684 O1686   1.938   .     S
Zn1684 O1691   1.939   .     S
Zn1684 O1685   1.925   .     S
Zn1684 O1695   1.934   .     S
O1686  C1698   1.256   .     A
O1687  C1699   1.274   .     A
O1688  C1700   1.266   .     A
O1689  C1701   1.272   .     A
O1690  C1702   1.278   .     A
O1691  C1703   1.283   .     A
O1692  C1702   1.276   .     A
O1693  C1703   1.280   .     A
O1694  C1700   1.283   .     A
O1695  C1701   1.268   .     A
O1696  C1698   1.274   .     A
O1697  C1699   1.287   .     A
C1698  C1730   1.446   .     S
C1699  C1729   1.461   .     S
C1700  C1732   1.441   .     S
C1701  C1731   1.457   .     S
C1702  C1705   1.456   .     S
C1703  C1704   1.469   .     S
C1704  C1707   1.399   .     A
C1704  C1708   1.409   .     A
C1705  C1720   1.395   .     A
C1705  C1721   1.394   .     A
C1706  C1707   1.388   .     A
C1706  C1710   1.401   .     A
C1706  H1726   1.084   .     S
C1707  H1727   1.083   .     S
C1708  C1709   1.420   .     A
C1708  O1761   1.386   .     S
C1709  C1710   1.416   .     A
C1709  C1711   1.429   .     A
C1710  C769    1.388   1_556 S
C1711  C1715   1.427   .     A
C1711  C767    1.428   1_556 S
C1712  C1718   1.429   .     A
C1712  C1713   1.428   .     A
C1713  N1772   1.432   .     S
C1713  C1714   1.392   .     A
C1714  H1722   1.085   .     S
C1715  C1716   1.392   .     A
C1715  O1775   1.384   .     S
C1716  H1725   1.085   .     S
C1716  C772    1.390   1_556 S
C1717  C1718   1.418   .     A
C1717  C1719   1.404   .     A
C1718  C1721   1.411   .     A
C1719  C1720   1.392   .     A
C1719  H1728   1.084   .     S
C1720  H1724   1.083   .     S
C1721  H1723   1.079   .     S
C1729  C1835   1.355   .     S
C1729  N1838   1.441   .     S
C1731  C1102   1.352   1_565 S
C1731  N1117   1.445   1_565 S
N1733  O1735   1.302   .     A
N1733  O1734   1.301   .     A
O1736  C1737   1.418   .     S
O1736  C1835   1.396   .     S
C1737  C1740   1.532   .     S
C1737  H1738   1.111   .     S
C1737  H1844   1.114   .     S
C1740  C1743   1.526   .     S
C1740  H1742   1.112   .     S
C1740  H1741   1.112   .     S
C1743  H1745   1.111   .     S
C1743  H1746   1.111   .     S
C1743  H1744   1.111   .     S
N1747  O1749   1.302   .     A
O1748  N1117   1.301   1_565 S
O1750  C1102   1.403   1_565 S
O1750  C1121   1.419   1_565 S
C1751  H1753   1.111   .     S
C1751  C1754   1.533   .     S
H1752  C1121   1.111   1_565 S
C1754  H1756   1.110   .     S
C1754  C1757   1.526   .     S
H1755  C1124   1.111   1_565 S
C1757  H1758   1.111   .     S
C1757  H1759   1.110   .     S
C1757  H1760   1.111   .     S
O1761  C1762   1.417   .     S
C1762  H1764   1.117   .     S
C1762  C1765   1.533   .     S
C1762  H1763   1.111   .     S
C1765  H1767   1.110   .     S
C1765  C1768   1.526   .     S
C1765  H1766   1.112   .     S
C1768  H1771   1.111   .     S
C1768  H1770   1.110   .     S
C1768  H1769   1.111   .     S
N1772  O1774   1.301   .     A
N1772  O1773   1.302   .     A
O1775  C1776   1.416   .     S
C1776  C1779   1.537   .     S
C1776  H1778   1.116   .     S
C1776  H1777   1.110   .     S
C1779  H1781   1.111   .     S
C1779  H1780   1.111   .     S
C1782  H1785   1.110   .     S
C1782  H1784   1.110   .     S
C1782  H1783   1.111   .     S
C1782  C1149   1.526   1_565 S
Zn1786 O1790   1.961   .     S
Zn1786 O1798   1.921   .     S
Zn1786 O1792   1.930   .     S
Zn1786 O1799   1.927   .     S
Zn1787 O1801   1.929   .     S
Zn1787 O1790   1.942   .     S
Zn1787 O1795   1.929   .     S
Zn1787 O1793   1.936   .     S
Zn1788 O1797   1.930   .     S
Zn1788 O1794   1.926   .     S
Zn1788 O1790   1.940   .     S
Zn1788 O1802   1.940   .     S
Zn1789 O1791   1.938   .     S
Zn1789 O1796   1.939   .     S
Zn1789 O1790   1.925   .     S
Zn1789 O1800   1.934   .     S
O1791  C1803   1.256   .     A
O1792  C1804   1.274   .     A
O1793  C1805   1.266   .     A
O1794  C1806   1.272   .     A
O1795  C1807   1.278   .     A
O1796  C1808   1.283   .     A
O1797  C1807   1.276   .     A
O1798  C1808   1.280   .     A
O1799  C1805   1.283   .     A
O1800  C1806   1.268   .     A
O1801  C1803   1.274   .     A
O1802  C1804   1.287   .     A
C1803  C1835   1.446   .     S
C1804  C1834   1.461   .     S
C1805  C1837   1.441   .     S
C1806  C1836   1.457   .     S
C1807  C1810   1.456   .     S
C1808  C1809   1.469   .     S
C1809  C1812   1.399   .     A
C1809  C1813   1.409   .     A
C1810  C1825   1.395   .     A
C1810  C1826   1.394   .     A
C1811  C1812   1.388   .     A
C1811  C1815   1.401   .     A
C1811  H1831   1.084   .     S
C1812  H1832   1.083   .     S
C1813  C1814   1.420   .     A
C1813  O1866   1.386   .     S
C1814  C1815   1.416   .     A
C1814  C1816   1.429   .     A
C1815  C874    1.388   1_556 S
C1816  C1820   1.427   .     A
C1816  C872    1.428   1_556 S
C1817  C1823   1.429   .     A
C1817  C1818   1.428   .     A
C1818  N1877   1.432   .     S
C1818  C1819   1.392   .     A
C1819  H1827   1.085   .     S
C1820  C1821   1.392   .     A
C1820  O1880   1.384   .     S
C1821  H1830   1.085   .     S
C1821  C877    1.390   1_556 S
C1822  C1823   1.418   .     A
C1822  C1824   1.404   .     A
C1823  C1826   1.411   .     A
C1824  C1825   1.392   .     A
C1824  H1833   1.084   .     S
C1825  H1829   1.083   .     S
C1826  H1828   1.079   .     S
C1834  C1625   1.355   1_655 S
C1834  N1628   1.441   1_655 S
C1836  C1207   1.352   1_565 S
C1836  N1222   1.445   1_565 S
N1838  O1840   1.302   .     A
N1838  O1839   1.301   .     A
O1841  C1842   1.418   .     S
O1841  C1625   1.396   1_655 S
C1842  C1845   1.532   .     S
C1842  H1843   1.111   .     S
C1842  H1634   1.114   1_655 S
C1845  C1848   1.526   .     S
C1845  H1847   1.112   .     S
C1845  H1846   1.112   .     S
C1848  H1850   1.111   .     S
C1848  H1851   1.111   .     S
C1848  H1849   1.111   .     S
N1852  O1854   1.302   .     A
O1853  N1222   1.301   1_565 S
O1855  C1207   1.403   1_565 S
O1855  C1226   1.419   1_565 S
C1856  H1858   1.111   .     S
C1856  C1859   1.533   .     S
H1857  C1226   1.111   1_565 S
C1859  H1861   1.110   .     S
C1859  C1862   1.526   .     S
H1860  C1229   1.111   1_565 S
C1862  H1863   1.111   .     S
C1862  H1864   1.110   .     S
C1862  H1865   1.111   .     S
O1866  C1867   1.417   .     S
C1867  H1869   1.117   .     S
C1867  C1870   1.533   .     S
C1867  H1868   1.111   .     S
C1870  H1872   1.110   .     S
C1870  C1873   1.526   .     S
C1870  H1871   1.112   .     S
C1873  H1876   1.111   .     S
C1873  H1875   1.110   .     S
C1873  H1874   1.111   .     S
N1877  O1879   1.301   .     A
N1877  O1878   1.302   .     A
O1880  C1881   1.416   .     S
C1881  C1884   1.537   .     S
C1881  H1883   1.116   .     S
C1881  H1882   1.110   .     S
C1884  H1886   1.111   .     S
C1884  H1885   1.111   .     S
C1887  H1890   1.110   .     S
C1887  H1889   1.110   .     S
C1887  H1888   1.111   .     S
C1887  C1254   1.526   1_565 S
