data_str_m1_o1_o17_pcu_sym.46
_audit_creation_date              2020-01-03
_audit_creation_method            'Materials Studio'
_symmetry_space_group_name_H-M    'P1'
_symmetry_Int_Tables_number       1
_symmetry_cell_setting            triclinic
loop_
_symmetry_equiv_pos_as_xyz
  x,y,z
_cell_length_a                    36.6318
_cell_length_b                    36.6259
_cell_length_c                    34.4311
_cell_angle_alpha                 89.9177
_cell_angle_beta                  89.9467
_cell_angle_gamma                 89.9468
loop_
_atom_site_label
_atom_site_type_symbol
_atom_site_fract_x
_atom_site_fract_y
_atom_site_fract_z
_atom_site_U_iso_or_equiv
_atom_site_adp_type
_atom_site_occupancy
C1     C     0.49770   0.28413   0.41721   0.00000  Uiso   1.00
C2     C     0.49220   0.21807   0.58174   0.00000  Uiso   1.00
C3     C     0.21663   0.49815   0.41764   0.00000  Uiso   1.00
C4     C     0.28340   0.00170   0.58239   0.00000  Uiso   1.00
C5     C     0.49780   0.21732   0.41877   0.00000  Uiso   1.00
C6     C     0.00634   0.28338   0.58204   0.00000  Uiso   1.00
C7     C     0.28337   0.49980   0.41753   0.00000  Uiso   1.00
C8     C     0.21665   0.00068   0.58246   0.00000  Uiso   1.00
C9     C     0.25703   0.03220   0.91823   0.00000  Uiso   1.00
C10    C     0.25314   0.46599   0.08276   0.00000  Uiso   1.00
C11    C     0.46892   0.23938   0.91853   0.00000  Uiso   1.00
C12    C     0.03456   0.25029   0.08278   0.00000  Uiso   1.00
C13    C     0.24478   0.46650   0.91794   0.00000  Uiso   1.00
C14    C     0.25140   0.03279   0.08122   0.00000  Uiso   1.00
C15    C     0.03300   0.25835   0.91792   0.00000  Uiso   1.00
C16    C     0.46801   0.24575   0.08135   0.00000  Uiso   1.00
C17    C     0.49952   0.25037   0.39795   0.00000  Uiso   1.00
C18    C     0.49941   0.25055   0.60184   0.00000  Uiso   1.00
C19    C     0.24996   0.00022   0.39782   0.00000  Uiso   1.00
C20    C     0.25004   0.49983   0.60218   0.00000  Uiso   1.00
C21    C     0.25065   0.49954   0.89815   0.00000  Uiso   1.00
C22    C     0.25048   0.49970   0.10203   0.00000  Uiso   1.00
C23    C     0.00070   0.24919   0.89824   0.00000  Uiso   1.00
C24    C     0.00074   0.24968   0.10204   0.00000  Uiso   1.00
C25    C     0.47517   0.18831   0.47930   0.00000  Uiso   1.00
C26    C     0.00520   0.31805   0.51970   0.00000  Uiso   1.00
C27    C     0.31677   0.00468   0.47987   0.00000  Uiso   1.00
C28    C     0.18321   0.49596   0.52013   0.00000  Uiso   1.00
C29    C     0.00797   0.31747   0.47912   0.00000  Uiso   1.00
C30    C     0.47288   0.18902   0.52000   0.00000  Uiso   1.00
C31    C     0.18307   0.00162   0.48008   0.00000  Uiso   1.00
C32    C     0.31696   0.49877   0.51988   0.00000  Uiso   1.00
C33    C     0.24681   0.43190   0.98027   0.00000  Uiso   1.00
C34    C     0.27330   0.06240   0.02068   0.00000  Uiso   1.00
C35    C     0.06784   0.25939   0.98007   0.00000  Uiso   1.00
C36    C     0.44076   0.22037   0.02126   0.00000  Uiso   1.00
C37    C     0.27563   0.06174   0.97998   0.00000  Uiso   1.00
C38    C     0.24383   0.43242   0.02083   0.00000  Uiso   1.00
C39    C     0.44152   0.21801   0.98056   0.00000  Uiso   1.00
C40    C     0.06715   0.26232   0.02063   0.00000  Uiso   1.00
C41    C     0.24996   0.00001   0.35560   0.00000  Uiso   1.00
C42    C     0.25002   0.49999   0.64441   0.00000  Uiso   1.00
C43    C     0.49996   0.24988   0.35569   0.00000  Uiso   1.00
C44    C     0.49997   0.25006   0.64427   0.00000  Uiso   1.00
C45    C     0.00004   0.24992   0.85577   0.00000  Uiso   1.00
C46    C     0.49984   0.25000   0.14431   0.00000  Uiso   1.00
C47    C     0.25004   0.49999   0.85573   0.00000  Uiso   1.00
C48    C     0.25004   0.00015   0.14431   0.00000  Uiso   1.00
C49    C     0.18000   0.06992   0.25003   0.00000  Uiso   1.00
C50    C     0.31997   0.43003   0.75000   0.00000  Uiso   1.00
C51    C     0.43002   0.18003   0.25001   0.00000  Uiso   1.00
C52    C     0.06993   0.32006   0.74987   0.00000  Uiso   1.00
C53    C     0.31999   0.43004   0.25000   0.00000  Uiso   1.00
C54    C     0.18006   0.07001   0.75001   0.00000  Uiso   1.00
C55    C     0.06995   0.31999   0.24996   0.00000  Uiso   1.00
C56    C     0.43004   0.18002   0.75005   0.00000  Uiso   1.00
C57    C     0.17999   0.43011   0.74994   0.00000  Uiso   1.00
C58    C     0.31998   0.06995   0.24999   0.00000  Uiso   1.00
C59    C     0.43005   0.31995   0.74999   0.00000  Uiso   1.00
C60    C     0.06998   0.18005   0.25000   0.00000  Uiso   1.00
C61    C     0.31993   0.07003   0.75001   0.00000  Uiso   1.00
C62    C     0.18008   0.42996   0.24998   0.00000  Uiso   1.00
C63    C     0.06995   0.18001   0.75001   0.00000  Uiso   1.00
C64    C     0.42998   0.31992   0.24995   0.00000  Uiso   1.00
C65    C     0.14361   0.38358   0.21472   0.00000  Uiso   1.00
C66    C     0.35671   0.11608   0.78534   0.00000  Uiso   1.00
C67    C     0.11673   0.14386   0.21492   0.00000  Uiso   1.00
C68    C     0.38272   0.35540   0.78485   0.00000  Uiso   1.00
C69    C     0.35613   0.11672   0.21499   0.00000  Uiso   1.00
C70    C     0.14062   0.38654   0.78543   0.00000  Uiso   1.00
C71    C     0.38414   0.35696   0.21451   0.00000  Uiso   1.00
C72    C     0.11580   0.14306   0.78506   0.00000  Uiso   1.00
C73    C     0.14350   0.11634   0.78526   0.00000  Uiso   1.00
C74    C     0.35758   0.38481   0.21470   0.00000  Uiso   1.00
C75    C     0.11277   0.36019   0.78535   0.00000  Uiso   1.00
C76    C     0.38399   0.14324   0.21494   0.00000  Uiso   1.00
C77    C     0.35636   0.38348   0.78495   0.00000  Uiso   1.00
C78    C     0.14352   0.11625   0.21516   0.00000  Uiso   1.00
C79    C     0.38434   0.14281   0.78517   0.00000  Uiso   1.00
C80    C     0.11594   0.35686   0.21492   0.00000  Uiso   1.00
C81    C     0.39333   0.13393   0.71478   0.00000  Uiso   1.00
C82    C     0.10631   0.36641   0.28516   0.00000  Uiso   1.00
C83    C     0.36653   0.39370   0.71504   0.00000  Uiso   1.00
C84    C     0.13307   0.10589   0.28516   0.00000  Uiso   1.00
C85    C     0.10973   0.36341   0.71407   0.00000  Uiso   1.00
C86    C     0.39323   0.13382   0.28509   0.00000  Uiso   1.00
C87    C     0.13431   0.10711   0.71494   0.00000  Uiso   1.00
C88    C     0.36559   0.39265   0.28535   0.00000  Uiso   1.00
C89    C     0.39236   0.36506   0.28512   0.00000  Uiso   1.00
C90    C     0.10644   0.13364   0.71478   0.00000  Uiso   1.00
C91    C     0.36681   0.10584   0.28503   0.00000  Uiso   1.00
C92    C     0.13594   0.39154   0.71405   0.00000  Uiso   1.00
C93    C     0.10642   0.13367   0.28496   0.00000  Uiso   1.00
C94    C     0.39460   0.36731   0.71513   0.00000  Uiso   1.00
C95    C     0.13427   0.39282   0.28503   0.00000  Uiso   1.00
C96    C     0.36545   0.10746   0.71488   0.00000  Uiso   1.00
C97    C     0.48994   0.21859   0.45902   0.00000  Uiso   1.00
C98    C     0.00242   0.28487   0.54099   0.00000  Uiso   1.00
C99    C     0.28375   0.00165   0.45868   0.00000  Uiso   1.00
C100   C     0.21626   0.49884   0.54132   0.00000  Uiso   1.00
C101   C     0.00057   0.28493   0.45833   0.00000  Uiso   1.00
C102   C     0.48737   0.21908   0.54092   0.00000  Uiso   1.00
C103   C     0.21618   0.00006   0.45878   0.00000  Uiso   1.00
C104   C     0.28385   0.00012   0.54122   0.00000  Uiso   1.00
C105   C     0.24870   0.46514   0.95899   0.00000  Uiso   1.00
C106   C     0.25931   0.03173   0.04097   0.00000  Uiso   1.00
C107   C     0.03487   0.25442   0.95895   0.00000  Uiso   1.00
C108   C     0.46975   0.23769   0.04119   0.00000  Uiso   1.00
C109   C     0.26192   0.03132   0.95906   0.00000  Uiso   1.00
C110   C     0.25036   0.46514   0.04164   0.00000  Uiso   1.00
C111   C     0.47036   0.23467   0.95938   0.00000  Uiso   1.00
C112   C     0.03518   0.25293   0.04162   0.00000  Uiso   1.00
C113   C     0.09787   0.34834   0.25005   0.00000  Uiso   1.00
C114   C     0.40211   0.15166   0.74998   0.00000  Uiso   1.00
C115   C     0.15165   0.09785   0.25018   0.00000  Uiso   1.00
C116   C     0.34816   0.40187   0.75000   0.00000  Uiso   1.00
C117   C     0.40185   0.15186   0.25003   0.00000  Uiso   1.00
C118   C     0.09802   0.34834   0.74973   0.00000  Uiso   1.00
C119   C     0.34829   0.40202   0.25005   0.00000  Uiso   1.00
C120   C     0.15212   0.09838   0.75012   0.00000  Uiso   1.00
C121   C     0.09788   0.15167   0.74991   0.00000  Uiso   1.00
C122   C     0.40162   0.34782   0.24980   0.00000  Uiso   1.00
C123   C     0.15172   0.40218   0.74978   0.00000  Uiso   1.00
C124   C     0.34816   0.09804   0.25001   0.00000  Uiso   1.00
C125   C     0.40192   0.34808   0.74999   0.00000  Uiso   1.00
C126   C     0.09828   0.15205   0.24992   0.00000  Uiso   1.00
C127   C     0.34785   0.09841   0.75012   0.00000  Uiso   1.00
C128   C     0.15216   0.40157   0.24986   0.00000  Uiso   1.00
C129   C     0.49502   0.25194   0.47928   0.00000  Uiso   1.00
C130   C     0.49506   0.25199   0.52045   0.00000  Uiso   1.00
C131   C     0.25000   0.00026   0.47934   0.00000  Uiso   1.00
C132   C     0.25003   0.00008   0.52066   0.00000  Uiso   1.00
C133   C     0.25512   0.49821   0.97953   0.00000  Uiso   1.00
C134   C     0.25510   0.49826   0.02070   0.00000  Uiso   1.00
C135   C     0.00264   0.24481   0.97965   0.00000  Uiso   1.00
C136   C     0.00264   0.24500   0.02080   0.00000  Uiso   1.00
O137   O     0.25000   0.00000   0.25000   0.00000  Uiso   1.00
O138   O     0.25000   0.00000   0.75000   0.00000  Uiso   1.00
O139   O     0.00000   0.25000   0.25000   0.00000  Uiso   1.00
O140   O    -0.00000   0.25000   0.75000   0.00000  Uiso   1.00
O141   O     0.25000   0.46963   0.33755   0.00000  Uiso   1.00
O142   O     0.25000   0.03037   0.66245   0.00000  Uiso   1.00
O143   O     0.03036   0.25000   0.33755   0.00000  Uiso   1.00
O144   O     0.46963   0.25000   0.66245   0.00000  Uiso   1.00
O145   O     0.25000   0.03037   0.33755   0.00000  Uiso   1.00
O146   O     0.25000   0.46963   0.66245   0.00000  Uiso   1.00
O147   O     0.46963   0.25000   0.33755   0.00000  Uiso   1.00
O148   O     0.03036   0.25000   0.66245   0.00000  Uiso   1.00
O149   O     0.00000   0.21963   0.83755   0.00000  Uiso   1.00
O150   O     0.00000   0.28036   0.16245   0.00000  Uiso   1.00
O151   O     0.28036  -0.00000   0.83755   0.00000  Uiso   1.00
O152   O     0.21963   0.00000   0.16245   0.00000  Uiso   1.00
O153   O     0.00000   0.28036   0.83755   0.00000  Uiso   1.00
O154   O    -0.00000   0.21964   0.16245   0.00000  Uiso   1.00
O155   O     0.21963  -0.00000   0.83755   0.00000  Uiso   1.00
O156   O     0.28036   0.00000   0.16245   0.00000  Uiso   1.00
O157   O     0.20724   0.07308   0.27302   0.00000  Uiso   1.00
O158   O     0.29275   0.42692   0.72698   0.00000  Uiso   1.00
O159   O     0.42692   0.20725   0.27302   0.00000  Uiso   1.00
O160   O     0.07307   0.29275   0.72698   0.00000  Uiso   1.00
O161   O     0.29275   0.42692   0.27302   0.00000  Uiso   1.00
O162   O     0.20724   0.07308   0.72698   0.00000  Uiso   1.00
O163   O     0.07307   0.29275   0.27302   0.00000  Uiso   1.00
O164   O     0.42692   0.20725   0.72698   0.00000  Uiso   1.00
O165   O     0.20724   0.42692   0.72698   0.00000  Uiso   1.00
O166   O     0.29275   0.07308   0.27302   0.00000  Uiso   1.00
O167   O     0.42692   0.29275   0.72698   0.00000  Uiso   1.00
O168   O     0.07307   0.20724   0.27302   0.00000  Uiso   1.00
O169   O     0.29275   0.07308   0.72698   0.00000  Uiso   1.00
O170   O     0.20724   0.42692   0.27302   0.00000  Uiso   1.00
O171   O     0.07307   0.20724   0.72698   0.00000  Uiso   1.00
O172   O     0.42692   0.29275   0.27302   0.00000  Uiso   1.00
O173   O     0.45724   0.32307   0.77302   0.00000  Uiso   1.00
O174   O     0.04275   0.17692   0.22698   0.00000  Uiso   1.00
O175   O     0.17692   0.45724   0.77302   0.00000  Uiso   1.00
O176   O     0.32307   0.04276   0.22698   0.00000  Uiso   1.00
O177   O     0.04275   0.17692   0.77302   0.00000  Uiso   1.00
O178   O     0.45724   0.32307   0.22698   0.00000  Uiso   1.00
O179   O     0.32307   0.04276   0.77302   0.00000  Uiso   1.00
O180   O     0.17692   0.45724   0.22698   0.00000  Uiso   1.00
O181   O     0.45724   0.17693   0.22698   0.00000  Uiso   1.00
O182   O     0.04275   0.32307   0.77302   0.00000  Uiso   1.00
O183   O     0.17692   0.04276   0.22698   0.00000  Uiso   1.00
O184   O     0.32307   0.45724   0.77302   0.00000  Uiso   1.00
O185   O     0.04275   0.32307   0.22698   0.00000  Uiso   1.00
O186   O     0.45724   0.17693   0.77302   0.00000  Uiso   1.00
O187   O     0.32307   0.45724   0.22698   0.00000  Uiso   1.00
O188   O     0.17692   0.04276   0.77302   0.00000  Uiso   1.00
Zn189  Zn    0.20659  -0.00000   0.21735   0.00000  Uiso   1.00
Zn190  Zn    0.29340  -0.00000   0.78265   0.00000  Uiso   1.00
Zn191  Zn   -0.00000   0.20660   0.21735   0.00000  Uiso   1.00
Zn192  Zn    0.00000   0.29340   0.78265   0.00000  Uiso   1.00
Zn193  Zn    0.29340  -0.00000   0.21735   0.00000  Uiso   1.00
Zn194  Zn    0.20659  -0.00000   0.78265   0.00000  Uiso   1.00
Zn195  Zn    0.00000   0.29340   0.21735   0.00000  Uiso   1.00
Zn196  Zn    0.00000   0.20659   0.78265   0.00000  Uiso   1.00
Zn197  Zn    0.45659   0.25000   0.71735   0.00000  Uiso   1.00
Zn198  Zn    0.04340   0.25000   0.28265   0.00000  Uiso   1.00
Zn199  Zn    0.25000   0.45659   0.71735   0.00000  Uiso   1.00
Zn200  Zn    0.25000   0.04341   0.28265   0.00000  Uiso   1.00
Zn201  Zn    0.04340   0.25000   0.71735   0.00000  Uiso   1.00
Zn202  Zn    0.45659   0.25000   0.28265   0.00000  Uiso   1.00
Zn203  Zn    0.25000   0.04341   0.71735   0.00000  Uiso   1.00
Zn204  Zn    0.25000   0.45659   0.28265   0.00000  Uiso   1.00
C205   C     0.45776   0.15841   0.45858   0.00000  Uiso   1.00
N206   N     0.44380   0.13464   0.44221   0.00000  Uiso   1.00
C207   C     0.00111   0.35352   0.53814   0.00000  Uiso   1.00
N208   N     0.49770   0.38186   0.55255   0.00000  Uiso   1.00
C209   C     0.35047   0.01771   0.46227   0.00000  Uiso   1.00
N210   N     0.37733   0.02824   0.44853   0.00000  Uiso   1.00
C211   C     0.14941   0.48329   0.53780   0.00000  Uiso   1.00
N212   N     0.12245   0.47306   0.55159   0.00000  Uiso   1.00
C213   C     0.02263   0.34975   0.46004   0.00000  Uiso   1.00
N214   N     0.03445   0.37548   0.44507   0.00000  Uiso   1.00
C215   C     0.45156   0.16085   0.53937   0.00000  Uiso   1.00
N216   N     0.43446   0.13844   0.55459   0.00000  Uiso   1.00
C217   C     0.14875   0.01293   0.46253   0.00000  Uiso   1.00
N218   N     0.12137   0.02207   0.44884   0.00000  Uiso   1.00
C219   C     0.35136   0.48749   0.53728   0.00000  Uiso   1.00
N220   N     0.37880   0.47837   0.55085   0.00000  Uiso   1.00
C221   C     0.25203   0.39654   0.96189   0.00000  Uiso   1.00
N222   N     0.25634   0.36830   0.94752   0.00000  Uiso   1.00
C223   C     0.28990   0.09276   0.04138   0.00000  Uiso   1.00
N224   N     0.30322   0.11692   0.05771   0.00000  Uiso   1.00
C225   C     0.10346   0.25739   0.96149   0.00000  Uiso   1.00
N226   N     0.13193   0.25566   0.94697   0.00000  Uiso   1.00
C227   C     0.41268   0.20047   0.04241   0.00000  Uiso   1.00
N228   N     0.39036   0.18451   0.05911   0.00000  Uiso   1.00
C229   C     0.29627   0.09042   0.96061   0.00000  Uiso   1.00
N230   N     0.31282   0.11324   0.94538   0.00000  Uiso   1.00
C231   C     0.22983   0.39980   0.03983   0.00000  Uiso   1.00
N232   N     0.21853   0.37380   0.05473   0.00000  Uiso   1.00
C233   C     0.41500   0.19456   0.96147   0.00000  Uiso   1.00
N234   N     0.39390   0.17578   0.94646   0.00000  Uiso   1.00
C235   C     0.09846   0.27908   0.03944   0.00000  Uiso   1.00
N236   N     0.12341   0.29259   0.05419   0.00000  Uiso   1.00
C237   C     0.16628   0.39093   0.17935   0.00000  Uiso   1.00
H238   H     0.19437   0.39984   0.18244   0.00000  Uiso   1.00
O239   O     0.15399   0.38810   0.14658   0.00000  Uiso   1.00
C240   C     0.33437   0.10846   0.82083   0.00000  Uiso   1.00
H241   H     0.30598   0.10054   0.81788   0.00000  Uiso   1.00
O242   O     0.34729   0.10988   0.85342   0.00000  Uiso   1.00
C243   C     0.10957   0.16662   0.17959   0.00000  Uiso   1.00
H244   H     0.10051   0.19469   0.18269   0.00000  Uiso   1.00
O245   O     0.11269   0.15439   0.14683   0.00000  Uiso   1.00
C246   C     0.38882   0.33131   0.81952   0.00000  Uiso   1.00
H247   H     0.39927   0.30382   0.81570   0.00000  Uiso   1.00
O248   O     0.38295   0.34160   0.85261   0.00000  Uiso   1.00
C249   C     0.33287   0.11003   0.17997   0.00000  Uiso   1.00
H250   H     0.30474   0.10139   0.18353   0.00000  Uiso   1.00
O251   O     0.34467   0.11312   0.14699   0.00000  Uiso   1.00
C252   C     0.16044   0.39609   0.82192   0.00000  Uiso   1.00
H253   H     0.18944   0.40204   0.82094   0.00000  Uiso   1.00
O254   O     0.14468   0.39858   0.85302   0.00000  Uiso   1.00
C255   C     0.39187   0.33476   0.17892   0.00000  Uiso   1.00
H256   H     0.40075   0.30660   0.18176   0.00000  Uiso   1.00
O257   O     0.38932   0.34745   0.14627   0.00000  Uiso   1.00
C258   C     0.10690   0.16437   0.82050   0.00000  Uiso   1.00
H259   H     0.11128   0.19367   0.82078   0.00000  Uiso   1.00
O260   O     0.09240   0.14974   0.84839   0.00000  Uiso   1.00
C261   C     0.16608   0.10894   0.82065   0.00000  Uiso   1.00
H262   H     0.19423   0.10013   0.81758   0.00000  Uiso   1.00
O263   O     0.15366   0.11159   0.85340   0.00000  Uiso   1.00
C264   C     0.33723   0.39466   0.17892   0.00000  Uiso   1.00
H265   H     0.30792   0.39054   0.17769   0.00000  Uiso   1.00
O266   O     0.35269   0.40965   0.15184   0.00000  Uiso   1.00
C267   C     0.10072   0.34263   0.82197   0.00000  Uiso   1.00
H268   H     0.10548   0.31370   0.82648   0.00000  Uiso   1.00
O269   O     0.08344   0.35999   0.84601   0.00000  Uiso   1.00
C270   C     0.39297   0.16449   0.17942   0.00000  Uiso   1.00
H271   H     0.38936   0.19390   0.17927   0.00000  Uiso   1.00
O272   O     0.40675   0.14962   0.15129   0.00000  Uiso   1.00
C273   C     0.33501   0.39242   0.82038   0.00000  Uiso   1.00
H274   H     0.30555   0.38928   0.82028   0.00000  Uiso   1.00
O275   O     0.34991   0.40566   0.84875   0.00000  Uiso   1.00
C276   C     0.16545   0.10801   0.17996   0.00000  Uiso   1.00
H277   H     0.19460   0.11326   0.17999   0.00000  Uiso   1.00
O278   O     0.15152   0.09322   0.15191   0.00000  Uiso   1.00
C279   C     0.39314   0.16401   0.82068   0.00000  Uiso   1.00
H280   H     0.38848   0.19326   0.82111   0.00000  Uiso   1.00
O281   O     0.40775   0.14933   0.84847   0.00000  Uiso   1.00
C282   C     0.10725   0.33542   0.17954   0.00000  Uiso   1.00
H283   H     0.11180   0.30613   0.17936   0.00000  Uiso   1.00
O284   O     0.09277   0.34992   0.15157   0.00000  Uiso   1.00
C285   C     0.41601   0.14123   0.67944   0.00000  Uiso   1.00
H286   H     0.44435   0.14924   0.68263   0.00000  Uiso   1.00
O287   O     0.40349   0.13938   0.64670   0.00000  Uiso   1.00
C288   C     0.08331   0.35937   0.32042   0.00000  Uiso   1.00
H289   H     0.05544   0.34987   0.31714   0.00000  Uiso   1.00
O290   O     0.09498   0.36329   0.35331   0.00000  Uiso   1.00
C291   C     0.35762   0.41512   0.67964   0.00000  Uiso   1.00
H292   H     0.36085   0.44457   0.67977   0.00000  Uiso   1.00
O293   O     0.34431   0.40030   0.65126   0.00000  Uiso   1.00
C294   C     0.13994   0.08273   0.32031   0.00000  Uiso   1.00
H295   H     0.14962   0.05490   0.31696   0.00000  Uiso   1.00
O296   O     0.13575   0.09427   0.35322   0.00000  Uiso   1.00
C297   C     0.09217   0.35128   0.67753   0.00000  Uiso   1.00
H298   H     0.06293   0.35453   0.67383   0.00000  Uiso   1.00
O299   O     0.10988   0.33545   0.65267   0.00000  Uiso   1.00
C300   C     0.41434   0.14282   0.32060   0.00000  Uiso   1.00
H301   H     0.44373   0.13912   0.32082   0.00000  Uiso   1.00
O302   O     0.39937   0.15663   0.34866   0.00000  Uiso   1.00
C303   C     0.14375   0.08635   0.67932   0.00000  Uiso   1.00
H304   H     0.13969   0.05701   0.67855   0.00000  Uiso   1.00
O305   O     0.15835   0.10155   0.65182   0.00000  Uiso   1.00
C306   C     0.35745   0.41428   0.32115   0.00000  Uiso   1.00
H307   H     0.34960   0.44278   0.31871   0.00000  Uiso   1.00
O308   O     0.35830   0.40061   0.35345   0.00000  Uiso   1.00
C309   C     0.41307   0.35565   0.32082   0.00000  Uiso   1.00
H310   H     0.44229   0.36044   0.32191   0.00000  Uiso   1.00
O311   O     0.39807   0.34032   0.34798   0.00000  Uiso   1.00
C312   C     0.08365   0.14086   0.67946   0.00000  Uiso   1.00
H313   H     0.05567   0.15016   0.68264   0.00000  Uiso   1.00
O314   O     0.09565   0.13737   0.64662   0.00000  Uiso   1.00
C315   C     0.36020   0.08230   0.31998   0.00000  Uiso   1.00
H316   H     0.35056   0.05451   0.31637   0.00000  Uiso   1.00
O317   O     0.36463   0.09341   0.35301   0.00000  Uiso   1.00
C318   C     0.14485   0.41259   0.67793   0.00000  Uiso   1.00
H319   H     0.15245   0.44115   0.67997   0.00000  Uiso   1.00
O320   O     0.14468   0.39854   0.64584   0.00000  Uiso   1.00
C321   C     0.08469   0.14220   0.32022   0.00000  Uiso   1.00
H322   H     0.05543   0.13760   0.32020   0.00000  Uiso   1.00
O323   O     0.09895   0.15657   0.34834   0.00000  Uiso   1.00
C324   C     0.41865   0.36123   0.68045   0.00000  Uiso   1.00
H325   H     0.44611   0.35069   0.68425   0.00000  Uiso   1.00
O326   O     0.40838   0.36722   0.64737   0.00000  Uiso   1.00
C327   C     0.14383   0.41335   0.32072   0.00000  Uiso   1.00
H328   H     0.13998   0.44272   0.32166   0.00000  Uiso   1.00
O329   O     0.15831   0.39789   0.34811   0.00000  Uiso   1.00
C330   C     0.35588   0.08704   0.67911   0.00000  Uiso   1.00
H331   H     0.35960   0.05765   0.67815   0.00000  Uiso   1.00
O332   O     0.34154   0.10258   0.65170   0.00000  Uiso   1.00
C333   C     0.48952   0.31743   0.39383   0.00000  Uiso   1.00
H334   H     0.00279   0.32184   0.36602   0.00000  Uiso   1.00
O335   O     0.46636   0.33918   0.40463   0.00000  Uiso   1.00
C336   C     0.49525   0.18303   0.60361   0.00000  Uiso   1.00
H337   H     0.48343   0.18037   0.63237   0.00000  Uiso   1.00
O338   O     0.01277   0.15751   0.59041   0.00000  Uiso   1.00
C339   C     0.18365   0.48882   0.39440   0.00000  Uiso   1.00
H340   H     0.17704   0.00428   0.36841   0.00000  Uiso   1.00
O341   O     0.16496   0.46242   0.40299   0.00000  Uiso   1.00
C342   C     0.31645   0.01049   0.60576   0.00000  Uiso   1.00
H343   H     0.32307   0.49448   0.63137   0.00000  Uiso   1.00
O344   O     0.33516   0.03703   0.59774   0.00000  Uiso   1.00
C345   C     0.00706   0.18184   0.39969   0.00000  Uiso   1.00
H346   H     0.01958   0.16025   0.41673   0.00000  Uiso   1.00
O347   O     0.00049   0.17599   0.36551   0.00000  Uiso   1.00
C348   C     0.02220   0.31395   0.60485   0.00000  Uiso   1.00
H349   H     0.00952   0.32257   0.63183   0.00000  Uiso   1.00
O350   O     0.05075   0.32824   0.59463   0.00000  Uiso   1.00
C351   C     0.31675   0.49206   0.39419   0.00000  Uiso   1.00
H352   H     0.32262   0.00790   0.36826   0.00000  Uiso   1.00
O353   O     0.33666   0.46650   0.40263   0.00000  Uiso   1.00
C354   C     0.18335   0.00883   0.60579   0.00000  Uiso   1.00
H355   H     0.17732   0.49311   0.63177   0.00000  Uiso   1.00
O356   O     0.16369   0.03457   0.59729   0.00000  Uiso   1.00
C357   C     0.25313   0.06715   0.89634   0.00000  Uiso   1.00
H358   H     0.26488   0.07008   0.86758   0.00000  Uiso   1.00
O359   O     0.23501   0.09226   0.90954   0.00000  Uiso   1.00
C360   C     0.26201   0.43288   0.10614   0.00000  Uiso   1.00
H361   H     0.24877   0.42815   0.13391   0.00000  Uiso   1.00
O362   O     0.28565   0.41165   0.09537   0.00000  Uiso   1.00
C363   C     0.43370   0.23969   0.89685   0.00000  Uiso   1.00
H364   H     0.43184   0.22760   0.86819   0.00000  Uiso   1.00
O365   O     0.40697   0.25527   0.91011   0.00000  Uiso   1.00
C366   C     0.06825   0.24472   0.10628   0.00000  Uiso   1.00
H367   H     0.07162   0.25856   0.13389   0.00000  Uiso   1.00
O368   O     0.09158   0.22299   0.09584   0.00000  Uiso   1.00
C369   C     0.22985   0.43547   0.89514   0.00000  Uiso   1.00
H370   H     0.24275   0.42726   0.86812   0.00000  Uiso   1.00
O371   O     0.20179   0.42031   0.90541   0.00000  Uiso   1.00
C372   C     0.24130   0.06802   0.10032   0.00000  Uiso   1.00
H373   H     0.22820   0.08929   0.08332   0.00000  Uiso   1.00
O374   O     0.24784   0.07405   0.13447   0.00000  Uiso   1.00
C375   C     0.06240   0.27634   0.89508   0.00000  Uiso   1.00
H376   H     0.07168   0.26451   0.86792   0.00000  Uiso   1.00
O377   O     0.07493   0.30559   0.90554   0.00000  Uiso   1.00
C378   C     0.43268   0.25254   0.10169   0.00000  Uiso   1.00
H379   H     0.42938   0.24568   0.13216   0.00000  Uiso   1.00
O380   O     0.40741   0.26753   0.08490   0.00000  Uiso   1.00
C381   C     0.99770   0.28413   0.41721   0.00000  Uiso   1.00
C382   C     0.99220   0.21807   0.58174   0.00000  Uiso   1.00
C383   C     0.71663   0.49815   0.41764   0.00000  Uiso   1.00
C384   C     0.78340   0.00170   0.58239   0.00000  Uiso   1.00
C385   C     0.99780   0.21732   0.41877   0.00000  Uiso   1.00
C386   C     0.50634   0.28338   0.58204   0.00000  Uiso   1.00
C387   C     0.78337   0.49980   0.41753   0.00000  Uiso   1.00
C388   C     0.71665   0.00068   0.58246   0.00000  Uiso   1.00
C389   C     0.75703   0.03220   0.91823   0.00000  Uiso   1.00
C390   C     0.75314   0.46599   0.08276   0.00000  Uiso   1.00
C391   C     0.96892   0.23938   0.91853   0.00000  Uiso   1.00
C392   C     0.53456   0.25029   0.08278   0.00000  Uiso   1.00
C393   C     0.74478   0.46650   0.91794   0.00000  Uiso   1.00
C394   C     0.75140   0.03279   0.08122   0.00000  Uiso   1.00
C395   C     0.53300   0.25835   0.91792   0.00000  Uiso   1.00
C396   C     0.96801   0.24575   0.08135   0.00000  Uiso   1.00
C397   C     0.99952   0.25037   0.39795   0.00000  Uiso   1.00
C398   C     0.99941   0.25055   0.60184   0.00000  Uiso   1.00
C399   C     0.74996   0.00022   0.39782   0.00000  Uiso   1.00
C400   C     0.75004   0.49983   0.60218   0.00000  Uiso   1.00
C401   C     0.75065   0.49954   0.89815   0.00000  Uiso   1.00
C402   C     0.75048   0.49970   0.10203   0.00000  Uiso   1.00
C403   C     0.50070   0.24919   0.89824   0.00000  Uiso   1.00
C404   C     0.50074   0.24968   0.10204   0.00000  Uiso   1.00
C405   C     0.97517   0.18831   0.47930   0.00000  Uiso   1.00
C406   C     0.50520   0.31805   0.51970   0.00000  Uiso   1.00
C407   C     0.81677   0.00468   0.47987   0.00000  Uiso   1.00
C408   C     0.68321   0.49596   0.52013   0.00000  Uiso   1.00
C409   C     0.50797   0.31747   0.47912   0.00000  Uiso   1.00
C410   C     0.97288   0.18902   0.52000   0.00000  Uiso   1.00
C411   C     0.68307   0.00162   0.48008   0.00000  Uiso   1.00
C412   C     0.81696   0.49877   0.51988   0.00000  Uiso   1.00
C413   C     0.74681   0.43190   0.98027   0.00000  Uiso   1.00
C414   C     0.77330   0.06240   0.02068   0.00000  Uiso   1.00
C415   C     0.56784   0.25939   0.98007   0.00000  Uiso   1.00
C416   C     0.94076   0.22037   0.02126   0.00000  Uiso   1.00
C417   C     0.77563   0.06174   0.97998   0.00000  Uiso   1.00
C418   C     0.74383   0.43242   0.02083   0.00000  Uiso   1.00
C419   C     0.94152   0.21801   0.98056   0.00000  Uiso   1.00
C420   C     0.56715   0.26232   0.02063   0.00000  Uiso   1.00
C421   C     0.74996   0.00001   0.35560   0.00000  Uiso   1.00
C422   C     0.75002   0.49999   0.64441   0.00000  Uiso   1.00
C423   C     0.99996   0.24988   0.35569   0.00000  Uiso   1.00
C424   C     0.99997   0.25006   0.64427   0.00000  Uiso   1.00
C425   C     0.50004   0.24992   0.85577   0.00000  Uiso   1.00
C426   C     0.99984   0.25000   0.14431   0.00000  Uiso   1.00
C427   C     0.75004   0.49999   0.85573   0.00000  Uiso   1.00
C428   C     0.75004   0.00015   0.14431   0.00000  Uiso   1.00
C429   C     0.68000   0.06992   0.25003   0.00000  Uiso   1.00
C430   C     0.81997   0.43003   0.75000   0.00000  Uiso   1.00
C431   C     0.93002   0.18003   0.25001   0.00000  Uiso   1.00
C432   C     0.56993   0.32006   0.74987   0.00000  Uiso   1.00
C433   C     0.81999   0.43004   0.25000   0.00000  Uiso   1.00
C434   C     0.68006   0.07001   0.75001   0.00000  Uiso   1.00
C435   C     0.56995   0.31999   0.24996   0.00000  Uiso   1.00
C436   C     0.93004   0.18002   0.75005   0.00000  Uiso   1.00
C437   C     0.67999   0.43011   0.74994   0.00000  Uiso   1.00
C438   C     0.81998   0.06995   0.24999   0.00000  Uiso   1.00
C439   C     0.93005   0.31995   0.74999   0.00000  Uiso   1.00
C440   C     0.56998   0.18005   0.25000   0.00000  Uiso   1.00
C441   C     0.81993   0.07003   0.75001   0.00000  Uiso   1.00
C442   C     0.68008   0.42996   0.24998   0.00000  Uiso   1.00
C443   C     0.56995   0.18001   0.75001   0.00000  Uiso   1.00
C444   C     0.92998   0.31992   0.24995   0.00000  Uiso   1.00
C445   C     0.64361   0.38358   0.21472   0.00000  Uiso   1.00
C446   C     0.85671   0.11608   0.78534   0.00000  Uiso   1.00
C447   C     0.61673   0.14386   0.21492   0.00000  Uiso   1.00
C448   C     0.88272   0.35540   0.78485   0.00000  Uiso   1.00
C449   C     0.85613   0.11672   0.21499   0.00000  Uiso   1.00
C450   C     0.64062   0.38654   0.78543   0.00000  Uiso   1.00
C451   C     0.88414   0.35696   0.21451   0.00000  Uiso   1.00
C452   C     0.61580   0.14306   0.78506   0.00000  Uiso   1.00
C453   C     0.64350   0.11634   0.78526   0.00000  Uiso   1.00
C454   C     0.85758   0.38481   0.21470   0.00000  Uiso   1.00
C455   C     0.61277   0.36019   0.78535   0.00000  Uiso   1.00
C456   C     0.88399   0.14324   0.21494   0.00000  Uiso   1.00
C457   C     0.85636   0.38348   0.78495   0.00000  Uiso   1.00
C458   C     0.64352   0.11625   0.21516   0.00000  Uiso   1.00
C459   C     0.88434   0.14281   0.78517   0.00000  Uiso   1.00
C460   C     0.61594   0.35686   0.21492   0.00000  Uiso   1.00
C461   C     0.89333   0.13393   0.71478   0.00000  Uiso   1.00
C462   C     0.60631   0.36641   0.28516   0.00000  Uiso   1.00
C463   C     0.86653   0.39370   0.71504   0.00000  Uiso   1.00
C464   C     0.63307   0.10589   0.28516   0.00000  Uiso   1.00
C465   C     0.60973   0.36341   0.71407   0.00000  Uiso   1.00
C466   C     0.89323   0.13382   0.28509   0.00000  Uiso   1.00
C467   C     0.63431   0.10711   0.71494   0.00000  Uiso   1.00
C468   C     0.86559   0.39265   0.28535   0.00000  Uiso   1.00
C469   C     0.89236   0.36506   0.28512   0.00000  Uiso   1.00
C470   C     0.60644   0.13364   0.71478   0.00000  Uiso   1.00
C471   C     0.86681   0.10584   0.28503   0.00000  Uiso   1.00
C472   C     0.63594   0.39154   0.71405   0.00000  Uiso   1.00
C473   C     0.60642   0.13367   0.28496   0.00000  Uiso   1.00
C474   C     0.89460   0.36731   0.71513   0.00000  Uiso   1.00
C475   C     0.63427   0.39282   0.28503   0.00000  Uiso   1.00
C476   C     0.86545   0.10746   0.71488   0.00000  Uiso   1.00
C477   C     0.98994   0.21859   0.45902   0.00000  Uiso   1.00
C478   C     0.50242   0.28487   0.54099   0.00000  Uiso   1.00
C479   C     0.78375   0.00165   0.45868   0.00000  Uiso   1.00
C480   C     0.71626   0.49884   0.54132   0.00000  Uiso   1.00
C481   C     0.50057   0.28493   0.45833   0.00000  Uiso   1.00
C482   C     0.98737   0.21908   0.54092   0.00000  Uiso   1.00
C483   C     0.71618   0.00006   0.45878   0.00000  Uiso   1.00
C484   C     0.78385   0.00012   0.54122   0.00000  Uiso   1.00
C485   C     0.74870   0.46514   0.95899   0.00000  Uiso   1.00
C486   C     0.75931   0.03173   0.04097   0.00000  Uiso   1.00
C487   C     0.53487   0.25442   0.95895   0.00000  Uiso   1.00
C488   C     0.96975   0.23769   0.04119   0.00000  Uiso   1.00
C489   C     0.76192   0.03132   0.95906   0.00000  Uiso   1.00
C490   C     0.75036   0.46514   0.04164   0.00000  Uiso   1.00
C491   C     0.97036   0.23467   0.95938   0.00000  Uiso   1.00
C492   C     0.53518   0.25293   0.04162   0.00000  Uiso   1.00
C493   C     0.59787   0.34834   0.25005   0.00000  Uiso   1.00
C494   C     0.90211   0.15166   0.74998   0.00000  Uiso   1.00
C495   C     0.65165   0.09785   0.25018   0.00000  Uiso   1.00
C496   C     0.84816   0.40187   0.75000   0.00000  Uiso   1.00
C497   C     0.90185   0.15186   0.25003   0.00000  Uiso   1.00
C498   C     0.59802   0.34834   0.74973   0.00000  Uiso   1.00
C499   C     0.84829   0.40202   0.25005   0.00000  Uiso   1.00
C500   C     0.65212   0.09838   0.75012   0.00000  Uiso   1.00
C501   C     0.59788   0.15167   0.74991   0.00000  Uiso   1.00
C502   C     0.90162   0.34782   0.24980   0.00000  Uiso   1.00
C503   C     0.65172   0.40218   0.74978   0.00000  Uiso   1.00
C504   C     0.84816   0.09804   0.25001   0.00000  Uiso   1.00
C505   C     0.90192   0.34808   0.74999   0.00000  Uiso   1.00
C506   C     0.59828   0.15205   0.24992   0.00000  Uiso   1.00
C507   C     0.84785   0.09841   0.75012   0.00000  Uiso   1.00
C508   C     0.65216   0.40157   0.24986   0.00000  Uiso   1.00
C509   C     0.99502   0.25194   0.47928   0.00000  Uiso   1.00
C510   C     0.99506   0.25199   0.52045   0.00000  Uiso   1.00
C511   C     0.75000   0.00026   0.47934   0.00000  Uiso   1.00
C512   C     0.75003   0.00008   0.52066   0.00000  Uiso   1.00
C513   C     0.75512   0.49821   0.97953   0.00000  Uiso   1.00
C514   C     0.75510   0.49826   0.02070   0.00000  Uiso   1.00
C515   C     0.50264   0.24481   0.97965   0.00000  Uiso   1.00
C516   C     0.50264   0.24500   0.02080   0.00000  Uiso   1.00
O517   O     0.75000   0.00000   0.25000   0.00000  Uiso   1.00
O518   O     0.75000   0.00000   0.75000   0.00000  Uiso   1.00
O519   O     0.50000   0.25000   0.25000   0.00000  Uiso   1.00
O520   O     0.50000   0.25000   0.75000   0.00000  Uiso   1.00
O521   O     0.75000   0.46963   0.33755   0.00000  Uiso   1.00
O522   O     0.75000   0.03037   0.66245   0.00000  Uiso   1.00
O523   O     0.53036   0.25000   0.33755   0.00000  Uiso   1.00
O524   O     0.96963   0.25000   0.66245   0.00000  Uiso   1.00
O525   O     0.75000   0.03037   0.33755   0.00000  Uiso   1.00
O526   O     0.75000   0.46963   0.66245   0.00000  Uiso   1.00
O527   O     0.96963   0.25000   0.33755   0.00000  Uiso   1.00
O528   O     0.53036   0.25000   0.66245   0.00000  Uiso   1.00
O529   O     0.50000   0.21963   0.83755   0.00000  Uiso   1.00
O530   O     0.50000   0.28036   0.16245   0.00000  Uiso   1.00
O531   O     0.78036  -0.00000   0.83755   0.00000  Uiso   1.00
O532   O     0.71963   0.00000   0.16245   0.00000  Uiso   1.00
O533   O     0.50000   0.28036   0.83755   0.00000  Uiso   1.00
O534   O     0.50000   0.21964   0.16245   0.00000  Uiso   1.00
O535   O     0.71963  -0.00000   0.83755   0.00000  Uiso   1.00
O536   O     0.78036   0.00000   0.16245   0.00000  Uiso   1.00
O537   O     0.70724   0.07308   0.27302   0.00000  Uiso   1.00
O538   O     0.79275   0.42692   0.72698   0.00000  Uiso   1.00
O539   O     0.92692   0.20725   0.27302   0.00000  Uiso   1.00
O540   O     0.57307   0.29275   0.72698   0.00000  Uiso   1.00
O541   O     0.79275   0.42692   0.27302   0.00000  Uiso   1.00
O542   O     0.70724   0.07308   0.72698   0.00000  Uiso   1.00
O543   O     0.57307   0.29275   0.27302   0.00000  Uiso   1.00
O544   O     0.92692   0.20725   0.72698   0.00000  Uiso   1.00
O545   O     0.70724   0.42692   0.72698   0.00000  Uiso   1.00
O546   O     0.79275   0.07308   0.27302   0.00000  Uiso   1.00
O547   O     0.92692   0.29275   0.72698   0.00000  Uiso   1.00
O548   O     0.57307   0.20724   0.27302   0.00000  Uiso   1.00
O549   O     0.79275   0.07308   0.72698   0.00000  Uiso   1.00
O550   O     0.70724   0.42692   0.27302   0.00000  Uiso   1.00
O551   O     0.57307   0.20724   0.72698   0.00000  Uiso   1.00
O552   O     0.92692   0.29275   0.27302   0.00000  Uiso   1.00
O553   O     0.95724   0.32307   0.77302   0.00000  Uiso   1.00
O554   O     0.54275   0.17692   0.22698   0.00000  Uiso   1.00
O555   O     0.67692   0.45724   0.77302   0.00000  Uiso   1.00
O556   O     0.82307   0.04276   0.22698   0.00000  Uiso   1.00
O557   O     0.54275   0.17692   0.77302   0.00000  Uiso   1.00
O558   O     0.95724   0.32307   0.22698   0.00000  Uiso   1.00
O559   O     0.82307   0.04276   0.77302   0.00000  Uiso   1.00
O560   O     0.67692   0.45724   0.22698   0.00000  Uiso   1.00
O561   O     0.95724   0.17693   0.22698   0.00000  Uiso   1.00
O562   O     0.54275   0.32307   0.77302   0.00000  Uiso   1.00
O563   O     0.67692   0.04276   0.22698   0.00000  Uiso   1.00
O564   O     0.82307   0.45724   0.77302   0.00000  Uiso   1.00
O565   O     0.54275   0.32307   0.22698   0.00000  Uiso   1.00
O566   O     0.95724   0.17693   0.77302   0.00000  Uiso   1.00
O567   O     0.82307   0.45724   0.22698   0.00000  Uiso   1.00
O568   O     0.67692   0.04276   0.77302   0.00000  Uiso   1.00
Zn569  Zn    0.70659  -0.00000   0.21735   0.00000  Uiso   1.00
Zn570  Zn    0.79340  -0.00000   0.78265   0.00000  Uiso   1.00
Zn571  Zn    0.50000   0.20660   0.21735   0.00000  Uiso   1.00
Zn572  Zn    0.50000   0.29340   0.78265   0.00000  Uiso   1.00
Zn573  Zn    0.79340  -0.00000   0.21735   0.00000  Uiso   1.00
Zn574  Zn    0.70659  -0.00000   0.78265   0.00000  Uiso   1.00
Zn575  Zn    0.50000   0.29340   0.21735   0.00000  Uiso   1.00
Zn576  Zn    0.50000   0.20659   0.78265   0.00000  Uiso   1.00
Zn577  Zn    0.95659   0.25000   0.71735   0.00000  Uiso   1.00
Zn578  Zn    0.54340   0.25000   0.28265   0.00000  Uiso   1.00
Zn579  Zn    0.75000   0.45659   0.71735   0.00000  Uiso   1.00
Zn580  Zn    0.75000   0.04341   0.28265   0.00000  Uiso   1.00
Zn581  Zn    0.54340   0.25000   0.71735   0.00000  Uiso   1.00
Zn582  Zn    0.95659   0.25000   0.28265   0.00000  Uiso   1.00
Zn583  Zn    0.75000   0.04341   0.71735   0.00000  Uiso   1.00
Zn584  Zn    0.75000   0.45659   0.28265   0.00000  Uiso   1.00
C585   C     0.95776   0.15841   0.45858   0.00000  Uiso   1.00
N586   N     0.94380   0.13464   0.44221   0.00000  Uiso   1.00
C587   C     0.50111   0.35352   0.53814   0.00000  Uiso   1.00
N588   N     0.99770   0.38186   0.55255   0.00000  Uiso   1.00
C589   C     0.85047   0.01771   0.46227   0.00000  Uiso   1.00
N590   N     0.87733   0.02824   0.44853   0.00000  Uiso   1.00
C591   C     0.64941   0.48329   0.53780   0.00000  Uiso   1.00
N592   N     0.62245   0.47306   0.55159   0.00000  Uiso   1.00
C593   C     0.52263   0.34975   0.46004   0.00000  Uiso   1.00
N594   N     0.53445   0.37548   0.44507   0.00000  Uiso   1.00
C595   C     0.95156   0.16085   0.53937   0.00000  Uiso   1.00
N596   N     0.93446   0.13844   0.55459   0.00000  Uiso   1.00
C597   C     0.64875   0.01293   0.46253   0.00000  Uiso   1.00
N598   N     0.62137   0.02207   0.44884   0.00000  Uiso   1.00
C599   C     0.85136   0.48749   0.53728   0.00000  Uiso   1.00
N600   N     0.87880   0.47837   0.55085   0.00000  Uiso   1.00
C601   C     0.75203   0.39654   0.96189   0.00000  Uiso   1.00
N602   N     0.75634   0.36830   0.94752   0.00000  Uiso   1.00
C603   C     0.78990   0.09276   0.04138   0.00000  Uiso   1.00
N604   N     0.80322   0.11692   0.05771   0.00000  Uiso   1.00
C605   C     0.60346   0.25739   0.96149   0.00000  Uiso   1.00
N606   N     0.63193   0.25566   0.94697   0.00000  Uiso   1.00
C607   C     0.91268   0.20047   0.04241   0.00000  Uiso   1.00
N608   N     0.89036   0.18451   0.05911   0.00000  Uiso   1.00
C609   C     0.79627   0.09042   0.96061   0.00000  Uiso   1.00
N610   N     0.81282   0.11324   0.94538   0.00000  Uiso   1.00
C611   C     0.72983   0.39980   0.03983   0.00000  Uiso   1.00
N612   N     0.71853   0.37380   0.05473   0.00000  Uiso   1.00
C613   C     0.91500   0.19456   0.96147   0.00000  Uiso   1.00
N614   N     0.89390   0.17578   0.94646   0.00000  Uiso   1.00
C615   C     0.59846   0.27908   0.03944   0.00000  Uiso   1.00
N616   N     0.62341   0.29259   0.05419   0.00000  Uiso   1.00
C617   C     0.66628   0.39093   0.17935   0.00000  Uiso   1.00
H618   H     0.69437   0.39984   0.18244   0.00000  Uiso   1.00
O619   O     0.65399   0.38810   0.14658   0.00000  Uiso   1.00
C620   C     0.83437   0.10846   0.82083   0.00000  Uiso   1.00
H621   H     0.80598   0.10054   0.81788   0.00000  Uiso   1.00
O622   O     0.84729   0.10988   0.85342   0.00000  Uiso   1.00
C623   C     0.60957   0.16662   0.17959   0.00000  Uiso   1.00
H624   H     0.60051   0.19469   0.18269   0.00000  Uiso   1.00
O625   O     0.61269   0.15439   0.14683   0.00000  Uiso   1.00
C626   C     0.88882   0.33131   0.81952   0.00000  Uiso   1.00
H627   H     0.89927   0.30382   0.81570   0.00000  Uiso   1.00
O628   O     0.88295   0.34160   0.85261   0.00000  Uiso   1.00
C629   C     0.83287   0.11003   0.17997   0.00000  Uiso   1.00
H630   H     0.80474   0.10139   0.18353   0.00000  Uiso   1.00
O631   O     0.84467   0.11312   0.14699   0.00000  Uiso   1.00
C632   C     0.66044   0.39609   0.82192   0.00000  Uiso   1.00
H633   H     0.68944   0.40204   0.82094   0.00000  Uiso   1.00
O634   O     0.64468   0.39858   0.85302   0.00000  Uiso   1.00
C635   C     0.89187   0.33476   0.17892   0.00000  Uiso   1.00
H636   H     0.90075   0.30660   0.18176   0.00000  Uiso   1.00
O637   O     0.88932   0.34745   0.14627   0.00000  Uiso   1.00
C638   C     0.60690   0.16437   0.82050   0.00000  Uiso   1.00
H639   H     0.61128   0.19367   0.82078   0.00000  Uiso   1.00
O640   O     0.59240   0.14974   0.84839   0.00000  Uiso   1.00
C641   C     0.66608   0.10894   0.82065   0.00000  Uiso   1.00
H642   H     0.69423   0.10013   0.81758   0.00000  Uiso   1.00
O643   O     0.65366   0.11159   0.85340   0.00000  Uiso   1.00
C644   C     0.83723   0.39466   0.17892   0.00000  Uiso   1.00
H645   H     0.80792   0.39054   0.17769   0.00000  Uiso   1.00
O646   O     0.85269   0.40965   0.15184   0.00000  Uiso   1.00
C647   C     0.60072   0.34263   0.82197   0.00000  Uiso   1.00
H648   H     0.60548   0.31370   0.82648   0.00000  Uiso   1.00
O649   O     0.58344   0.35999   0.84601   0.00000  Uiso   1.00
C650   C     0.89297   0.16449   0.17942   0.00000  Uiso   1.00
H651   H     0.88936   0.19390   0.17927   0.00000  Uiso   1.00
O652   O     0.90675   0.14962   0.15129   0.00000  Uiso   1.00
C653   C     0.83501   0.39242   0.82038   0.00000  Uiso   1.00
H654   H     0.80555   0.38928   0.82028   0.00000  Uiso   1.00
O655   O     0.84991   0.40566   0.84875   0.00000  Uiso   1.00
C656   C     0.66545   0.10801   0.17996   0.00000  Uiso   1.00
H657   H     0.69460   0.11326   0.17999   0.00000  Uiso   1.00
O658   O     0.65152   0.09322   0.15191   0.00000  Uiso   1.00
C659   C     0.89314   0.16401   0.82068   0.00000  Uiso   1.00
H660   H     0.88848   0.19326   0.82111   0.00000  Uiso   1.00
O661   O     0.90775   0.14933   0.84847   0.00000  Uiso   1.00
C662   C     0.60725   0.33542   0.17954   0.00000  Uiso   1.00
H663   H     0.61180   0.30613   0.17936   0.00000  Uiso   1.00
O664   O     0.59277   0.34992   0.15157   0.00000  Uiso   1.00
C665   C     0.91601   0.14123   0.67944   0.00000  Uiso   1.00
H666   H     0.94435   0.14924   0.68263   0.00000  Uiso   1.00
O667   O     0.90349   0.13938   0.64670   0.00000  Uiso   1.00
C668   C     0.58331   0.35937   0.32042   0.00000  Uiso   1.00
H669   H     0.55544   0.34987   0.31714   0.00000  Uiso   1.00
O670   O     0.59498   0.36329   0.35331   0.00000  Uiso   1.00
C671   C     0.85762   0.41512   0.67964   0.00000  Uiso   1.00
H672   H     0.86085   0.44457   0.67977   0.00000  Uiso   1.00
O673   O     0.84431   0.40030   0.65126   0.00000  Uiso   1.00
C674   C     0.63994   0.08273   0.32031   0.00000  Uiso   1.00
H675   H     0.64962   0.05490   0.31696   0.00000  Uiso   1.00
O676   O     0.63575   0.09427   0.35322   0.00000  Uiso   1.00
C677   C     0.59217   0.35128   0.67753   0.00000  Uiso   1.00
H678   H     0.56293   0.35453   0.67383   0.00000  Uiso   1.00
O679   O     0.60988   0.33545   0.65267   0.00000  Uiso   1.00
C680   C     0.91434   0.14282   0.32060   0.00000  Uiso   1.00
H681   H     0.94373   0.13912   0.32082   0.00000  Uiso   1.00
O682   O     0.89937   0.15663   0.34866   0.00000  Uiso   1.00
C683   C     0.64375   0.08635   0.67932   0.00000  Uiso   1.00
H684   H     0.63969   0.05701   0.67855   0.00000  Uiso   1.00
O685   O     0.65835   0.10155   0.65182   0.00000  Uiso   1.00
C686   C     0.85745   0.41428   0.32115   0.00000  Uiso   1.00
H687   H     0.84960   0.44278   0.31871   0.00000  Uiso   1.00
O688   O     0.85830   0.40061   0.35345   0.00000  Uiso   1.00
C689   C     0.91307   0.35565   0.32082   0.00000  Uiso   1.00
H690   H     0.94229   0.36044   0.32191   0.00000  Uiso   1.00
O691   O     0.89807   0.34032   0.34798   0.00000  Uiso   1.00
C692   C     0.58365   0.14086   0.67946   0.00000  Uiso   1.00
H693   H     0.55567   0.15016   0.68264   0.00000  Uiso   1.00
O694   O     0.59565   0.13737   0.64662   0.00000  Uiso   1.00
C695   C     0.86020   0.08230   0.31998   0.00000  Uiso   1.00
H696   H     0.85056   0.05451   0.31637   0.00000  Uiso   1.00
O697   O     0.86463   0.09341   0.35301   0.00000  Uiso   1.00
C698   C     0.64485   0.41259   0.67793   0.00000  Uiso   1.00
H699   H     0.65245   0.44115   0.67997   0.00000  Uiso   1.00
O700   O     0.64468   0.39854   0.64584   0.00000  Uiso   1.00
C701   C     0.58469   0.14220   0.32022   0.00000  Uiso   1.00
H702   H     0.55543   0.13760   0.32020   0.00000  Uiso   1.00
O703   O     0.59895   0.15657   0.34834   0.00000  Uiso   1.00
C704   C     0.91865   0.36123   0.68045   0.00000  Uiso   1.00
H705   H     0.94611   0.35069   0.68425   0.00000  Uiso   1.00
O706   O     0.90838   0.36722   0.64737   0.00000  Uiso   1.00
C707   C     0.64383   0.41335   0.32072   0.00000  Uiso   1.00
H708   H     0.63998   0.44272   0.32166   0.00000  Uiso   1.00
O709   O     0.65831   0.39789   0.34811   0.00000  Uiso   1.00
C710   C     0.85588   0.08704   0.67911   0.00000  Uiso   1.00
H711   H     0.85960   0.05765   0.67815   0.00000  Uiso   1.00
O712   O     0.84154   0.10258   0.65170   0.00000  Uiso   1.00
C713   C     0.98952   0.31743   0.39383   0.00000  Uiso   1.00
H714   H     0.50279   0.32184   0.36602   0.00000  Uiso   1.00
O715   O     0.96636   0.33918   0.40463   0.00000  Uiso   1.00
C716   C     0.99525   0.18303   0.60361   0.00000  Uiso   1.00
H717   H     0.98343   0.18037   0.63237   0.00000  Uiso   1.00
O718   O     0.51277   0.15751   0.59041   0.00000  Uiso   1.00
C719   C     0.68365   0.48882   0.39440   0.00000  Uiso   1.00
H720   H     0.67704   0.00428   0.36841   0.00000  Uiso   1.00
O721   O     0.66496   0.46242   0.40299   0.00000  Uiso   1.00
C722   C     0.81645   0.01049   0.60576   0.00000  Uiso   1.00
H723   H     0.82307   0.49448   0.63137   0.00000  Uiso   1.00
O724   O     0.83516   0.03703   0.59774   0.00000  Uiso   1.00
C725   C     0.50706   0.18184   0.39969   0.00000  Uiso   1.00
H726   H     0.51958   0.16025   0.41673   0.00000  Uiso   1.00
O727   O     0.50049   0.17599   0.36551   0.00000  Uiso   1.00
C728   C     0.52220   0.31395   0.60485   0.00000  Uiso   1.00
H729   H     0.50952   0.32257   0.63183   0.00000  Uiso   1.00
O730   O     0.55075   0.32824   0.59463   0.00000  Uiso   1.00
C731   C     0.81675   0.49206   0.39419   0.00000  Uiso   1.00
H732   H     0.82262   0.00790   0.36826   0.00000  Uiso   1.00
O733   O     0.83666   0.46650   0.40263   0.00000  Uiso   1.00
C734   C     0.68335   0.00883   0.60579   0.00000  Uiso   1.00
H735   H     0.67732   0.49311   0.63177   0.00000  Uiso   1.00
O736   O     0.66369   0.03457   0.59729   0.00000  Uiso   1.00
C737   C     0.75313   0.06715   0.89634   0.00000  Uiso   1.00
H738   H     0.76488   0.07008   0.86758   0.00000  Uiso   1.00
O739   O     0.73501   0.09226   0.90954   0.00000  Uiso   1.00
C740   C     0.76201   0.43288   0.10614   0.00000  Uiso   1.00
H741   H     0.74877   0.42815   0.13391   0.00000  Uiso   1.00
O742   O     0.78565   0.41165   0.09537   0.00000  Uiso   1.00
C743   C     0.93370   0.23969   0.89685   0.00000  Uiso   1.00
H744   H     0.93184   0.22760   0.86819   0.00000  Uiso   1.00
O745   O     0.90697   0.25527   0.91011   0.00000  Uiso   1.00
C746   C     0.56825   0.24472   0.10628   0.00000  Uiso   1.00
H747   H     0.57162   0.25856   0.13389   0.00000  Uiso   1.00
O748   O     0.59158   0.22299   0.09584   0.00000  Uiso   1.00
C749   C     0.72985   0.43547   0.89514   0.00000  Uiso   1.00
H750   H     0.74275   0.42726   0.86812   0.00000  Uiso   1.00
O751   O     0.70179   0.42031   0.90541   0.00000  Uiso   1.00
C752   C     0.74130   0.06802   0.10032   0.00000  Uiso   1.00
H753   H     0.72820   0.08929   0.08332   0.00000  Uiso   1.00
O754   O     0.74784   0.07405   0.13447   0.00000  Uiso   1.00
C755   C     0.56240   0.27634   0.89508   0.00000  Uiso   1.00
H756   H     0.57168   0.26451   0.86792   0.00000  Uiso   1.00
O757   O     0.57493   0.30559   0.90554   0.00000  Uiso   1.00
C758   C     0.93268   0.25254   0.10169   0.00000  Uiso   1.00
H759   H     0.92938   0.24568   0.13216   0.00000  Uiso   1.00
O760   O     0.90741   0.26753   0.08490   0.00000  Uiso   1.00
C761   C     0.49770   0.78413   0.41721   0.00000  Uiso   1.00
C762   C     0.49220   0.71807   0.58174   0.00000  Uiso   1.00
C763   C     0.21663   0.99815   0.41764   0.00000  Uiso   1.00
C764   C     0.28340   0.50170   0.58239   0.00000  Uiso   1.00
C765   C     0.49780   0.71732   0.41877   0.00000  Uiso   1.00
C766   C     0.00634   0.78338   0.58204   0.00000  Uiso   1.00
C767   C     0.28337   0.99980   0.41753   0.00000  Uiso   1.00
C768   C     0.21665   0.50068   0.58246   0.00000  Uiso   1.00
C769   C     0.25703   0.53220   0.91823   0.00000  Uiso   1.00
C770   C     0.25314   0.96599   0.08276   0.00000  Uiso   1.00
C771   C     0.46892   0.73938   0.91853   0.00000  Uiso   1.00
C772   C     0.03456   0.75029   0.08278   0.00000  Uiso   1.00
C773   C     0.24478   0.96650   0.91794   0.00000  Uiso   1.00
C774   C     0.25140   0.53279   0.08122   0.00000  Uiso   1.00
C775   C     0.03300   0.75835   0.91792   0.00000  Uiso   1.00
C776   C     0.46801   0.74575   0.08135   0.00000  Uiso   1.00
C777   C     0.49952   0.75037   0.39795   0.00000  Uiso   1.00
C778   C     0.49941   0.75055   0.60184   0.00000  Uiso   1.00
C779   C     0.24996   0.50022   0.39782   0.00000  Uiso   1.00
C780   C     0.25004   0.99983   0.60218   0.00000  Uiso   1.00
C781   C     0.25065   0.99954   0.89815   0.00000  Uiso   1.00
C782   C     0.25048   0.99970   0.10203   0.00000  Uiso   1.00
C783   C     0.00070   0.74919   0.89824   0.00000  Uiso   1.00
C784   C     0.00074   0.74968   0.10204   0.00000  Uiso   1.00
C785   C     0.47517   0.68831   0.47930   0.00000  Uiso   1.00
C786   C     0.00520   0.81805   0.51970   0.00000  Uiso   1.00
C787   C     0.31677   0.50468   0.47987   0.00000  Uiso   1.00
C788   C     0.18321   0.99596   0.52013   0.00000  Uiso   1.00
C789   C     0.00797   0.81747   0.47912   0.00000  Uiso   1.00
C790   C     0.47288   0.68902   0.52000   0.00000  Uiso   1.00
C791   C     0.18307   0.50162   0.48008   0.00000  Uiso   1.00
C792   C     0.31696   0.99877   0.51988   0.00000  Uiso   1.00
C793   C     0.24681   0.93190   0.98027   0.00000  Uiso   1.00
C794   C     0.27330   0.56240   0.02068   0.00000  Uiso   1.00
C795   C     0.06784   0.75939   0.98007   0.00000  Uiso   1.00
C796   C     0.44076   0.72037   0.02126   0.00000  Uiso   1.00
C797   C     0.27563   0.56174   0.97998   0.00000  Uiso   1.00
C798   C     0.24383   0.93242   0.02083   0.00000  Uiso   1.00
C799   C     0.44152   0.71801   0.98056   0.00000  Uiso   1.00
C800   C     0.06715   0.76232   0.02063   0.00000  Uiso   1.00
C801   C     0.24996   0.50001   0.35560   0.00000  Uiso   1.00
C802   C     0.25002   0.99999   0.64441   0.00000  Uiso   1.00
C803   C     0.49996   0.74988   0.35569   0.00000  Uiso   1.00
C804   C     0.49997   0.75006   0.64427   0.00000  Uiso   1.00
C805   C     0.00004   0.74992   0.85577   0.00000  Uiso   1.00
C806   C     0.49984   0.75000   0.14431   0.00000  Uiso   1.00
C807   C     0.25004   0.99999   0.85573   0.00000  Uiso   1.00
C808   C     0.25004   0.50015   0.14431   0.00000  Uiso   1.00
C809   C     0.18000   0.56992   0.25003   0.00000  Uiso   1.00
C810   C     0.31997   0.93003   0.75000   0.00000  Uiso   1.00
C811   C     0.43002   0.68003   0.25001   0.00000  Uiso   1.00
C812   C     0.06993   0.82006   0.74987   0.00000  Uiso   1.00
C813   C     0.31999   0.93004   0.25000   0.00000  Uiso   1.00
C814   C     0.18006   0.57001   0.75001   0.00000  Uiso   1.00
C815   C     0.06995   0.81999   0.24996   0.00000  Uiso   1.00
C816   C     0.43004   0.68002   0.75005   0.00000  Uiso   1.00
C817   C     0.17999   0.93011   0.74994   0.00000  Uiso   1.00
C818   C     0.31998   0.56995   0.24999   0.00000  Uiso   1.00
C819   C     0.43005   0.81995   0.74999   0.00000  Uiso   1.00
C820   C     0.06998   0.68005   0.25000   0.00000  Uiso   1.00
C821   C     0.31993   0.57003   0.75001   0.00000  Uiso   1.00
C822   C     0.18008   0.92996   0.24998   0.00000  Uiso   1.00
C823   C     0.06995   0.68001   0.75001   0.00000  Uiso   1.00
C824   C     0.42998   0.81992   0.24995   0.00000  Uiso   1.00
C825   C     0.14361   0.88358   0.21472   0.00000  Uiso   1.00
C826   C     0.35671   0.61608   0.78534   0.00000  Uiso   1.00
C827   C     0.11673   0.64386   0.21492   0.00000  Uiso   1.00
C828   C     0.38272   0.85540   0.78485   0.00000  Uiso   1.00
C829   C     0.35613   0.61672   0.21499   0.00000  Uiso   1.00
C830   C     0.14062   0.88654   0.78543   0.00000  Uiso   1.00
C831   C     0.38414   0.85696   0.21451   0.00000  Uiso   1.00
C832   C     0.11580   0.64306   0.78506   0.00000  Uiso   1.00
C833   C     0.14350   0.61634   0.78526   0.00000  Uiso   1.00
C834   C     0.35758   0.88481   0.21470   0.00000  Uiso   1.00
C835   C     0.11277   0.86019   0.78535   0.00000  Uiso   1.00
C836   C     0.38399   0.64324   0.21494   0.00000  Uiso   1.00
C837   C     0.35636   0.88348   0.78495   0.00000  Uiso   1.00
C838   C     0.14352   0.61625   0.21516   0.00000  Uiso   1.00
C839   C     0.38434   0.64281   0.78517   0.00000  Uiso   1.00
C840   C     0.11594   0.85686   0.21492   0.00000  Uiso   1.00
C841   C     0.39333   0.63393   0.71478   0.00000  Uiso   1.00
C842   C     0.10631   0.86641   0.28516   0.00000  Uiso   1.00
C843   C     0.36653   0.89370   0.71504   0.00000  Uiso   1.00
C844   C     0.13307   0.60589   0.28516   0.00000  Uiso   1.00
C845   C     0.10973   0.86341   0.71407   0.00000  Uiso   1.00
C846   C     0.39323   0.63382   0.28509   0.00000  Uiso   1.00
C847   C     0.13431   0.60711   0.71494   0.00000  Uiso   1.00
C848   C     0.36559   0.89265   0.28535   0.00000  Uiso   1.00
C849   C     0.39236   0.86506   0.28512   0.00000  Uiso   1.00
C850   C     0.10644   0.63364   0.71478   0.00000  Uiso   1.00
C851   C     0.36681   0.60584   0.28503   0.00000  Uiso   1.00
C852   C     0.13594   0.89154   0.71405   0.00000  Uiso   1.00
C853   C     0.10642   0.63367   0.28496   0.00000  Uiso   1.00
C854   C     0.39460   0.86731   0.71513   0.00000  Uiso   1.00
C855   C     0.13427   0.89282   0.28503   0.00000  Uiso   1.00
C856   C     0.36545   0.60746   0.71488   0.00000  Uiso   1.00
C857   C     0.48994   0.71859   0.45902   0.00000  Uiso   1.00
C858   C     0.00242   0.78487   0.54099   0.00000  Uiso   1.00
C859   C     0.28375   0.50165   0.45868   0.00000  Uiso   1.00
C860   C     0.21626   0.99884   0.54132   0.00000  Uiso   1.00
C861   C     0.00057   0.78493   0.45833   0.00000  Uiso   1.00
C862   C     0.48737   0.71908   0.54092   0.00000  Uiso   1.00
C863   C     0.21618   0.50006   0.45878   0.00000  Uiso   1.00
C864   C     0.28385   0.50012   0.54122   0.00000  Uiso   1.00
C865   C     0.24870   0.96514   0.95899   0.00000  Uiso   1.00
C866   C     0.25931   0.53173   0.04097   0.00000  Uiso   1.00
C867   C     0.03487   0.75442   0.95895   0.00000  Uiso   1.00
C868   C     0.46975   0.73769   0.04119   0.00000  Uiso   1.00
C869   C     0.26192   0.53132   0.95906   0.00000  Uiso   1.00
C870   C     0.25036   0.96514   0.04164   0.00000  Uiso   1.00
C871   C     0.47036   0.73467   0.95938   0.00000  Uiso   1.00
C872   C     0.03518   0.75293   0.04162   0.00000  Uiso   1.00
C873   C     0.09787   0.84834   0.25005   0.00000  Uiso   1.00
C874   C     0.40211   0.65166   0.74998   0.00000  Uiso   1.00
C875   C     0.15165   0.59785   0.25018   0.00000  Uiso   1.00
C876   C     0.34816   0.90187   0.75000   0.00000  Uiso   1.00
C877   C     0.40185   0.65186   0.25003   0.00000  Uiso   1.00
C878   C     0.09802   0.84834   0.74973   0.00000  Uiso   1.00
C879   C     0.34829   0.90202   0.25005   0.00000  Uiso   1.00
C880   C     0.15212   0.59838   0.75012   0.00000  Uiso   1.00
C881   C     0.09788   0.65167   0.74991   0.00000  Uiso   1.00
C882   C     0.40162   0.84782   0.24980   0.00000  Uiso   1.00
C883   C     0.15172   0.90218   0.74978   0.00000  Uiso   1.00
C884   C     0.34816   0.59804   0.25001   0.00000  Uiso   1.00
C885   C     0.40192   0.84808   0.74999   0.00000  Uiso   1.00
C886   C     0.09828   0.65205   0.24992   0.00000  Uiso   1.00
C887   C     0.34785   0.59841   0.75012   0.00000  Uiso   1.00
C888   C     0.15216   0.90157   0.24986   0.00000  Uiso   1.00
C889   C     0.49502   0.75194   0.47928   0.00000  Uiso   1.00
C890   C     0.49506   0.75199   0.52045   0.00000  Uiso   1.00
C891   C     0.25000   0.50026   0.47934   0.00000  Uiso   1.00
C892   C     0.25003   0.50008   0.52066   0.00000  Uiso   1.00
C893   C     0.25512   0.99821   0.97953   0.00000  Uiso   1.00
C894   C     0.25510   0.99826   0.02070   0.00000  Uiso   1.00
C895   C     0.00264   0.74481   0.97965   0.00000  Uiso   1.00
C896   C     0.00264   0.74500   0.02080   0.00000  Uiso   1.00
O897   O     0.25000   0.50000   0.25000   0.00000  Uiso   1.00
O898   O     0.25000   0.50000   0.75000   0.00000  Uiso   1.00
O899   O     0.00000   0.75000   0.25000   0.00000  Uiso   1.00
O900   O    -0.00000   0.75000   0.75000   0.00000  Uiso   1.00
O901   O     0.25000   0.96963   0.33755   0.00000  Uiso   1.00
O902   O     0.25000   0.53037   0.66245   0.00000  Uiso   1.00
O903   O     0.03036   0.75000   0.33755   0.00000  Uiso   1.00
O904   O     0.46963   0.75000   0.66245   0.00000  Uiso   1.00
O905   O     0.25000   0.53037   0.33755   0.00000  Uiso   1.00
O906   O     0.25000   0.96963   0.66245   0.00000  Uiso   1.00
O907   O     0.46963   0.75000   0.33755   0.00000  Uiso   1.00
O908   O     0.03036   0.75000   0.66245   0.00000  Uiso   1.00
O909   O     0.00000   0.71963   0.83755   0.00000  Uiso   1.00
O910   O     0.00000   0.78036   0.16245   0.00000  Uiso   1.00
O911   O     0.28036   0.50000   0.83755   0.00000  Uiso   1.00
O912   O     0.21963   0.50000   0.16245   0.00000  Uiso   1.00
O913   O     0.00000   0.78036   0.83755   0.00000  Uiso   1.00
O914   O    -0.00000   0.71964   0.16245   0.00000  Uiso   1.00
O915   O     0.21963   0.50000   0.83755   0.00000  Uiso   1.00
O916   O     0.28036   0.50000   0.16245   0.00000  Uiso   1.00
O917   O     0.20724   0.57308   0.27302   0.00000  Uiso   1.00
O918   O     0.29275   0.92692   0.72698   0.00000  Uiso   1.00
O919   O     0.42692   0.70725   0.27302   0.00000  Uiso   1.00
O920   O     0.07307   0.79275   0.72698   0.00000  Uiso   1.00
O921   O     0.29275   0.92692   0.27302   0.00000  Uiso   1.00
O922   O     0.20724   0.57308   0.72698   0.00000  Uiso   1.00
O923   O     0.07307   0.79275   0.27302   0.00000  Uiso   1.00
O924   O     0.42692   0.70725   0.72698   0.00000  Uiso   1.00
O925   O     0.20724   0.92692   0.72698   0.00000  Uiso   1.00
O926   O     0.29275   0.57308   0.27302   0.00000  Uiso   1.00
O927   O     0.42692   0.79275   0.72698   0.00000  Uiso   1.00
O928   O     0.07307   0.70724   0.27302   0.00000  Uiso   1.00
O929   O     0.29275   0.57308   0.72698   0.00000  Uiso   1.00
O930   O     0.20724   0.92692   0.27302   0.00000  Uiso   1.00
O931   O     0.07307   0.70724   0.72698   0.00000  Uiso   1.00
O932   O     0.42692   0.79275   0.27302   0.00000  Uiso   1.00
O933   O     0.45724   0.82307   0.77302   0.00000  Uiso   1.00
O934   O     0.04275   0.67692   0.22698   0.00000  Uiso   1.00
O935   O     0.17692   0.95724   0.77302   0.00000  Uiso   1.00
O936   O     0.32307   0.54276   0.22698   0.00000  Uiso   1.00
O937   O     0.04275   0.67692   0.77302   0.00000  Uiso   1.00
O938   O     0.45724   0.82307   0.22698   0.00000  Uiso   1.00
O939   O     0.32307   0.54276   0.77302   0.00000  Uiso   1.00
O940   O     0.17692   0.95724   0.22698   0.00000  Uiso   1.00
O941   O     0.45724   0.67693   0.22698   0.00000  Uiso   1.00
O942   O     0.04275   0.82307   0.77302   0.00000  Uiso   1.00
O943   O     0.17692   0.54276   0.22698   0.00000  Uiso   1.00
O944   O     0.32307   0.95724   0.77302   0.00000  Uiso   1.00
O945   O     0.04275   0.82307   0.22698   0.00000  Uiso   1.00
O946   O     0.45724   0.67693   0.77302   0.00000  Uiso   1.00
O947   O     0.32307   0.95724   0.22698   0.00000  Uiso   1.00
O948   O     0.17692   0.54276   0.77302   0.00000  Uiso   1.00
Zn949  Zn    0.20659   0.50000   0.21735   0.00000  Uiso   1.00
Zn950  Zn    0.29340   0.50000   0.78265   0.00000  Uiso   1.00
Zn951  Zn   -0.00000   0.70660   0.21735   0.00000  Uiso   1.00
Zn952  Zn    0.00000   0.79340   0.78265   0.00000  Uiso   1.00
Zn953  Zn    0.29340   0.50000   0.21735   0.00000  Uiso   1.00
Zn954  Zn    0.20659   0.50000   0.78265   0.00000  Uiso   1.00
Zn955  Zn    0.00000   0.79340   0.21735   0.00000  Uiso   1.00
Zn956  Zn    0.00000   0.70659   0.78265   0.00000  Uiso   1.00
Zn957  Zn    0.45659   0.75000   0.71735   0.00000  Uiso   1.00
Zn958  Zn    0.04340   0.75000   0.28265   0.00000  Uiso   1.00
Zn959  Zn    0.25000   0.95659   0.71735   0.00000  Uiso   1.00
Zn960  Zn    0.25000   0.54341   0.28265   0.00000  Uiso   1.00
Zn961  Zn    0.04340   0.75000   0.71735   0.00000  Uiso   1.00
Zn962  Zn    0.45659   0.75000   0.28265   0.00000  Uiso   1.00
Zn963  Zn    0.25000   0.54341   0.71735   0.00000  Uiso   1.00
Zn964  Zn    0.25000   0.95659   0.28265   0.00000  Uiso   1.00
C965   C     0.45776   0.65841   0.45858   0.00000  Uiso   1.00
N966   N     0.44380   0.63464   0.44221   0.00000  Uiso   1.00
C967   C     0.00111   0.85352   0.53814   0.00000  Uiso   1.00
N968   N     0.49770   0.88186   0.55255   0.00000  Uiso   1.00
C969   C     0.35047   0.51771   0.46227   0.00000  Uiso   1.00
N970   N     0.37733   0.52824   0.44853   0.00000  Uiso   1.00
C971   C     0.14941   0.98329   0.53780   0.00000  Uiso   1.00
N972   N     0.12245   0.97306   0.55159   0.00000  Uiso   1.00
C973   C     0.02263   0.84975   0.46004   0.00000  Uiso   1.00
N974   N     0.03445   0.87548   0.44507   0.00000  Uiso   1.00
C975   C     0.45156   0.66085   0.53937   0.00000  Uiso   1.00
N976   N     0.43446   0.63844   0.55459   0.00000  Uiso   1.00
C977   C     0.14875   0.51293   0.46253   0.00000  Uiso   1.00
N978   N     0.12137   0.52207   0.44884   0.00000  Uiso   1.00
C979   C     0.35136   0.98749   0.53728   0.00000  Uiso   1.00
N980   N     0.37880   0.97837   0.55085   0.00000  Uiso   1.00
C981   C     0.25203   0.89654   0.96189   0.00000  Uiso   1.00
N982   N     0.25634   0.86830   0.94752   0.00000  Uiso   1.00
C983   C     0.28990   0.59276   0.04138   0.00000  Uiso   1.00
N984   N     0.30322   0.61692   0.05771   0.00000  Uiso   1.00
C985   C     0.10346   0.75739   0.96149   0.00000  Uiso   1.00
N986   N     0.13193   0.75566   0.94697   0.00000  Uiso   1.00
C987   C     0.41268   0.70047   0.04241   0.00000  Uiso   1.00
N988   N     0.39036   0.68451   0.05911   0.00000  Uiso   1.00
C989   C     0.29627   0.59042   0.96061   0.00000  Uiso   1.00
N990   N     0.31282   0.61324   0.94538   0.00000  Uiso   1.00
C991   C     0.22983   0.89980   0.03983   0.00000  Uiso   1.00
N992   N     0.21853   0.87380   0.05473   0.00000  Uiso   1.00
C993   C     0.41500   0.69456   0.96147   0.00000  Uiso   1.00
N994   N     0.39390   0.67578   0.94646   0.00000  Uiso   1.00
C995   C     0.09846   0.77908   0.03944   0.00000  Uiso   1.00
N996   N     0.12341   0.79259   0.05419   0.00000  Uiso   1.00
C997   C     0.16628   0.89093   0.17935   0.00000  Uiso   1.00
H998   H     0.19437   0.89984   0.18244   0.00000  Uiso   1.00
O999   O     0.15399   0.88810   0.14658   0.00000  Uiso   1.00
C1000  C     0.33437   0.60846   0.82083   0.00000  Uiso   1.00
H1001  H     0.30598   0.60054   0.81788   0.00000  Uiso   1.00
O1002  O     0.34729   0.60988   0.85342   0.00000  Uiso   1.00
C1003  C     0.10957   0.66662   0.17959   0.00000  Uiso   1.00
H1004  H     0.10051   0.69469   0.18269   0.00000  Uiso   1.00
O1005  O     0.11269   0.65439   0.14683   0.00000  Uiso   1.00
C1006  C     0.38882   0.83131   0.81952   0.00000  Uiso   1.00
H1007  H     0.39927   0.80382   0.81570   0.00000  Uiso   1.00
O1008  O     0.38295   0.84160   0.85261   0.00000  Uiso   1.00
C1009  C     0.33287   0.61003   0.17997   0.00000  Uiso   1.00
H1010  H     0.30474   0.60139   0.18353   0.00000  Uiso   1.00
O1011  O     0.34467   0.61312   0.14699   0.00000  Uiso   1.00
C1012  C     0.16044   0.89609   0.82192   0.00000  Uiso   1.00
H1013  H     0.18944   0.90204   0.82094   0.00000  Uiso   1.00
O1014  O     0.14468   0.89858   0.85302   0.00000  Uiso   1.00
C1015  C     0.39187   0.83476   0.17892   0.00000  Uiso   1.00
H1016  H     0.40075   0.80660   0.18176   0.00000  Uiso   1.00
O1017  O     0.38932   0.84745   0.14627   0.00000  Uiso   1.00
C1018  C     0.10690   0.66437   0.82050   0.00000  Uiso   1.00
H1019  H     0.11128   0.69367   0.82078   0.00000  Uiso   1.00
O1020  O     0.09240   0.64974   0.84839   0.00000  Uiso   1.00
C1021  C     0.16608   0.60894   0.82065   0.00000  Uiso   1.00
H1022  H     0.19423   0.60013   0.81758   0.00000  Uiso   1.00
O1023  O     0.15366   0.61159   0.85340   0.00000  Uiso   1.00
C1024  C     0.33723   0.89466   0.17892   0.00000  Uiso   1.00
H1025  H     0.30792   0.89054   0.17769   0.00000  Uiso   1.00
O1026  O     0.35269   0.90965   0.15184   0.00000  Uiso   1.00
C1027  C     0.10072   0.84263   0.82197   0.00000  Uiso   1.00
H1028  H     0.10548   0.81370   0.82648   0.00000  Uiso   1.00
O1029  O     0.08344   0.85999   0.84601   0.00000  Uiso   1.00
C1030  C     0.39297   0.66449   0.17942   0.00000  Uiso   1.00
H1031  H     0.38936   0.69390   0.17927   0.00000  Uiso   1.00
O1032  O     0.40675   0.64962   0.15129   0.00000  Uiso   1.00
C1033  C     0.33501   0.89242   0.82038   0.00000  Uiso   1.00
H1034  H     0.30555   0.88928   0.82028   0.00000  Uiso   1.00
O1035  O     0.34991   0.90566   0.84875   0.00000  Uiso   1.00
C1036  C     0.16545   0.60801   0.17996   0.00000  Uiso   1.00
H1037  H     0.19460   0.61326   0.17999   0.00000  Uiso   1.00
O1038  O     0.15152   0.59322   0.15191   0.00000  Uiso   1.00
C1039  C     0.39314   0.66401   0.82068   0.00000  Uiso   1.00
H1040  H     0.38848   0.69326   0.82111   0.00000  Uiso   1.00
O1041  O     0.40775   0.64933   0.84847   0.00000  Uiso   1.00
C1042  C     0.10725   0.83542   0.17954   0.00000  Uiso   1.00
H1043  H     0.11180   0.80613   0.17936   0.00000  Uiso   1.00
O1044  O     0.09277   0.84992   0.15157   0.00000  Uiso   1.00
C1045  C     0.41601   0.64123   0.67944   0.00000  Uiso   1.00
H1046  H     0.44435   0.64924   0.68263   0.00000  Uiso   1.00
O1047  O     0.40349   0.63938   0.64670   0.00000  Uiso   1.00
C1048  C     0.08331   0.85937   0.32042   0.00000  Uiso   1.00
H1049  H     0.05544   0.84987   0.31714   0.00000  Uiso   1.00
O1050  O     0.09498   0.86329   0.35331   0.00000  Uiso   1.00
C1051  C     0.35762   0.91512   0.67964   0.00000  Uiso   1.00
H1052  H     0.36085   0.94457   0.67977   0.00000  Uiso   1.00
O1053  O     0.34431   0.90030   0.65126   0.00000  Uiso   1.00
C1054  C     0.13994   0.58273   0.32031   0.00000  Uiso   1.00
H1055  H     0.14962   0.55490   0.31696   0.00000  Uiso   1.00
O1056  O     0.13575   0.59427   0.35322   0.00000  Uiso   1.00
C1057  C     0.09217   0.85128   0.67753   0.00000  Uiso   1.00
H1058  H     0.06293   0.85453   0.67383   0.00000  Uiso   1.00
O1059  O     0.10988   0.83545   0.65267   0.00000  Uiso   1.00
C1060  C     0.41434   0.64282   0.32060   0.00000  Uiso   1.00
H1061  H     0.44373   0.63912   0.32082   0.00000  Uiso   1.00
O1062  O     0.39937   0.65663   0.34866   0.00000  Uiso   1.00
C1063  C     0.14375   0.58635   0.67932   0.00000  Uiso   1.00
H1064  H     0.13969   0.55701   0.67855   0.00000  Uiso   1.00
O1065  O     0.15835   0.60155   0.65182   0.00000  Uiso   1.00
C1066  C     0.35745   0.91428   0.32115   0.00000  Uiso   1.00
H1067  H     0.34960   0.94278   0.31871   0.00000  Uiso   1.00
O1068  O     0.35830   0.90061   0.35345   0.00000  Uiso   1.00
C1069  C     0.41307   0.85565   0.32082   0.00000  Uiso   1.00
H1070  H     0.44229   0.86044   0.32191   0.00000  Uiso   1.00
O1071  O     0.39807   0.84032   0.34798   0.00000  Uiso   1.00
C1072  C     0.08365   0.64086   0.67946   0.00000  Uiso   1.00
H1073  H     0.05567   0.65016   0.68264   0.00000  Uiso   1.00
O1074  O     0.09565   0.63737   0.64662   0.00000  Uiso   1.00
C1075  C     0.36020   0.58230   0.31998   0.00000  Uiso   1.00
H1076  H     0.35056   0.55451   0.31637   0.00000  Uiso   1.00
O1077  O     0.36463   0.59341   0.35301   0.00000  Uiso   1.00
C1078  C     0.14485   0.91259   0.67793   0.00000  Uiso   1.00
H1079  H     0.15245   0.94115   0.67997   0.00000  Uiso   1.00
O1080  O     0.14468   0.89854   0.64584   0.00000  Uiso   1.00
C1081  C     0.08469   0.64220   0.32022   0.00000  Uiso   1.00
H1082  H     0.05543   0.63760   0.32020   0.00000  Uiso   1.00
O1083  O     0.09895   0.65657   0.34834   0.00000  Uiso   1.00
C1084  C     0.41865   0.86123   0.68045   0.00000  Uiso   1.00
H1085  H     0.44611   0.85069   0.68425   0.00000  Uiso   1.00
O1086  O     0.40838   0.86722   0.64737   0.00000  Uiso   1.00
C1087  C     0.14383   0.91335   0.32072   0.00000  Uiso   1.00
H1088  H     0.13998   0.94272   0.32166   0.00000  Uiso   1.00
O1089  O     0.15831   0.89789   0.34811   0.00000  Uiso   1.00
C1090  C     0.35588   0.58704   0.67911   0.00000  Uiso   1.00
H1091  H     0.35960   0.55765   0.67815   0.00000  Uiso   1.00
O1092  O     0.34154   0.60258   0.65170   0.00000  Uiso   1.00
C1093  C     0.48952   0.81743   0.39383   0.00000  Uiso   1.00
H1094  H     0.00279   0.82184   0.36602   0.00000  Uiso   1.00
O1095  O     0.46636   0.83918   0.40463   0.00000  Uiso   1.00
C1096  C     0.49525   0.68303   0.60361   0.00000  Uiso   1.00
H1097  H     0.48343   0.68037   0.63237   0.00000  Uiso   1.00
O1098  O     0.01277   0.65751   0.59041   0.00000  Uiso   1.00
C1099  C     0.18365   0.98882   0.39440   0.00000  Uiso   1.00
H1100  H     0.17704   0.50428   0.36841   0.00000  Uiso   1.00
O1101  O     0.16496   0.96242   0.40299   0.00000  Uiso   1.00
C1102  C     0.31645   0.51049   0.60576   0.00000  Uiso   1.00
H1103  H     0.32307   0.99448   0.63137   0.00000  Uiso   1.00
O1104  O     0.33516   0.53703   0.59774   0.00000  Uiso   1.00
C1105  C     0.00706   0.68184   0.39969   0.00000  Uiso   1.00
H1106  H     0.01958   0.66025   0.41673   0.00000  Uiso   1.00
O1107  O     0.00049   0.67599   0.36551   0.00000  Uiso   1.00
C1108  C     0.02220   0.81395   0.60485   0.00000  Uiso   1.00
H1109  H     0.00952   0.82257   0.63183   0.00000  Uiso   1.00
O1110  O     0.05075   0.82824   0.59463   0.00000  Uiso   1.00
C1111  C     0.31675   0.99206   0.39419   0.00000  Uiso   1.00
H1112  H     0.32262   0.50790   0.36826   0.00000  Uiso   1.00
O1113  O     0.33666   0.96650   0.40263   0.00000  Uiso   1.00
C1114  C     0.18335   0.50883   0.60579   0.00000  Uiso   1.00
H1115  H     0.17732   0.99311   0.63177   0.00000  Uiso   1.00
O1116  O     0.16369   0.53457   0.59729   0.00000  Uiso   1.00
C1117  C     0.25313   0.56715   0.89634   0.00000  Uiso   1.00
H1118  H     0.26488   0.57008   0.86758   0.00000  Uiso   1.00
O1119  O     0.23501   0.59226   0.90954   0.00000  Uiso   1.00
C1120  C     0.26201   0.93288   0.10614   0.00000  Uiso   1.00
H1121  H     0.24877   0.92815   0.13391   0.00000  Uiso   1.00
O1122  O     0.28565   0.91165   0.09537   0.00000  Uiso   1.00
C1123  C     0.43370   0.73969   0.89685   0.00000  Uiso   1.00
H1124  H     0.43184   0.72760   0.86819   0.00000  Uiso   1.00
O1125  O     0.40697   0.75527   0.91011   0.00000  Uiso   1.00
C1126  C     0.06825   0.74472   0.10628   0.00000  Uiso   1.00
H1127  H     0.07162   0.75856   0.13389   0.00000  Uiso   1.00
O1128  O     0.09158   0.72299   0.09584   0.00000  Uiso   1.00
C1129  C     0.22985   0.93547   0.89514   0.00000  Uiso   1.00
H1130  H     0.24275   0.92726   0.86812   0.00000  Uiso   1.00
O1131  O     0.20179   0.92031   0.90541   0.00000  Uiso   1.00
C1132  C     0.24130   0.56802   0.10032   0.00000  Uiso   1.00
H1133  H     0.22820   0.58929   0.08332   0.00000  Uiso   1.00
O1134  O     0.24784   0.57405   0.13447   0.00000  Uiso   1.00
C1135  C     0.06240   0.77634   0.89508   0.00000  Uiso   1.00
H1136  H     0.07168   0.76451   0.86792   0.00000  Uiso   1.00
O1137  O     0.07493   0.80559   0.90554   0.00000  Uiso   1.00
C1138  C     0.43268   0.75254   0.10169   0.00000  Uiso   1.00
H1139  H     0.42938   0.74568   0.13216   0.00000  Uiso   1.00
O1140  O     0.40741   0.76753   0.08490   0.00000  Uiso   1.00
C1141  C     0.99770   0.78413   0.41721   0.00000  Uiso   1.00
C1142  C     0.99220   0.71807   0.58174   0.00000  Uiso   1.00
C1143  C     0.71663   0.99815   0.41764   0.00000  Uiso   1.00
C1144  C     0.78340   0.50170   0.58239   0.00000  Uiso   1.00
C1145  C     0.99780   0.71732   0.41877   0.00000  Uiso   1.00
C1146  C     0.50634   0.78338   0.58204   0.00000  Uiso   1.00
C1147  C     0.78337   0.99980   0.41753   0.00000  Uiso   1.00
C1148  C     0.71665   0.50068   0.58246   0.00000  Uiso   1.00
C1149  C     0.75703   0.53220   0.91823   0.00000  Uiso   1.00
C1150  C     0.75314   0.96599   0.08276   0.00000  Uiso   1.00
C1151  C     0.96892   0.73938   0.91853   0.00000  Uiso   1.00
C1152  C     0.53456   0.75029   0.08278   0.00000  Uiso   1.00
C1153  C     0.74478   0.96650   0.91794   0.00000  Uiso   1.00
C1154  C     0.75140   0.53279   0.08122   0.00000  Uiso   1.00
C1155  C     0.53300   0.75835   0.91792   0.00000  Uiso   1.00
C1156  C     0.96801   0.74575   0.08135   0.00000  Uiso   1.00
C1157  C     0.99952   0.75037   0.39795   0.00000  Uiso   1.00
C1158  C     0.99941   0.75055   0.60184   0.00000  Uiso   1.00
C1159  C     0.74996   0.50022   0.39782   0.00000  Uiso   1.00
C1160  C     0.75004   0.99983   0.60218   0.00000  Uiso   1.00
C1161  C     0.75065   0.99954   0.89815   0.00000  Uiso   1.00
C1162  C     0.75048   0.99970   0.10203   0.00000  Uiso   1.00
C1163  C     0.50070   0.74919   0.89824   0.00000  Uiso   1.00
C1164  C     0.50074   0.74968   0.10204   0.00000  Uiso   1.00
C1165  C     0.97517   0.68831   0.47930   0.00000  Uiso   1.00
C1166  C     0.50520   0.81805   0.51970   0.00000  Uiso   1.00
C1167  C     0.81677   0.50468   0.47987   0.00000  Uiso   1.00
C1168  C     0.68321   0.99596   0.52013   0.00000  Uiso   1.00
C1169  C     0.50797   0.81747   0.47912   0.00000  Uiso   1.00
C1170  C     0.97288   0.68902   0.52000   0.00000  Uiso   1.00
C1171  C     0.68307   0.50162   0.48008   0.00000  Uiso   1.00
C1172  C     0.81696   0.99877   0.51988   0.00000  Uiso   1.00
C1173  C     0.74681   0.93190   0.98027   0.00000  Uiso   1.00
C1174  C     0.77330   0.56240   0.02068   0.00000  Uiso   1.00
C1175  C     0.56784   0.75939   0.98007   0.00000  Uiso   1.00
C1176  C     0.94076   0.72037   0.02126   0.00000  Uiso   1.00
C1177  C     0.77563   0.56174   0.97998   0.00000  Uiso   1.00
C1178  C     0.74383   0.93242   0.02083   0.00000  Uiso   1.00
C1179  C     0.94152   0.71801   0.98056   0.00000  Uiso   1.00
C1180  C     0.56715   0.76232   0.02063   0.00000  Uiso   1.00
C1181  C     0.74996   0.50001   0.35560   0.00000  Uiso   1.00
C1182  C     0.75002   0.99999   0.64441   0.00000  Uiso   1.00
C1183  C     0.99996   0.74988   0.35569   0.00000  Uiso   1.00
C1184  C     0.99997   0.75006   0.64427   0.00000  Uiso   1.00
C1185  C     0.50004   0.74992   0.85577   0.00000  Uiso   1.00
C1186  C     0.99984   0.75000   0.14431   0.00000  Uiso   1.00
C1187  C     0.75004   0.99999   0.85573   0.00000  Uiso   1.00
C1188  C     0.75004   0.50015   0.14431   0.00000  Uiso   1.00
C1189  C     0.68000   0.56992   0.25003   0.00000  Uiso   1.00
C1190  C     0.81997   0.93003   0.75000   0.00000  Uiso   1.00
C1191  C     0.93002   0.68003   0.25001   0.00000  Uiso   1.00
C1192  C     0.56993   0.82006   0.74987   0.00000  Uiso   1.00
C1193  C     0.81999   0.93004   0.25000   0.00000  Uiso   1.00
C1194  C     0.68006   0.57001   0.75001   0.00000  Uiso   1.00
C1195  C     0.56995   0.81999   0.24996   0.00000  Uiso   1.00
C1196  C     0.93004   0.68002   0.75005   0.00000  Uiso   1.00
C1197  C     0.67999   0.93011   0.74994   0.00000  Uiso   1.00
C1198  C     0.81998   0.56995   0.24999   0.00000  Uiso   1.00
C1199  C     0.93005   0.81995   0.74999   0.00000  Uiso   1.00
C1200  C     0.56998   0.68005   0.25000   0.00000  Uiso   1.00
C1201  C     0.81993   0.57003   0.75001   0.00000  Uiso   1.00
C1202  C     0.68008   0.92996   0.24998   0.00000  Uiso   1.00
C1203  C     0.56995   0.68001   0.75001   0.00000  Uiso   1.00
C1204  C     0.92998   0.81992   0.24995   0.00000  Uiso   1.00
C1205  C     0.64361   0.88358   0.21472   0.00000  Uiso   1.00
C1206  C     0.85671   0.61608   0.78534   0.00000  Uiso   1.00
C1207  C     0.61673   0.64386   0.21492   0.00000  Uiso   1.00
C1208  C     0.88272   0.85540   0.78485   0.00000  Uiso   1.00
C1209  C     0.85613   0.61672   0.21499   0.00000  Uiso   1.00
C1210  C     0.64062   0.88654   0.78543   0.00000  Uiso   1.00
C1211  C     0.88414   0.85696   0.21451   0.00000  Uiso   1.00
C1212  C     0.61580   0.64306   0.78506   0.00000  Uiso   1.00
C1213  C     0.64350   0.61634   0.78526   0.00000  Uiso   1.00
C1214  C     0.85758   0.88481   0.21470   0.00000  Uiso   1.00
C1215  C     0.61277   0.86019   0.78535   0.00000  Uiso   1.00
C1216  C     0.88399   0.64324   0.21494   0.00000  Uiso   1.00
C1217  C     0.85636   0.88348   0.78495   0.00000  Uiso   1.00
C1218  C     0.64352   0.61625   0.21516   0.00000  Uiso   1.00
C1219  C     0.88434   0.64281   0.78517   0.00000  Uiso   1.00
C1220  C     0.61594   0.85686   0.21492   0.00000  Uiso   1.00
C1221  C     0.89333   0.63393   0.71478   0.00000  Uiso   1.00
C1222  C     0.60631   0.86641   0.28516   0.00000  Uiso   1.00
C1223  C     0.86653   0.89370   0.71504   0.00000  Uiso   1.00
C1224  C     0.63307   0.60589   0.28516   0.00000  Uiso   1.00
C1225  C     0.60973   0.86341   0.71407   0.00000  Uiso   1.00
C1226  C     0.89323   0.63382   0.28509   0.00000  Uiso   1.00
C1227  C     0.63431   0.60711   0.71494   0.00000  Uiso   1.00
C1228  C     0.86559   0.89265   0.28535   0.00000  Uiso   1.00
C1229  C     0.89236   0.86506   0.28512   0.00000  Uiso   1.00
C1230  C     0.60644   0.63364   0.71478   0.00000  Uiso   1.00
C1231  C     0.86681   0.60584   0.28503   0.00000  Uiso   1.00
C1232  C     0.63594   0.89154   0.71405   0.00000  Uiso   1.00
C1233  C     0.60642   0.63367   0.28496   0.00000  Uiso   1.00
C1234  C     0.89460   0.86731   0.71513   0.00000  Uiso   1.00
C1235  C     0.63427   0.89282   0.28503   0.00000  Uiso   1.00
C1236  C     0.86545   0.60746   0.71488   0.00000  Uiso   1.00
C1237  C     0.98994   0.71859   0.45902   0.00000  Uiso   1.00
C1238  C     0.50242   0.78487   0.54099   0.00000  Uiso   1.00
C1239  C     0.78375   0.50165   0.45868   0.00000  Uiso   1.00
C1240  C     0.71626   0.99884   0.54132   0.00000  Uiso   1.00
C1241  C     0.50057   0.78493   0.45833   0.00000  Uiso   1.00
C1242  C     0.98737   0.71908   0.54092   0.00000  Uiso   1.00
C1243  C     0.71618   0.50006   0.45878   0.00000  Uiso   1.00
C1244  C     0.78385   0.50012   0.54122   0.00000  Uiso   1.00
C1245  C     0.74870   0.96514   0.95899   0.00000  Uiso   1.00
C1246  C     0.75931   0.53173   0.04097   0.00000  Uiso   1.00
C1247  C     0.53487   0.75442   0.95895   0.00000  Uiso   1.00
C1248  C     0.96975   0.73769   0.04119   0.00000  Uiso   1.00
C1249  C     0.76192   0.53132   0.95906   0.00000  Uiso   1.00
C1250  C     0.75036   0.96514   0.04164   0.00000  Uiso   1.00
C1251  C     0.97036   0.73467   0.95938   0.00000  Uiso   1.00
C1252  C     0.53518   0.75293   0.04162   0.00000  Uiso   1.00
C1253  C     0.59787   0.84834   0.25005   0.00000  Uiso   1.00
C1254  C     0.90211   0.65166   0.74998   0.00000  Uiso   1.00
C1255  C     0.65165   0.59785   0.25018   0.00000  Uiso   1.00
C1256  C     0.84816   0.90187   0.75000   0.00000  Uiso   1.00
C1257  C     0.90185   0.65186   0.25003   0.00000  Uiso   1.00
C1258  C     0.59802   0.84834   0.74973   0.00000  Uiso   1.00
C1259  C     0.84829   0.90202   0.25005   0.00000  Uiso   1.00
C1260  C     0.65212   0.59838   0.75012   0.00000  Uiso   1.00
C1261  C     0.59788   0.65167   0.74991   0.00000  Uiso   1.00
C1262  C     0.90162   0.84782   0.24980   0.00000  Uiso   1.00
C1263  C     0.65172   0.90218   0.74978   0.00000  Uiso   1.00
C1264  C     0.84816   0.59804   0.25001   0.00000  Uiso   1.00
C1265  C     0.90192   0.84808   0.74999   0.00000  Uiso   1.00
C1266  C     0.59828   0.65205   0.24992   0.00000  Uiso   1.00
C1267  C     0.84785   0.59841   0.75012   0.00000  Uiso   1.00
C1268  C     0.65216   0.90157   0.24986   0.00000  Uiso   1.00
C1269  C     0.99502   0.75194   0.47928   0.00000  Uiso   1.00
C1270  C     0.99506   0.75199   0.52045   0.00000  Uiso   1.00
C1271  C     0.75000   0.50026   0.47934   0.00000  Uiso   1.00
C1272  C     0.75003   0.50008   0.52066   0.00000  Uiso   1.00
C1273  C     0.75512   0.99821   0.97953   0.00000  Uiso   1.00
C1274  C     0.75510   0.99826   0.02070   0.00000  Uiso   1.00
C1275  C     0.50264   0.74481   0.97965   0.00000  Uiso   1.00
C1276  C     0.50264   0.74500   0.02080   0.00000  Uiso   1.00
O1277  O     0.75000   0.50000   0.25000   0.00000  Uiso   1.00
O1278  O     0.75000   0.50000   0.75000   0.00000  Uiso   1.00
O1279  O     0.50000   0.75000   0.25000   0.00000  Uiso   1.00
O1280  O     0.50000   0.75000   0.75000   0.00000  Uiso   1.00
O1281  O     0.75000   0.96963   0.33755   0.00000  Uiso   1.00
O1282  O     0.75000   0.53037   0.66245   0.00000  Uiso   1.00
O1283  O     0.53036   0.75000   0.33755   0.00000  Uiso   1.00
O1284  O     0.96963   0.75000   0.66245   0.00000  Uiso   1.00
O1285  O     0.75000   0.53037   0.33755   0.00000  Uiso   1.00
O1286  O     0.75000   0.96963   0.66245   0.00000  Uiso   1.00
O1287  O     0.96963   0.75000   0.33755   0.00000  Uiso   1.00
O1288  O     0.53036   0.75000   0.66245   0.00000  Uiso   1.00
O1289  O     0.50000   0.71963   0.83755   0.00000  Uiso   1.00
O1290  O     0.50000   0.78036   0.16245   0.00000  Uiso   1.00
O1291  O     0.78036   0.50000   0.83755   0.00000  Uiso   1.00
O1292  O     0.71963   0.50000   0.16245   0.00000  Uiso   1.00
O1293  O     0.50000   0.78036   0.83755   0.00000  Uiso   1.00
O1294  O     0.50000   0.71964   0.16245   0.00000  Uiso   1.00
O1295  O     0.71963   0.50000   0.83755   0.00000  Uiso   1.00
O1296  O     0.78036   0.50000   0.16245   0.00000  Uiso   1.00
O1297  O     0.70724   0.57308   0.27302   0.00000  Uiso   1.00
O1298  O     0.79275   0.92692   0.72698   0.00000  Uiso   1.00
O1299  O     0.92692   0.70725   0.27302   0.00000  Uiso   1.00
O1300  O     0.57307   0.79275   0.72698   0.00000  Uiso   1.00
O1301  O     0.79275   0.92692   0.27302   0.00000  Uiso   1.00
O1302  O     0.70724   0.57308   0.72698   0.00000  Uiso   1.00
O1303  O     0.57307   0.79275   0.27302   0.00000  Uiso   1.00
O1304  O     0.92692   0.70725   0.72698   0.00000  Uiso   1.00
O1305  O     0.70724   0.92692   0.72698   0.00000  Uiso   1.00
O1306  O     0.79275   0.57308   0.27302   0.00000  Uiso   1.00
O1307  O     0.92692   0.79275   0.72698   0.00000  Uiso   1.00
O1308  O     0.57307   0.70724   0.27302   0.00000  Uiso   1.00
O1309  O     0.79275   0.57308   0.72698   0.00000  Uiso   1.00
O1310  O     0.70724   0.92692   0.27302   0.00000  Uiso   1.00
O1311  O     0.57307   0.70724   0.72698   0.00000  Uiso   1.00
O1312  O     0.92692   0.79275   0.27302   0.00000  Uiso   1.00
O1313  O     0.95724   0.82307   0.77302   0.00000  Uiso   1.00
O1314  O     0.54275   0.67692   0.22698   0.00000  Uiso   1.00
O1315  O     0.67692   0.95724   0.77302   0.00000  Uiso   1.00
O1316  O     0.82307   0.54276   0.22698   0.00000  Uiso   1.00
O1317  O     0.54275   0.67692   0.77302   0.00000  Uiso   1.00
O1318  O     0.95724   0.82307   0.22698   0.00000  Uiso   1.00
O1319  O     0.82307   0.54276   0.77302   0.00000  Uiso   1.00
O1320  O     0.67692   0.95724   0.22698   0.00000  Uiso   1.00
O1321  O     0.95724   0.67693   0.22698   0.00000  Uiso   1.00
O1322  O     0.54275   0.82307   0.77302   0.00000  Uiso   1.00
O1323  O     0.67692   0.54276   0.22698   0.00000  Uiso   1.00
O1324  O     0.82307   0.95724   0.77302   0.00000  Uiso   1.00
O1325  O     0.54275   0.82307   0.22698   0.00000  Uiso   1.00
O1326  O     0.95724   0.67693   0.77302   0.00000  Uiso   1.00
O1327  O     0.82307   0.95724   0.22698   0.00000  Uiso   1.00
O1328  O     0.67692   0.54276   0.77302   0.00000  Uiso   1.00
Zn1329 Zn    0.70659   0.50000   0.21735   0.00000  Uiso   1.00
Zn1330 Zn    0.79340   0.50000   0.78265   0.00000  Uiso   1.00
Zn1331 Zn    0.50000   0.70660   0.21735   0.00000  Uiso   1.00
Zn1332 Zn    0.50000   0.79340   0.78265   0.00000  Uiso   1.00
Zn1333 Zn    0.79340   0.50000   0.21735   0.00000  Uiso   1.00
Zn1334 Zn    0.70659   0.50000   0.78265   0.00000  Uiso   1.00
Zn1335 Zn    0.50000   0.79340   0.21735   0.00000  Uiso   1.00
Zn1336 Zn    0.50000   0.70659   0.78265   0.00000  Uiso   1.00
Zn1337 Zn    0.95659   0.75000   0.71735   0.00000  Uiso   1.00
Zn1338 Zn    0.54340   0.75000   0.28265   0.00000  Uiso   1.00
Zn1339 Zn    0.75000   0.95659   0.71735   0.00000  Uiso   1.00
Zn1340 Zn    0.75000   0.54341   0.28265   0.00000  Uiso   1.00
Zn1341 Zn    0.54340   0.75000   0.71735   0.00000  Uiso   1.00
Zn1342 Zn    0.95659   0.75000   0.28265   0.00000  Uiso   1.00
Zn1343 Zn    0.75000   0.54341   0.71735   0.00000  Uiso   1.00
Zn1344 Zn    0.75000   0.95659   0.28265   0.00000  Uiso   1.00
C1345  C     0.95776   0.65841   0.45858   0.00000  Uiso   1.00
N1346  N     0.94380   0.63464   0.44221   0.00000  Uiso   1.00
C1347  C     0.50111   0.85352   0.53814   0.00000  Uiso   1.00
N1348  N     0.99770   0.88186   0.55255   0.00000  Uiso   1.00
C1349  C     0.85047   0.51771   0.46227   0.00000  Uiso   1.00
N1350  N     0.87733   0.52824   0.44853   0.00000  Uiso   1.00
C1351  C     0.64941   0.98329   0.53780   0.00000  Uiso   1.00
N1352  N     0.62245   0.97306   0.55159   0.00000  Uiso   1.00
C1353  C     0.52263   0.84975   0.46004   0.00000  Uiso   1.00
N1354  N     0.53445   0.87548   0.44507   0.00000  Uiso   1.00
C1355  C     0.95156   0.66085   0.53937   0.00000  Uiso   1.00
N1356  N     0.93446   0.63844   0.55459   0.00000  Uiso   1.00
C1357  C     0.64875   0.51293   0.46253   0.00000  Uiso   1.00
N1358  N     0.62137   0.52207   0.44884   0.00000  Uiso   1.00
C1359  C     0.85136   0.98749   0.53728   0.00000  Uiso   1.00
N1360  N     0.87880   0.97837   0.55085   0.00000  Uiso   1.00
C1361  C     0.75203   0.89654   0.96189   0.00000  Uiso   1.00
N1362  N     0.75634   0.86830   0.94752   0.00000  Uiso   1.00
C1363  C     0.78990   0.59276   0.04138   0.00000  Uiso   1.00
N1364  N     0.80322   0.61692   0.05771   0.00000  Uiso   1.00
C1365  C     0.60346   0.75739   0.96149   0.00000  Uiso   1.00
N1366  N     0.63193   0.75566   0.94697   0.00000  Uiso   1.00
C1367  C     0.91268   0.70047   0.04241   0.00000  Uiso   1.00
N1368  N     0.89036   0.68451   0.05911   0.00000  Uiso   1.00
C1369  C     0.79627   0.59042   0.96061   0.00000  Uiso   1.00
N1370  N     0.81282   0.61324   0.94538   0.00000  Uiso   1.00
C1371  C     0.72983   0.89980   0.03983   0.00000  Uiso   1.00
N1372  N     0.71853   0.87380   0.05473   0.00000  Uiso   1.00
C1373  C     0.91500   0.69456   0.96147   0.00000  Uiso   1.00
N1374  N     0.89390   0.67578   0.94646   0.00000  Uiso   1.00
C1375  C     0.59846   0.77908   0.03944   0.00000  Uiso   1.00
N1376  N     0.62341   0.79259   0.05419   0.00000  Uiso   1.00
C1377  C     0.66628   0.89093   0.17935   0.00000  Uiso   1.00
H1378  H     0.69437   0.89984   0.18244   0.00000  Uiso   1.00
O1379  O     0.65399   0.88810   0.14658   0.00000  Uiso   1.00
C1380  C     0.83437   0.60846   0.82083   0.00000  Uiso   1.00
H1381  H     0.80598   0.60054   0.81788   0.00000  Uiso   1.00
O1382  O     0.84729   0.60988   0.85342   0.00000  Uiso   1.00
C1383  C     0.60957   0.66662   0.17959   0.00000  Uiso   1.00
H1384  H     0.60051   0.69469   0.18269   0.00000  Uiso   1.00
O1385  O     0.61269   0.65439   0.14683   0.00000  Uiso   1.00
C1386  C     0.88882   0.83131   0.81952   0.00000  Uiso   1.00
H1387  H     0.89927   0.80382   0.81570   0.00000  Uiso   1.00
O1388  O     0.88295   0.84160   0.85261   0.00000  Uiso   1.00
C1389  C     0.83287   0.61003   0.17997   0.00000  Uiso   1.00
H1390  H     0.80474   0.60139   0.18353   0.00000  Uiso   1.00
O1391  O     0.84467   0.61312   0.14699   0.00000  Uiso   1.00
C1392  C     0.66044   0.89609   0.82192   0.00000  Uiso   1.00
H1393  H     0.68944   0.90204   0.82094   0.00000  Uiso   1.00
O1394  O     0.64468   0.89858   0.85302   0.00000  Uiso   1.00
C1395  C     0.89187   0.83476   0.17892   0.00000  Uiso   1.00
H1396  H     0.90075   0.80660   0.18176   0.00000  Uiso   1.00
O1397  O     0.88932   0.84745   0.14627   0.00000  Uiso   1.00
C1398  C     0.60690   0.66437   0.82050   0.00000  Uiso   1.00
H1399  H     0.61128   0.69367   0.82078   0.00000  Uiso   1.00
O1400  O     0.59240   0.64974   0.84839   0.00000  Uiso   1.00
C1401  C     0.66608   0.60894   0.82065   0.00000  Uiso   1.00
H1402  H     0.69423   0.60013   0.81758   0.00000  Uiso   1.00
O1403  O     0.65366   0.61159   0.85340   0.00000  Uiso   1.00
C1404  C     0.83723   0.89466   0.17892   0.00000  Uiso   1.00
H1405  H     0.80792   0.89054   0.17769   0.00000  Uiso   1.00
O1406  O     0.85269   0.90965   0.15184   0.00000  Uiso   1.00
C1407  C     0.60072   0.84263   0.82197   0.00000  Uiso   1.00
H1408  H     0.60548   0.81370   0.82648   0.00000  Uiso   1.00
O1409  O     0.58344   0.85999   0.84601   0.00000  Uiso   1.00
C1410  C     0.89297   0.66449   0.17942   0.00000  Uiso   1.00
H1411  H     0.88936   0.69390   0.17927   0.00000  Uiso   1.00
O1412  O     0.90675   0.64962   0.15129   0.00000  Uiso   1.00
C1413  C     0.83501   0.89242   0.82038   0.00000  Uiso   1.00
H1414  H     0.80555   0.88928   0.82028   0.00000  Uiso   1.00
O1415  O     0.84991   0.90566   0.84875   0.00000  Uiso   1.00
C1416  C     0.66545   0.60801   0.17996   0.00000  Uiso   1.00
H1417  H     0.69460   0.61326   0.17999   0.00000  Uiso   1.00
O1418  O     0.65152   0.59322   0.15191   0.00000  Uiso   1.00
C1419  C     0.89314   0.66401   0.82068   0.00000  Uiso   1.00
H1420  H     0.88848   0.69326   0.82111   0.00000  Uiso   1.00
O1421  O     0.90775   0.64933   0.84847   0.00000  Uiso   1.00
C1422  C     0.60725   0.83542   0.17954   0.00000  Uiso   1.00
H1423  H     0.61180   0.80613   0.17936   0.00000  Uiso   1.00
O1424  O     0.59277   0.84992   0.15157   0.00000  Uiso   1.00
C1425  C     0.91601   0.64123   0.67944   0.00000  Uiso   1.00
H1426  H     0.94435   0.64924   0.68263   0.00000  Uiso   1.00
O1427  O     0.90349   0.63938   0.64670   0.00000  Uiso   1.00
C1428  C     0.58331   0.85937   0.32042   0.00000  Uiso   1.00
H1429  H     0.55544   0.84987   0.31714   0.00000  Uiso   1.00
O1430  O     0.59498   0.86329   0.35331   0.00000  Uiso   1.00
C1431  C     0.85762   0.91512   0.67964   0.00000  Uiso   1.00
H1432  H     0.86085   0.94457   0.67977   0.00000  Uiso   1.00
O1433  O     0.84431   0.90030   0.65126   0.00000  Uiso   1.00
C1434  C     0.63994   0.58273   0.32031   0.00000  Uiso   1.00
H1435  H     0.64962   0.55490   0.31696   0.00000  Uiso   1.00
O1436  O     0.63575   0.59427   0.35322   0.00000  Uiso   1.00
C1437  C     0.59217   0.85128   0.67753   0.00000  Uiso   1.00
H1438  H     0.56293   0.85453   0.67383   0.00000  Uiso   1.00
O1439  O     0.60988   0.83545   0.65267   0.00000  Uiso   1.00
C1440  C     0.91434   0.64282   0.32060   0.00000  Uiso   1.00
H1441  H     0.94373   0.63912   0.32082   0.00000  Uiso   1.00
O1442  O     0.89937   0.65663   0.34866   0.00000  Uiso   1.00
C1443  C     0.64375   0.58635   0.67932   0.00000  Uiso   1.00
H1444  H     0.63969   0.55701   0.67855   0.00000  Uiso   1.00
O1445  O     0.65835   0.60155   0.65182   0.00000  Uiso   1.00
C1446  C     0.85745   0.91428   0.32115   0.00000  Uiso   1.00
H1447  H     0.84960   0.94278   0.31871   0.00000  Uiso   1.00
O1448  O     0.85830   0.90061   0.35345   0.00000  Uiso   1.00
C1449  C     0.91307   0.85565   0.32082   0.00000  Uiso   1.00
H1450  H     0.94229   0.86044   0.32191   0.00000  Uiso   1.00
O1451  O     0.89807   0.84032   0.34798   0.00000  Uiso   1.00
C1452  C     0.58365   0.64086   0.67946   0.00000  Uiso   1.00
H1453  H     0.55567   0.65016   0.68264   0.00000  Uiso   1.00
O1454  O     0.59565   0.63737   0.64662   0.00000  Uiso   1.00
C1455  C     0.86020   0.58230   0.31998   0.00000  Uiso   1.00
H1456  H     0.85056   0.55451   0.31637   0.00000  Uiso   1.00
O1457  O     0.86463   0.59341   0.35301   0.00000  Uiso   1.00
C1458  C     0.64485   0.91259   0.67793   0.00000  Uiso   1.00
H1459  H     0.65245   0.94115   0.67997   0.00000  Uiso   1.00
O1460  O     0.64468   0.89854   0.64584   0.00000  Uiso   1.00
C1461  C     0.58469   0.64220   0.32022   0.00000  Uiso   1.00
H1462  H     0.55543   0.63760   0.32020   0.00000  Uiso   1.00
O1463  O     0.59895   0.65657   0.34834   0.00000  Uiso   1.00
C1464  C     0.91865   0.86123   0.68045   0.00000  Uiso   1.00
H1465  H     0.94611   0.85069   0.68425   0.00000  Uiso   1.00
O1466  O     0.90838   0.86722   0.64737   0.00000  Uiso   1.00
C1467  C     0.64383   0.91335   0.32072   0.00000  Uiso   1.00
H1468  H     0.63998   0.94272   0.32166   0.00000  Uiso   1.00
O1469  O     0.65831   0.89789   0.34811   0.00000  Uiso   1.00
C1470  C     0.85588   0.58704   0.67911   0.00000  Uiso   1.00
H1471  H     0.85960   0.55765   0.67815   0.00000  Uiso   1.00
O1472  O     0.84154   0.60258   0.65170   0.00000  Uiso   1.00
C1473  C     0.98952   0.81743   0.39383   0.00000  Uiso   1.00
H1474  H     0.50279   0.82184   0.36602   0.00000  Uiso   1.00
O1475  O     0.96636   0.83918   0.40463   0.00000  Uiso   1.00
C1476  C     0.99525   0.68303   0.60361   0.00000  Uiso   1.00
H1477  H     0.98343   0.68037   0.63237   0.00000  Uiso   1.00
O1478  O     0.51277   0.65751   0.59041   0.00000  Uiso   1.00
C1479  C     0.68365   0.98882   0.39440   0.00000  Uiso   1.00
H1480  H     0.67704   0.50428   0.36841   0.00000  Uiso   1.00
O1481  O     0.66496   0.96242   0.40299   0.00000  Uiso   1.00
C1482  C     0.81645   0.51049   0.60576   0.00000  Uiso   1.00
H1483  H     0.82307   0.99448   0.63137   0.00000  Uiso   1.00
O1484  O     0.83516   0.53703   0.59774   0.00000  Uiso   1.00
C1485  C     0.50706   0.68184   0.39969   0.00000  Uiso   1.00
H1486  H     0.51958   0.66025   0.41673   0.00000  Uiso   1.00
O1487  O     0.50049   0.67599   0.36551   0.00000  Uiso   1.00
C1488  C     0.52220   0.81395   0.60485   0.00000  Uiso   1.00
H1489  H     0.50952   0.82257   0.63183   0.00000  Uiso   1.00
O1490  O     0.55075   0.82824   0.59463   0.00000  Uiso   1.00
C1491  C     0.81675   0.99206   0.39419   0.00000  Uiso   1.00
H1492  H     0.82262   0.50790   0.36826   0.00000  Uiso   1.00
O1493  O     0.83666   0.96650   0.40263   0.00000  Uiso   1.00
C1494  C     0.68335   0.50883   0.60579   0.00000  Uiso   1.00
H1495  H     0.67732   0.99311   0.63177   0.00000  Uiso   1.00
O1496  O     0.66369   0.53457   0.59729   0.00000  Uiso   1.00
C1497  C     0.75313   0.56715   0.89634   0.00000  Uiso   1.00
H1498  H     0.76488   0.57008   0.86758   0.00000  Uiso   1.00
O1499  O     0.73501   0.59226   0.90954   0.00000  Uiso   1.00
C1500  C     0.76201   0.93288   0.10614   0.00000  Uiso   1.00
H1501  H     0.74877   0.92815   0.13391   0.00000  Uiso   1.00
O1502  O     0.78565   0.91165   0.09537   0.00000  Uiso   1.00
C1503  C     0.93370   0.73969   0.89685   0.00000  Uiso   1.00
H1504  H     0.93184   0.72760   0.86819   0.00000  Uiso   1.00
O1505  O     0.90697   0.75527   0.91011   0.00000  Uiso   1.00
C1506  C     0.56825   0.74472   0.10628   0.00000  Uiso   1.00
H1507  H     0.57162   0.75856   0.13389   0.00000  Uiso   1.00
O1508  O     0.59158   0.72299   0.09584   0.00000  Uiso   1.00
C1509  C     0.72985   0.93547   0.89514   0.00000  Uiso   1.00
H1510  H     0.74275   0.92726   0.86812   0.00000  Uiso   1.00
O1511  O     0.70179   0.92031   0.90541   0.00000  Uiso   1.00
C1512  C     0.74130   0.56802   0.10032   0.00000  Uiso   1.00
H1513  H     0.72820   0.58929   0.08332   0.00000  Uiso   1.00
O1514  O     0.74784   0.57405   0.13447   0.00000  Uiso   1.00
C1515  C     0.56240   0.77634   0.89508   0.00000  Uiso   1.00
H1516  H     0.57168   0.76451   0.86792   0.00000  Uiso   1.00
O1517  O     0.57493   0.80559   0.90554   0.00000  Uiso   1.00
C1518  C     0.93268   0.75254   0.10169   0.00000  Uiso   1.00
H1519  H     0.92938   0.74568   0.13216   0.00000  Uiso   1.00
O1520  O     0.90741   0.76753   0.08490   0.00000  Uiso   1.00
loop_
_geom_bond_atom_site_label_1
_geom_bond_atom_site_label_2
_geom_bond_distance
_geom_bond_site_symmetry_2
_ccdc_geom_bond_type
C1     C333    1.491   .     S
C1     C17     1.406   .     A
C1     C481    1.420   .     S
C2     C102    1.417   .     A
C2     C336    1.491   .     S
C2     C18     1.403   .     A
C3     C339    1.490   .     S
C3     C779    1.400   .     S
C3     C863    1.419   .     S
C4     C104    1.419   .     A
C4     C342    1.490   .     S
C4     C780    1.400   1_545 S
C5     C97     1.416   .     A
C5     C17     1.407   .     A
C5     C725    1.495   .     S
C6     C98     1.422   .     A
C6     C348    1.487   .     S
C6     C398    1.405   1_455 S
C7     C351    1.490   .     S
C7     C779    1.400   .     S
C7     C859    1.418   .     S
C8     C354    1.490   .     S
C8     C780    1.400   1_545 S
C8     C860    1.418   1_545 S
C9     C357    1.491   .     S
C9     C109    1.417   .     A
C9     C781    1.403   1_545 S
C10    C360    1.491   .     S
C10    C22     1.406   .     A
C10    C110    1.420   .     A
C11    C363    1.491   .     S
C11    C111    1.418   .     A
C11    C403    1.404   .     S
C12    C112    1.421   .     A
C12    C24     1.405   .     A
C12    C366    1.490   .     S
C13    C21     1.404   .     A
C13    C105    1.422   .     A
C13    C369    1.487   .     S
C14    C106    1.416   .     A
C14    C372    1.495   .     S
C14    C782    1.408   1_545 S
C15    C107    1.422   .     A
C15    C23     1.405   .     A
C15    C375    1.487   .     S
C16    C378    1.492   .     S
C16    C108    1.416   .     A
C16    C404    1.403   .     S
C17    C43     1.455   .     S
C18    C44     1.461   .     S
C18    C386    1.405   .     S
C19    C41     1.454   .     S
C19    C767    1.400   1_545 S
C19    C763    1.400   1_545 S
C20    C42     1.454   .     S
C20    C764    1.400   .     S
C20    C768    1.400   .     S
C21    C47     1.461   .     S
C21    C769    1.403   .     S
C22    C774    1.408   .     S
C22    C808    1.456   .     S
C23    C45     1.463   .     S
C23    C391    1.404   1_455 S
C24    C396    1.403   1_455 S
C24    C426    1.456   1_455 S
C25    C97     1.417   .     A
C25    C205    1.456   .     S
C25    C30     1.404   .     A
C26    C207    1.454   .     S
C26    C98     1.422   .     A
C26    C29     1.401   .     A
C27    C99     1.418   .     A
C27    C209    1.455   .     S
C27    C792    1.394   1_545 S
C28    C211    1.455   .     S
C28    C100    1.418   .     A
C28    C791    1.394   .     S
C29    C213    1.455   .     S
C29    C101    1.418   .     A
C30    C215    1.455   .     S
C30    C102    1.420   .     A
C31    C217    1.455   .     S
C31    C103    1.418   .     A
C31    C788    1.394   1_545 S
C32    C219    1.455   .     S
C32    C787    1.394   .     S
C32    C864    1.418   .     S
C33    C105    1.422   .     A
C33    C221    1.454   .     S
C33    C38     1.401   1_556 S
C34    C106    1.418   .     A
C34    C223    1.456   .     S
C34    C37     1.404   1_554 S
C35    C225    1.454   .     S
C35    C107    1.422   .     A
C35    C40     1.401   1_556 S
C36    C108    1.416   .     A
C36    C227    1.455   .     S
C36    C39     1.405   1_554 S
C37    C109    1.420   .     A
C37    C229    1.456   .     S
C37    C34     1.404   1_556 S
C38    C231    1.455   .     S
C38    C110    1.418   .     A
C38    C33     1.401   1_554 S
C39    C111    1.421   .     A
C39    C233    1.455   .     S
C39    C36     1.405   1_556 S
C40    C112    1.418   .     A
C40    C235    1.455   .     S
C40    C35     1.401   1_554 S
C41    O145    1.273   .     A
C41    O901    1.275   1_545 S
C42    O146    1.273   .     A
C42    O902    1.275   .     S
C43    O147    1.275   .     A
C43    O523    1.276   .     S
C44    O144    1.275   .     A
C44    O528    1.278   .     S
C45    O153    1.279   .     A
C45    O149    1.275   .     A
C46    O534    1.275   .     A
C46    C404    1.456   .     S
C46    O530    1.276   .     S
C47    O911    1.274   .     A
C47    O915    1.278   .     A
C48    O156    1.275   .     A
C48    O152    1.277   .     A
C48    C782    1.456   1_545 S
C49    C115    1.457   .     S
C49    O157    1.280   .     A
C49    O183    1.279   .     A
C50    O184    1.279   .     A
C50    O158    1.279   .     A
C50    C116    1.459   .     S
C51    O181    1.279   .     A
C51    C117    1.460   .     S
C51    O159    1.279   .     A
C52    O182    1.280   .     A
C52    O160    1.279   .     A
C52    C118    1.461   .     S
C53    C119    1.458   .     S
C53    O187    1.277   .     A
C53    O161    1.279   .     A
C54    O162    1.277   .     A
C54    O188    1.279   .     A
C54    C120    1.458   .     S
C55    O163    1.279   .     A
C55    C113    1.458   .     S
C55    O185    1.278   .     A
C56    O164    1.279   .     A
C56    O186    1.278   .     A
C56    C114    1.458   .     S
C57    C123    1.456   .     S
C57    O175    1.278   .     A
C57    O165    1.278   .     A
C58    O166    1.279   .     A
C58    O176    1.279   .     A
C58    C124    1.458   .     S
C59    O167    1.279   .     A
C59    C125    1.457   .     S
C59    O173    1.279   .     A
C60    O174    1.280   .     A
C60    O168    1.279   .     A
C60    C126    1.458   .     S
C61    C127    1.459   .     S
C61    O179    1.279   .     A
C61    O169    1.278   .     A
C62    O170    1.278   .     A
C62    C128    1.459   .     S
C62    O180    1.279   .     A
C63    O171    1.279   .     A
C63    C121    1.457   .     S
C63    O177    1.277   .     A
C64    O172    1.277   .     A
C64    O178    1.279   .     A
C64    C122    1.457   .     S
C65    C128    1.414   .     A
C65    C237    1.498   .     S
C65    C80     1.410   .     A
C66    C79     1.409   .     A
C66    C240    1.496   .     S
C66    C127    1.414   .     A
C67    C126    1.413   .     A
C67    C243    1.497   .     S
C67    C78     1.409   .     A
C68    C246    1.500   .     S
C68    C77     1.410   .     A
C68    C125    1.416   .     A
C69    C249    1.498   .     S
C69    C76     1.410   .     A
C69    C124    1.416   .     A
C70    C252    1.494   .     S
C70    C75     1.405   .     A
C70    C123    1.413   .     A
C71    C122    1.414   .     A
C71    C255    1.498   .     S
C71    C74     1.409   .     A
C72    C73     1.409   .     A
C72    C121    1.413   .     A
C72    C258    1.485   .     S
C73    C261    1.498   .     S
C73    C120    1.414   .     A
C74    C119    1.413   .     A
C74    C264    1.484   .     S
C75    C267    1.482   .     S
C75    C118    1.410   .     A
C76    C270    1.485   .     S
C76    C117    1.411   .     A
C77    C273    1.485   .     S
C77    C116    1.411   .     A
C78    C115    1.412   .     A
C78    C276    1.485   .     S
C79    C279    1.485   .     S
C79    C114    1.412   .     A
C80    C113    1.413   .     A
C80    C282    1.485   .     S
C81    C114    1.413   .     A
C81    C285    1.497   .     S
C81    C96     1.409   .     A
C82    C95     1.410   .     A
C82    C113    1.414   .     A
C82    C288    1.499   .     S
C83    C291    1.485   .     S
C83    C94     1.410   .     A
C83    C116    1.411   .     A
C84    C93     1.410   .     A
C84    C294    1.498   .     S
C84    C115    1.414   .     A
C85    C297    1.482   .     S
C85    C92     1.409   .     A
C85    C118    1.412   .     A
C86    C117    1.411   .     A
C86    C300    1.485   .     S
C86    C91     1.410   .     A
C87    C303    1.484   .     S
C87    C90     1.409   .     A
C87    C120    1.413   .     A
C88    C119    1.413   .     A
C88    C89     1.408   .     A
C88    C306    1.496   .     S
C89    C122    1.412   .     A
C89    C309    1.485   .     S
C90    C312    1.499   .     S
C90    C121    1.414   .     A
C91    C315    1.499   .     S
C91    C124    1.416   .     A
C92    C123    1.415   .     A
C92    C318    1.498   .     S
C93    C321    1.485   .     S
C93    C126    1.413   .     A
C94    C324    1.500   .     S
C94    C125    1.416   .     A
C95    C327    1.484   .     S
C95    C128    1.413   .     A
C96    C330    1.484   .     S
C96    C127    1.413   .     A
C97    C129    1.420   .     A
C98    C510    1.424   1_455 S
C99    C131    1.427   .     A
C99    C767    1.418   1_545 S
C100   C768    1.418   .     S
C100   C892    1.427   .     S
C101   C381    1.420   1_455 S
C101   C509    1.421   1_455 S
C102   C130    1.424   .     A
C103   C131    1.427   .     A
C103   C763    1.419   1_545 S
C104   C132    1.428   .     A
C104   C792    1.418   1_545 S
C105   C133    1.424   .     A
C106   C894    1.420   1_545 S
C107   C135    1.423   .     A
C108   C516    1.419   .     S
C109   C893    1.424   1_545 S
C110   C134    1.421   .     A
C111   C515    1.424   .     S
C112   C136    1.422   .     A
C129   C130    1.418   .     A
C129   C481    1.421   .     S
C130   C478    1.424   .     S
C131   C132    1.423   .     A
C132   C860    1.427   1_545 S
C133   C869    1.424   .     S
C133   C134    1.418   1_556 S
C134   C866    1.420   .     S
C134   C133    1.418   1_554 S
C135   C491    1.424   1_455 S
C135   C136    1.417   1_556 S
C136   C488    1.419   1_455 S
C136   C135    1.417   1_554 S
O137   Zn200   1.948   .     S
O137   Zn189   1.948   .     S
O137   Zn193   1.946   .     S
O137   Zn964   1.946   1_545 S
O138   Zn203   1.946   .     S
O138   Zn190   1.948   .     S
O138   Zn194   1.946   .     S
O138   Zn959   1.948   1_545 S
O139   Zn198   1.948   .     S
O139   Zn195   1.946   .     S
O139   Zn191   1.948   .     S
O139   Zn582   1.946   1_455 S
O140   Zn577   1.948   1_455 S
O140   Zn192   1.948   .     S
O140   Zn196   1.946   .     S
O140   Zn201   1.946   .     S
O141   Zn204   1.950   .     S
O141   C801    1.275   .     S
O142   Zn203   1.950   .     S
O142   C802    1.275   1_545 S
O143   Zn198   1.949   .     S
O143   C423    1.276   1_455 S
O144   Zn197   1.949   .     S
O145   Zn200   1.949   .     S
O146   Zn199   1.949   .     S
O147   Zn202   1.950   .     S
O148   Zn201   1.950   .     S
O148   C424    1.278   1_455 S
O149   Zn196   1.950   .     S
O150   Zn195   1.950   .     S
O150   C426    1.276   1_455 S
O151   Zn190   1.949   .     S
O151   C807    1.274   1_545 A
O152   Zn189   1.949   .     S
O153   Zn192   1.949   .     S
O154   Zn191   1.949   .     S
O154   C426    1.275   1_455 A
O155   Zn194   1.950   .     S
O155   C807    1.278   1_545 A
O156   Zn193   1.950   .     S
O157   Zn200   1.934   .     S
O158   Zn199   1.934   .     S
O159   Zn202   1.936   .     S
O160   Zn201   1.936   .     S
O161   Zn204   1.934   .     S
O162   Zn203   1.934   .     S
O163   Zn198   1.935   .     S
O164   Zn197   1.935   .     S
O165   Zn199   1.935   .     S
O166   Zn200   1.935   .     S
O167   Zn197   1.934   .     S
O168   Zn198   1.934   .     S
O169   Zn203   1.936   .     S
O170   Zn204   1.936   .     S
O171   Zn201   1.934   .     S
O172   Zn202   1.934   .     S
O173   Zn572   1.934   .     S
O174   Zn191   1.934   .     S
O175   Zn954   1.936   .     S
O176   Zn193   1.936   .     S
O177   Zn196   1.934   .     S
O178   Zn575   1.934   .     S
O179   Zn190   1.935   .     S
O180   Zn949   1.935   .     S
O181   Zn571   1.935   .     S
O182   Zn192   1.935   .     S
O183   Zn189   1.934   .     S
O184   Zn950   1.934   .     S
O185   Zn195   1.936   .     S
O186   Zn576   1.936   .     S
O187   Zn953   1.934   .     S
O188   Zn194   1.934   .     S
Zn189  O940    1.935   1_545 S
Zn190  O944    1.934   1_545 S
Zn191  O561    1.935   1_455 S
Zn192  O553    1.934   1_455 S
Zn193  O947    1.934   1_545 S
Zn194  O935    1.936   1_545 S
Zn195  O558    1.934   1_455 S
Zn196  O566    1.936   1_455 S
Zn197  O520    1.948   .     S
Zn199  O898    1.948   .     S
Zn202  O519    1.946   .     S
Zn204  O897    1.946   .     S
C205   N206    1.158   .     T
C207   N588    1.158   1_455 S
N208   C587    1.158   .     S
C209   N210    1.158   .     T
C211   N212    1.158   .     T
C213   N214    1.158   .     T
C215   N216    1.158   .     T
C217   N218    1.158   .     T
C219   N220    1.158   .     T
C221   N222    1.158   .     T
C223   N224    1.158   .     T
C225   N226    1.158   .     T
C227   N228    1.158   .     T
C229   N230    1.158   .     T
C231   N232    1.158   .     T
C233   N234    1.158   .     T
C235   N236    1.158   .     T
C237   H238    1.085   .     S
C237   O239    1.220   .     D
C240   O242    1.220   .     D
C240   H241    1.085   .     S
C243   H244    1.085   .     S
C243   O245    1.220   .     D
C246   O248    1.219   .     D
C246   H247    1.085   .     S
C249   H250    1.085   .     S
C249   O251    1.220   .     D
C252   H253    1.085   .     S
C252   O254    1.220   .     D
C255   O257    1.220   .     D
C255   H256    1.085   .     S
C258   H259    1.085   .     S
C258   O260    1.221   .     D
C261   H262    1.085   .     S
C261   O263    1.220   .     D
C264   H265    1.085   .     S
C264   O266    1.221   .     D
C267   O269    1.220   .     D
C267   H268    1.085   .     S
C270   O272    1.221   .     D
C270   H271    1.085   .     S
C273   H274    1.085   .     S
C273   O275    1.221   .     D
C276   H277    1.085   .     S
C276   O278    1.221   .     D
C279   O281    1.221   .     D
C279   H280    1.085   .     S
C282   H283    1.085   .     S
C282   O284    1.221   .     D
C285   O287    1.220   .     D
C285   H286    1.085   .     S
C288   O290    1.220   .     D
C288   H289    1.085   .     S
C291   H292    1.085   .     S
C291   O293    1.221   .     D
C294   H295    1.085   .     S
C294   O296    1.220   .     D
C297   O299    1.221   .     D
C297   H298    1.085   .     S
C300   H301    1.085   .     S
C300   O302    1.221   .     D
C303   O305    1.221   .     D
C303   H304    1.085   .     S
C306   H307    1.085   .     S
C306   O308    1.220   .     D
C309   O311    1.221   .     D
C309   H310    1.085   .     S
C312   H313    1.085   .     S
C312   O314    1.220   .     D
C315   O317    1.220   .     D
C315   H316    1.085   .     S
C318   O320    1.220   .     D
C318   H319    1.085   .     S
C321   H322    1.085   .     S
C321   O323    1.221   .     D
C324   H325    1.085   .     S
C324   O326    1.219   .     D
C327   O329    1.221   .     D
C327   H328    1.085   .     S
C330   H331    1.085   .     S
C330   O332    1.221   .     D
C333   O335    1.221   .     D
C333   H714    1.085   .     S
H334   C713    1.085   1_455 S
C336   H337    1.084   .     S
C336   O718    1.221   .     S
O338   C716    1.221   1_455 S
C339   O341    1.221   .     D
C339   H1100   1.085   .     S
H340   C1099   1.085   1_545 S
C342   O344    1.221   .     D
C342   H1103   1.086   1_545 S
H343   C1102   1.086   .     S
C345   O347    1.221   .     D
C345   H346    1.085   .     S
C345   C385    1.495   1_455 S
C348   H349    1.086   .     S
C348   O350    1.221   .     D
C351   O353    1.221   .     D
C351   H1112   1.085   .     S
H352   C1111   1.085   1_545 S
C354   O356    1.221   .     D
C354   H1115   1.085   1_545 S
H355   C1114   1.085   .     S
C357   H358    1.085   .     S
C357   O359    1.221   .     D
C360   H361    1.085   .     S
C360   O362    1.221   .     D
C363   H364    1.084   .     S
C363   O365    1.221   .     D
C366   H367    1.085   .     S
C366   O368    1.221   .     D
C369   O371    1.221   .     D
C369   H370    1.086   .     S
C372   H373    1.085   .     S
C372   O374    1.221   .     D
C375   H376    1.085   .     S
C375   O377    1.221   .     D
C378   H379    1.085   .     S
C378   O380    1.221   .     D
C381   C713    1.491   .     S
C381   C397    1.406   .     A
C381   C101    1.420   1_655 S
C382   C482    1.417   .     A
C382   C716    1.491   .     S
C382   C398    1.403   .     A
C383   C719    1.490   .     S
C383   C1159   1.400   .     S
C383   C1243   1.419   .     S
C384   C484    1.419   .     A
C384   C722    1.490   .     S
C384   C1160   1.400   1_545 S
C385   C477    1.416   .     A
C385   C397    1.407   .     A
C385   C345    1.495   1_655 S
C386   C478    1.422   .     A
C386   C728    1.487   .     S
C387   C731    1.490   .     S
C387   C1159   1.400   .     S
C387   C1239   1.418   .     S
C388   C734    1.490   .     S
C388   C1160   1.400   1_545 S
C388   C1240   1.418   1_545 S
C389   C737    1.491   .     S
C389   C489    1.417   .     A
C389   C1161   1.403   1_545 S
C390   C740    1.491   .     S
C390   C402    1.406   .     A
C390   C490    1.420   .     A
C391   C743    1.491   .     S
C391   C491    1.418   .     A
C391   C23     1.404   1_655 S
C392   C492    1.421   .     A
C392   C404    1.405   .     A
C392   C746    1.490   .     S
C393   C401    1.404   .     A
C393   C485    1.422   .     A
C393   C749    1.487   .     S
C394   C486    1.416   .     A
C394   C752    1.495   .     S
C394   C1162   1.408   1_545 S
C395   C487    1.422   .     A
C395   C403    1.405   .     A
C395   C755    1.487   .     S
C396   C758    1.492   .     S
C396   C488    1.416   .     A
C396   C24     1.403   1_655 S
C397   C423    1.455   .     S
C398   C424    1.461   .     S
C398   C6      1.405   1_655 S
C399   C421    1.454   .     S
C399   C1147   1.400   1_545 S
C399   C1143   1.400   1_545 S
C400   C422    1.454   .     S
C400   C1144   1.400   .     S
C400   C1148   1.400   .     S
C401   C427    1.461   .     S
C401   C1149   1.403   .     S
C402   C1154   1.408   .     S
C402   C1188   1.456   .     S
C403   C425    1.463   .     S
C405   C477    1.417   .     A
C405   C585    1.456   .     S
C405   C410    1.404   .     A
C406   C587    1.454   .     S
C406   C478    1.422   .     A
C406   C409    1.401   .     A
C407   C479    1.418   .     A
C407   C589    1.455   .     S
C407   C1172   1.394   1_545 S
C408   C591    1.455   .     S
C408   C480    1.418   .     A
C408   C1171   1.394   .     S
C409   C593    1.455   .     S
C409   C481    1.418   .     A
C410   C595    1.455   .     S
C410   C482    1.420   .     A
C411   C597    1.455   .     S
C411   C483    1.418   .     A
C411   C1168   1.394   1_545 S
C412   C599    1.455   .     S
C412   C1167   1.394   .     S
C412   C1244   1.418   .     S
C413   C485    1.422   .     A
C413   C601    1.454   .     S
C413   C418    1.401   1_556 S
C414   C486    1.418   .     A
C414   C603    1.456   .     S
C414   C417    1.404   1_554 S
C415   C605    1.454   .     S
C415   C487    1.422   .     A
C415   C420    1.401   1_556 S
C416   C488    1.416   .     A
C416   C607    1.455   .     S
C416   C419    1.405   1_554 S
C417   C489    1.420   .     A
C417   C609    1.456   .     S
C417   C414    1.404   1_556 S
C418   C611    1.455   .     S
C418   C490    1.418   .     A
C418   C413    1.401   1_554 S
C419   C491    1.421   .     A
C419   C613    1.455   .     S
C419   C416    1.405   1_556 S
C420   C492    1.418   .     A
C420   C615    1.455   .     S
C420   C415    1.401   1_554 S
C421   O525    1.273   .     A
C421   O1281   1.275   1_545 S
C422   O526    1.273   .     A
C422   O1282   1.275   .     S
C423   O527    1.275   .     A
C423   O143    1.276   1_655 S
C424   O524    1.275   .     A
C424   O148    1.278   1_655 S
C425   O533    1.279   .     A
C425   O529    1.275   .     A
C426   O154    1.275   1_655 A
C426   C24     1.456   1_655 S
C426   O150    1.276   1_655 S
C427   O1291   1.274   .     A
C427   O1295   1.278   .     A
C428   O536    1.275   .     A
C428   O532    1.277   .     A
C428   C1162   1.456   1_545 S
C429   C495    1.457   .     S
C429   O537    1.280   .     A
C429   O563    1.279   .     A
C430   O564    1.279   .     A
C430   O538    1.279   .     A
C430   C496    1.459   .     S
C431   O561    1.279   .     A
C431   C497    1.460   .     S
C431   O539    1.279   .     A
C432   O562    1.280   .     A
C432   O540    1.279   .     A
C432   C498    1.461   .     S
C433   C499    1.458   .     S
C433   O567    1.277   .     A
C433   O541    1.279   .     A
C434   O542    1.277   .     A
C434   O568    1.279   .     A
C434   C500    1.458   .     S
C435   O543    1.279   .     A
C435   C493    1.458   .     S
C435   O565    1.278   .     A
C436   O544    1.279   .     A
C436   O566    1.278   .     A
C436   C494    1.458   .     S
C437   C503    1.456   .     S
C437   O555    1.278   .     A
C437   O545    1.278   .     A
C438   O546    1.279   .     A
C438   O556    1.279   .     A
C438   C504    1.458   .     S
C439   O547    1.279   .     A
C439   C505    1.457   .     S
C439   O553    1.279   .     A
C440   O554    1.280   .     A
C440   O548    1.279   .     A
C440   C506    1.458   .     S
C441   C507    1.459   .     S
C441   O559    1.279   .     A
C441   O549    1.278   .     A
C442   O550    1.278   .     A
C442   C508    1.459   .     S
C442   O560    1.279   .     A
C443   O551    1.279   .     A
C443   C501    1.457   .     S
C443   O557    1.277   .     A
C444   O552    1.277   .     A
C444   O558    1.279   .     A
C444   C502    1.457   .     S
C445   C508    1.414   .     A
C445   C617    1.498   .     S
C445   C460    1.410   .     A
C446   C459    1.409   .     A
C446   C620    1.496   .     S
C446   C507    1.414   .     A
C447   C506    1.413   .     A
C447   C623    1.497   .     S
C447   C458    1.409   .     A
C448   C626    1.500   .     S
C448   C457    1.410   .     A
C448   C505    1.416   .     A
C449   C629    1.498   .     S
C449   C456    1.410   .     A
C449   C504    1.416   .     A
C450   C632    1.494   .     S
C450   C455    1.405   .     A
C450   C503    1.413   .     A
C451   C502    1.414   .     A
C451   C635    1.498   .     S
C451   C454    1.409   .     A
C452   C453    1.409   .     A
C452   C501    1.413   .     A
C452   C638    1.485   .     S
C453   C641    1.498   .     S
C453   C500    1.414   .     A
C454   C499    1.413   .     A
C454   C644    1.484   .     S
C455   C647    1.482   .     S
C455   C498    1.410   .     A
C456   C650    1.485   .     S
C456   C497    1.411   .     A
C457   C653    1.485   .     S
C457   C496    1.411   .     A
C458   C495    1.412   .     A
C458   C656    1.485   .     S
C459   C659    1.485   .     S
C459   C494    1.412   .     A
C460   C493    1.413   .     A
C460   C662    1.485   .     S
C461   C494    1.413   .     A
C461   C665    1.497   .     S
C461   C476    1.409   .     A
C462   C475    1.410   .     A
C462   C493    1.414   .     A
C462   C668    1.499   .     S
C463   C671    1.485   .     S
C463   C474    1.410   .     A
C463   C496    1.411   .     A
C464   C473    1.410   .     A
C464   C674    1.498   .     S
C464   C495    1.414   .     A
C465   C677    1.482   .     S
C465   C472    1.409   .     A
C465   C498    1.412   .     A
C466   C497    1.411   .     A
C466   C680    1.485   .     S
C466   C471    1.410   .     A
C467   C683    1.484   .     S
C467   C470    1.409   .     A
C467   C500    1.413   .     A
C468   C499    1.413   .     A
C468   C469    1.408   .     A
C468   C686    1.496   .     S
C469   C502    1.412   .     A
C469   C689    1.485   .     S
C470   C692    1.499   .     S
C470   C501    1.414   .     A
C471   C695    1.499   .     S
C471   C504    1.416   .     A
C472   C503    1.415   .     A
C472   C698    1.498   .     S
C473   C701    1.485   .     S
C473   C506    1.413   .     A
C474   C704    1.500   .     S
C474   C505    1.416   .     A
C475   C707    1.484   .     S
C475   C508    1.413   .     A
C476   C710    1.484   .     S
C476   C507    1.413   .     A
C477   C509    1.420   .     A
C479   C511    1.427   .     A
C479   C1147   1.418   1_545 S
C480   C1148   1.418   .     S
C480   C1272   1.427   .     S
C482   C510    1.424   .     A
C483   C511    1.427   .     A
C483   C1143   1.419   1_545 S
C484   C512    1.428   .     A
C484   C1172   1.418   1_545 S
C485   C513    1.424   .     A
C486   C1274   1.420   1_545 S
C487   C515    1.423   .     A
C488   C136    1.419   1_655 S
C489   C1273   1.424   1_545 S
C490   C514    1.421   .     A
C491   C135    1.424   1_655 S
C492   C516    1.422   .     A
C509   C510    1.418   .     A
C509   C101    1.421   1_655 S
C510   C98     1.424   1_655 S
C511   C512    1.423   .     A
C512   C1240   1.427   1_545 S
C513   C1249   1.424   .     S
C513   C514    1.418   1_556 S
C514   C1246   1.420   .     S
C514   C513    1.418   1_554 S
C515   C516    1.417   1_556 S
C516   C515    1.417   1_554 S
O517   Zn580   1.948   .     S
O517   Zn569   1.948   .     S
O517   Zn573   1.946   .     S
O517   Zn1344  1.946   1_545 S
O518   Zn583   1.946   .     S
O518   Zn570   1.948   .     S
O518   Zn574   1.946   .     S
O518   Zn1339  1.948   1_545 S
O519   Zn578   1.948   .     S
O519   Zn575   1.946   .     S
O519   Zn571   1.948   .     S
O520   Zn572   1.948   .     S
O520   Zn576   1.946   .     S
O520   Zn581   1.946   .     S
O521   Zn584   1.950   .     S
O521   C1181   1.275   .     S
O522   Zn583   1.950   .     S
O522   C1182   1.275   1_545 S
O523   Zn578   1.949   .     S
O524   Zn577   1.949   .     S
O525   Zn580   1.949   .     S
O526   Zn579   1.949   .     S
O527   Zn582   1.950   .     S
O528   Zn581   1.950   .     S
O529   Zn576   1.950   .     S
O530   Zn575   1.950   .     S
O531   Zn570   1.949   .     S
O531   C1187   1.274   1_545 A
O532   Zn569   1.949   .     S
O533   Zn572   1.949   .     S
O534   Zn571   1.949   .     S
O535   Zn574   1.950   .     S
O535   C1187   1.278   1_545 A
O536   Zn573   1.950   .     S
O537   Zn580   1.934   .     S
O538   Zn579   1.934   .     S
O539   Zn582   1.936   .     S
O540   Zn581   1.936   .     S
O541   Zn584   1.934   .     S
O542   Zn583   1.934   .     S
O543   Zn578   1.935   .     S
O544   Zn577   1.935   .     S
O545   Zn579   1.935   .     S
O546   Zn580   1.935   .     S
O547   Zn577   1.934   .     S
O548   Zn578   1.934   .     S
O549   Zn583   1.936   .     S
O550   Zn584   1.936   .     S
O551   Zn581   1.934   .     S
O552   Zn582   1.934   .     S
O553   Zn192   1.934   1_655 S
O554   Zn571   1.934   .     S
O555   Zn1334  1.936   .     S
O556   Zn573   1.936   .     S
O557   Zn576   1.934   .     S
O558   Zn195   1.934   1_655 S
O559   Zn570   1.935   .     S
O560   Zn1329  1.935   .     S
O561   Zn191   1.935   1_655 S
O562   Zn572   1.935   .     S
O563   Zn569   1.934   .     S
O564   Zn1330  1.934   .     S
O565   Zn575   1.936   .     S
O566   Zn196   1.936   1_655 S
O567   Zn1333  1.934   .     S
O568   Zn574   1.934   .     S
Zn569  O1320   1.935   1_545 S
Zn570  O1324   1.934   1_545 S
Zn573  O1327   1.934   1_545 S
Zn574  O1315   1.936   1_545 S
Zn577  O140    1.948   1_655 S
Zn579  O1278   1.948   .     S
Zn582  O139    1.946   1_655 S
Zn584  O1277   1.946   .     S
C585   N586    1.158   .     T
N588   C207    1.158   1_655 S
C589   N590    1.158   .     T
C591   N592    1.158   .     T
C593   N594    1.158   .     T
C595   N596    1.158   .     T
C597   N598    1.158   .     T
C599   N600    1.158   .     T
C601   N602    1.158   .     T
C603   N604    1.158   .     T
C605   N606    1.158   .     T
C607   N608    1.158   .     T
C609   N610    1.158   .     T
C611   N612    1.158   .     T
C613   N614    1.158   .     T
C615   N616    1.158   .     T
C617   H618    1.085   .     S
C617   O619    1.220   .     D
C620   O622    1.220   .     D
C620   H621    1.085   .     S
C623   H624    1.085   .     S
C623   O625    1.220   .     D
C626   O628    1.219   .     D
C626   H627    1.085   .     S
C629   H630    1.085   .     S
C629   O631    1.220   .     D
C632   H633    1.085   .     S
C632   O634    1.220   .     D
C635   O637    1.220   .     D
C635   H636    1.085   .     S
C638   H639    1.085   .     S
C638   O640    1.221   .     D
C641   H642    1.085   .     S
C641   O643    1.220   .     D
C644   H645    1.085   .     S
C644   O646    1.221   .     D
C647   O649    1.220   .     D
C647   H648    1.085   .     S
C650   O652    1.221   .     D
C650   H651    1.085   .     S
C653   H654    1.085   .     S
C653   O655    1.221   .     D
C656   H657    1.085   .     S
C656   O658    1.221   .     D
C659   O661    1.221   .     D
C659   H660    1.085   .     S
C662   H663    1.085   .     S
C662   O664    1.221   .     D
C665   O667    1.220   .     D
C665   H666    1.085   .     S
C668   O670    1.220   .     D
C668   H669    1.085   .     S
C671   H672    1.085   .     S
C671   O673    1.221   .     D
C674   H675    1.085   .     S
C674   O676    1.220   .     D
C677   O679    1.221   .     D
C677   H678    1.085   .     S
C680   H681    1.085   .     S
C680   O682    1.221   .     D
C683   O685    1.221   .     D
C683   H684    1.085   .     S
C686   H687    1.085   .     S
C686   O688    1.220   .     D
C689   O691    1.221   .     D
C689   H690    1.085   .     S
C692   H693    1.085   .     S
C692   O694    1.220   .     D
C695   O697    1.220   .     D
C695   H696    1.085   .     S
C698   O700    1.220   .     D
C698   H699    1.085   .     S
C701   H702    1.085   .     S
C701   O703    1.221   .     D
C704   H705    1.085   .     S
C704   O706    1.219   .     D
C707   O709    1.221   .     D
C707   H708    1.085   .     S
C710   H711    1.085   .     S
C710   O712    1.221   .     D
C713   O715    1.221   .     D
C713   H334    1.085   1_655 S
C716   H717    1.084   .     S
C716   O338    1.221   1_655 S
C719   O721    1.221   .     D
C719   H1480   1.085   .     S
H720   C1479   1.085   1_545 S
C722   O724    1.221   .     D
C722   H1483   1.086   1_545 S
H723   C1482   1.086   .     S
C725   O727    1.221   .     D
C725   H726    1.085   .     S
C728   H729    1.086   .     S
C728   O730    1.221   .     D
C731   O733    1.221   .     D
C731   H1492   1.085   .     S
H732   C1491   1.085   1_545 S
C734   O736    1.221   .     D
C734   H1495   1.085   1_545 S
H735   C1494   1.085   .     S
C737   H738    1.085   .     S
C737   O739    1.221   .     D
C740   H741    1.085   .     S
C740   O742    1.221   .     D
C743   H744    1.084   .     S
C743   O745    1.221   .     D
C746   H747    1.085   .     S
C746   O748    1.221   .     D
C749   O751    1.221   .     D
C749   H750    1.086   .     S
C752   H753    1.085   .     S
C752   O754    1.221   .     D
C755   H756    1.085   .     S
C755   O757    1.221   .     D
C758   H759    1.085   .     S
C758   O760    1.221   .     D
C761   C1093   1.491   .     S
C761   C777    1.406   .     A
C761   C1241   1.420   .     S
C762   C862    1.417   .     A
C762   C1096   1.491   .     S
C762   C778    1.403   .     A
C763   C1099   1.490   .     S
C763   C19     1.400   1_565 S
C763   C103    1.419   1_565 S
C764   C864    1.419   .     A
C764   C1102   1.490   .     S
C765   C857    1.416   .     A
C765   C777    1.407   .     A
C765   C1485   1.495   .     S
C766   C858    1.422   .     A
C766   C1108   1.487   .     S
C766   C1158   1.405   1_455 S
C767   C1111   1.490   .     S
C767   C19     1.400   1_565 S
C767   C99     1.418   1_565 S
C768   C1114   1.490   .     S
C769   C1117   1.491   .     S
C769   C869    1.417   .     A
C770   C1120   1.491   .     S
C770   C782    1.406   .     A
C770   C870    1.420   .     A
C771   C1123   1.491   .     S
C771   C871    1.418   .     A
C771   C1163   1.404   .     S
C772   C872    1.421   .     A
C772   C784    1.405   .     A
C772   C1126   1.490   .     S
C773   C781    1.404   .     A
C773   C865    1.422   .     A
C773   C1129   1.487   .     S
C774   C866    1.416   .     A
C774   C1132   1.495   .     S
C775   C867    1.422   .     A
C775   C783    1.405   .     A
C775   C1135   1.487   .     S
C776   C1138   1.492   .     S
C776   C868    1.416   .     A
C776   C1164   1.403   .     S
C777   C803    1.455   .     S
C778   C804    1.461   .     S
C778   C1146   1.405   .     S
C779   C801    1.454   .     S
C780   C802    1.454   .     S
C780   C4      1.400   1_565 S
C780   C8      1.400   1_565 S
C781   C807    1.461   .     S
C781   C9      1.403   1_565 S
C782   C14     1.408   1_565 S
C782   C48     1.456   1_565 S
C783   C805    1.463   .     S
C783   C1151   1.404   1_455 S
C784   C1156   1.403   1_455 S
C784   C1186   1.456   1_455 S
C785   C857    1.417   .     A
C785   C965    1.456   .     S
C785   C790    1.404   .     A
C786   C967    1.454   .     S
C786   C858    1.422   .     A
C786   C789    1.401   .     A
C787   C859    1.418   .     A
C787   C969    1.455   .     S
C788   C971    1.455   .     S
C788   C860    1.418   .     A
C788   C31     1.394   1_565 S
C789   C973    1.455   .     S
C789   C861    1.418   .     A
C790   C975    1.455   .     S
C790   C862    1.420   .     A
C791   C977    1.455   .     S
C791   C863    1.418   .     A
C792   C979    1.455   .     S
C792   C27     1.394   1_565 S
C792   C104    1.418   1_565 S
C793   C865    1.422   .     A
C793   C981    1.454   .     S
C793   C798    1.401   1_556 S
C794   C866    1.418   .     A
C794   C983    1.456   .     S
C794   C797    1.404   1_554 S
C795   C985    1.454   .     S
C795   C867    1.422   .     A
C795   C800    1.401   1_556 S
C796   C868    1.416   .     A
C796   C987    1.455   .     S
C796   C799    1.405   1_554 S
C797   C869    1.420   .     A
C797   C989    1.456   .     S
C797   C794    1.404   1_556 S
C798   C991    1.455   .     S
C798   C870    1.418   .     A
C798   C793    1.401   1_554 S
C799   C871    1.421   .     A
C799   C993    1.455   .     S
C799   C796    1.405   1_556 S
C800   C872    1.418   .     A
C800   C995    1.455   .     S
C800   C795    1.401   1_554 S
C801   O905    1.273   .     A
C802   O906    1.273   .     A
C802   O142    1.275   1_565 S
C803   O907    1.275   .     A
C803   O1283   1.276   .     S
C804   O904    1.275   .     A
C804   O1288   1.278   .     S
C805   O913    1.279   .     A
C805   O909    1.275   .     A
C806   O1294   1.275   .     A
C806   C1164   1.456   .     S
C806   O1290   1.276   .     S
C807   O151    1.274   1_565 A
C807   O155    1.278   1_565 A
C808   O916    1.275   .     A
C808   O912    1.277   .     A
C809   C875    1.457   .     S
C809   O917    1.280   .     A
C809   O943    1.279   .     A
C810   O944    1.279   .     A
C810   O918    1.279   .     A
C810   C876    1.459   .     S
C811   O941    1.279   .     A
C811   C877    1.460   .     S
C811   O919    1.279   .     A
C812   O942    1.280   .     A
C812   O920    1.279   .     A
C812   C878    1.461   .     S
C813   C879    1.458   .     S
C813   O947    1.277   .     A
C813   O921    1.279   .     A
C814   O922    1.277   .     A
C814   O948    1.279   .     A
C814   C880    1.458   .     S
C815   O923    1.279   .     A
C815   C873    1.458   .     S
C815   O945    1.278   .     A
C816   O924    1.279   .     A
C816   O946    1.278   .     A
C816   C874    1.458   .     S
C817   C883    1.456   .     S
C817   O935    1.278   .     A
C817   O925    1.278   .     A
C818   O926    1.279   .     A
C818   O936    1.279   .     A
C818   C884    1.458   .     S
C819   O927    1.279   .     A
C819   C885    1.457   .     S
C819   O933    1.279   .     A
C820   O934    1.280   .     A
C820   O928    1.279   .     A
C820   C886    1.458   .     S
C821   C887    1.459   .     S
C821   O939    1.279   .     A
C821   O929    1.278   .     A
C822   O930    1.278   .     A
C822   C888    1.459   .     S
C822   O940    1.279   .     A
C823   O931    1.279   .     A
C823   C881    1.457   .     S
C823   O937    1.277   .     A
C824   O932    1.277   .     A
C824   O938    1.279   .     A
C824   C882    1.457   .     S
C825   C888    1.414   .     A
C825   C997    1.498   .     S
C825   C840    1.410   .     A
C826   C839    1.409   .     A
C826   C1000   1.496   .     S
C826   C887    1.414   .     A
C827   C886    1.413   .     A
C827   C1003   1.497   .     S
C827   C838    1.409   .     A
C828   C1006   1.500   .     S
C828   C837    1.410   .     A
C828   C885    1.416   .     A
C829   C1009   1.498   .     S
C829   C836    1.410   .     A
C829   C884    1.416   .     A
C830   C1012   1.494   .     S
C830   C835    1.405   .     A
C830   C883    1.413   .     A
C831   C882    1.414   .     A
C831   C1015   1.498   .     S
C831   C834    1.409   .     A
C832   C833    1.409   .     A
C832   C881    1.413   .     A
C832   C1018   1.485   .     S
C833   C1021   1.498   .     S
C833   C880    1.414   .     A
C834   C879    1.413   .     A
C834   C1024   1.484   .     S
C835   C1027   1.482   .     S
C835   C878    1.410   .     A
C836   C1030   1.485   .     S
C836   C877    1.411   .     A
C837   C1033   1.485   .     S
C837   C876    1.411   .     A
C838   C875    1.412   .     A
C838   C1036   1.485   .     S
C839   C1039   1.485   .     S
C839   C874    1.412   .     A
C840   C873    1.413   .     A
C840   C1042   1.485   .     S
C841   C874    1.413   .     A
C841   C1045   1.497   .     S
C841   C856    1.409   .     A
C842   C855    1.410   .     A
C842   C873    1.414   .     A
C842   C1048   1.499   .     S
C843   C1051   1.485   .     S
C843   C854    1.410   .     A
C843   C876    1.411   .     A
C844   C853    1.410   .     A
C844   C1054   1.498   .     S
C844   C875    1.414   .     A
C845   C1057   1.482   .     S
C845   C852    1.409   .     A
C845   C878    1.412   .     A
C846   C877    1.411   .     A
C846   C1060   1.485   .     S
C846   C851    1.410   .     A
C847   C1063   1.484   .     S
C847   C850    1.409   .     A
C847   C880    1.413   .     A
C848   C879    1.413   .     A
C848   C849    1.408   .     A
C848   C1066   1.496   .     S
C849   C882    1.412   .     A
C849   C1069   1.485   .     S
C850   C1072   1.499   .     S
C850   C881    1.414   .     A
C851   C1075   1.499   .     S
C851   C884    1.416   .     A
C852   C883    1.415   .     A
C852   C1078   1.498   .     S
C853   C1081   1.485   .     S
C853   C886    1.413   .     A
C854   C1084   1.500   .     S
C854   C885    1.416   .     A
C855   C1087   1.484   .     S
C855   C888    1.413   .     A
C856   C1090   1.484   .     S
C856   C887    1.413   .     A
C857   C889    1.420   .     A
C858   C1270   1.424   1_455 S
C859   C891    1.427   .     A
C860   C8      1.418   1_565 S
C860   C132    1.427   1_565 S
C861   C1141   1.420   1_455 S
C861   C1269   1.421   1_455 S
C862   C890    1.424   .     A
C863   C891    1.427   .     A
C864   C892    1.428   .     A
C865   C893    1.424   .     A
C867   C895    1.423   .     A
C868   C1276   1.419   .     S
C870   C894    1.421   .     A
C871   C1275   1.424   .     S
C872   C896    1.422   .     A
C889   C890    1.418   .     A
C889   C1241   1.421   .     S
C890   C1238   1.424   .     S
C891   C892    1.423   .     A
C893   C109    1.424   1_565 S
C893   C894    1.418   1_556 S
C894   C106    1.420   1_565 S
C894   C893    1.418   1_554 S
C895   C1251   1.424   1_455 S
C895   C896    1.417   1_556 S
C896   C1248   1.419   1_455 S
C896   C895    1.417   1_554 S
O897   Zn960   1.948   .     S
O897   Zn949   1.948   .     S
O897   Zn953   1.946   .     S
O898   Zn963   1.946   .     S
O898   Zn950   1.948   .     S
O898   Zn954   1.946   .     S
O899   Zn958   1.948   .     S
O899   Zn955   1.946   .     S
O899   Zn951   1.948   .     S
O899   Zn1342  1.946   1_455 S
O900   Zn1337  1.948   1_455 S
O900   Zn952   1.948   .     S
O900   Zn956   1.946   .     S
O900   Zn961   1.946   .     S
O901   Zn964   1.950   .     S
O901   C41     1.275   1_565 S
O902   Zn963   1.950   .     S
O903   Zn958   1.949   .     S
O903   C1183   1.276   1_455 S
O904   Zn957   1.949   .     S
O905   Zn960   1.949   .     S
O906   Zn959   1.949   .     S
O907   Zn962   1.950   .     S
O908   Zn961   1.950   .     S
O908   C1184   1.278   1_455 S
O909   Zn956   1.950   .     S
O910   Zn955   1.950   .     S
O910   C1186   1.276   1_455 S
O911   Zn950   1.949   .     S
O912   Zn949   1.949   .     S
O913   Zn952   1.949   .     S
O914   Zn951   1.949   .     S
O914   C1186   1.275   1_455 A
O915   Zn954   1.950   .     S
O916   Zn953   1.950   .     S
O917   Zn960   1.934   .     S
O918   Zn959   1.934   .     S
O919   Zn962   1.936   .     S
O920   Zn961   1.936   .     S
O921   Zn964   1.934   .     S
O922   Zn963   1.934   .     S
O923   Zn958   1.935   .     S
O924   Zn957   1.935   .     S
O925   Zn959   1.935   .     S
O926   Zn960   1.935   .     S
O927   Zn957   1.934   .     S
O928   Zn958   1.934   .     S
O929   Zn963   1.936   .     S
O930   Zn964   1.936   .     S
O931   Zn961   1.934   .     S
O932   Zn962   1.934   .     S
O933   Zn1332  1.934   .     S
O934   Zn951   1.934   .     S
O935   Zn194   1.936   1_565 S
O936   Zn953   1.936   .     S
O937   Zn956   1.934   .     S
O938   Zn1335  1.934   .     S
O939   Zn950   1.935   .     S
O940   Zn189   1.935   1_565 S
O941   Zn1331  1.935   .     S
O942   Zn952   1.935   .     S
O943   Zn949   1.934   .     S
O944   Zn190   1.934   1_565 S
O945   Zn955   1.936   .     S
O946   Zn1336  1.936   .     S
O947   Zn193   1.934   1_565 S
O948   Zn954   1.934   .     S
Zn951  O1321   1.935   1_455 S
Zn952  O1313   1.934   1_455 S
Zn955  O1318   1.934   1_455 S
Zn956  O1326   1.936   1_455 S
Zn957  O1280   1.948   .     S
Zn959  O138    1.948   1_565 S
Zn962  O1279   1.946   .     S
Zn964  O137    1.946   1_565 S
C965   N966    1.158   .     T
C967   N1348   1.158   1_455 S
N968   C1347   1.158   .     S
C969   N970    1.158   .     T
C971   N972    1.158   .     T
C973   N974    1.158   .     T
C975   N976    1.158   .     T
C977   N978    1.158   .     T
C979   N980    1.158   .     T
C981   N982    1.158   .     T
C983   N984    1.158   .     T
C985   N986    1.158   .     T
C987   N988    1.158   .     T
C989   N990    1.158   .     T
C991   N992    1.158   .     T
C993   N994    1.158   .     T
C995   N996    1.158   .     T
C997   H998    1.085   .     S
C997   O999    1.220   .     D
C1000  O1002   1.220   .     D
C1000  H1001   1.085   .     S
C1003  H1004   1.085   .     S
C1003  O1005   1.220   .     D
C1006  O1008   1.219   .     D
C1006  H1007   1.085   .     S
C1009  H1010   1.085   .     S
C1009  O1011   1.220   .     D
C1012  H1013   1.085   .     S
C1012  O1014   1.220   .     D
C1015  O1017   1.220   .     D
C1015  H1016   1.085   .     S
C1018  H1019   1.085   .     S
C1018  O1020   1.221   .     D
C1021  H1022   1.085   .     S
C1021  O1023   1.220   .     D
C1024  H1025   1.085   .     S
C1024  O1026   1.221   .     D
C1027  O1029   1.220   .     D
C1027  H1028   1.085   .     S
C1030  O1032   1.221   .     D
C1030  H1031   1.085   .     S
C1033  H1034   1.085   .     S
C1033  O1035   1.221   .     D
C1036  H1037   1.085   .     S
C1036  O1038   1.221   .     D
C1039  O1041   1.221   .     D
C1039  H1040   1.085   .     S
C1042  H1043   1.085   .     S
C1042  O1044   1.221   .     D
C1045  O1047   1.220   .     D
C1045  H1046   1.085   .     S
C1048  O1050   1.220   .     D
C1048  H1049   1.085   .     S
C1051  H1052   1.085   .     S
C1051  O1053   1.221   .     D
C1054  H1055   1.085   .     S
C1054  O1056   1.220   .     D
C1057  O1059   1.221   .     D
C1057  H1058   1.085   .     S
C1060  H1061   1.085   .     S
C1060  O1062   1.221   .     D
C1063  O1065   1.221   .     D
C1063  H1064   1.085   .     S
C1066  H1067   1.085   .     S
C1066  O1068   1.220   .     D
C1069  O1071   1.221   .     D
C1069  H1070   1.085   .     S
C1072  H1073   1.085   .     S
C1072  O1074   1.220   .     D
C1075  O1077   1.220   .     D
C1075  H1076   1.085   .     S
C1078  O1080   1.220   .     D
C1078  H1079   1.085   .     S
C1081  H1082   1.085   .     S
C1081  O1083   1.221   .     D
C1084  H1085   1.085   .     S
C1084  O1086   1.219   .     D
C1087  O1089   1.221   .     D
C1087  H1088   1.085   .     S
C1090  H1091   1.085   .     S
C1090  O1092   1.221   .     D
C1093  O1095   1.221   .     D
C1093  H1474   1.085   .     S
H1094  C1473   1.085   1_455 S
C1096  H1097   1.084   .     S
C1096  O1478   1.221   .     S
O1098  C1476   1.221   1_455 S
C1099  O1101   1.221   .     D
C1099  H340    1.085   1_565 S
C1102  O1104   1.221   .     D
H1103  C342    1.086   1_565 S
C1105  O1107   1.221   .     D
C1105  H1106   1.085   .     S
C1105  C1145   1.495   1_455 S
C1108  H1109   1.086   .     S
C1108  O1110   1.221   .     D
C1111  O1113   1.221   .     D
C1111  H352    1.085   1_565 S
C1114  O1116   1.221   .     D
H1115  C354    1.085   1_565 S
C1117  H1118   1.085   .     S
C1117  O1119   1.221   .     D
C1120  H1121   1.085   .     S
C1120  O1122   1.221   .     D
C1123  H1124   1.084   .     S
C1123  O1125   1.221   .     D
C1126  H1127   1.085   .     S
C1126  O1128   1.221   .     D
C1129  O1131   1.221   .     D
C1129  H1130   1.086   .     S
C1132  H1133   1.085   .     S
C1132  O1134   1.221   .     D
C1135  H1136   1.085   .     S
C1135  O1137   1.221   .     D
C1138  H1139   1.085   .     S
C1138  O1140   1.221   .     D
C1141  C1473   1.491   .     S
C1141  C1157   1.406   .     A
C1141  C861    1.420   1_655 S
C1142  C1242   1.417   .     A
C1142  C1476   1.491   .     S
C1142  C1158   1.403   .     A
C1143  C1479   1.490   .     S
C1143  C399    1.400   1_565 S
C1143  C483    1.419   1_565 S
C1144  C1244   1.419   .     A
C1144  C1482   1.490   .     S
C1145  C1237   1.416   .     A
C1145  C1157   1.407   .     A
C1145  C1105   1.495   1_655 S
C1146  C1238   1.422   .     A
C1146  C1488   1.487   .     S
C1147  C1491   1.490   .     S
C1147  C399    1.400   1_565 S
C1147  C479    1.418   1_565 S
C1148  C1494   1.490   .     S
C1149  C1497   1.491   .     S
C1149  C1249   1.417   .     A
C1150  C1500   1.491   .     S
C1150  C1162   1.406   .     A
C1150  C1250   1.420   .     A
C1151  C1503   1.491   .     S
C1151  C1251   1.418   .     A
C1151  C783    1.404   1_655 S
C1152  C1252   1.421   .     A
C1152  C1164   1.405   .     A
C1152  C1506   1.490   .     S
C1153  C1161   1.404   .     A
C1153  C1245   1.422   .     A
C1153  C1509   1.487   .     S
C1154  C1246   1.416   .     A
C1154  C1512   1.495   .     S
C1155  C1247   1.422   .     A
C1155  C1163   1.405   .     A
C1155  C1515   1.487   .     S
C1156  C1518   1.492   .     S
C1156  C1248   1.416   .     A
C1156  C784    1.403   1_655 S
C1157  C1183   1.455   .     S
C1158  C1184   1.461   .     S
C1158  C766    1.405   1_655 S
C1159  C1181   1.454   .     S
C1160  C1182   1.454   .     S
C1160  C384    1.400   1_565 S
C1160  C388    1.400   1_565 S
C1161  C1187   1.461   .     S
C1161  C389    1.403   1_565 S
C1162  C394    1.408   1_565 S
C1162  C428    1.456   1_565 S
C1163  C1185   1.463   .     S
C1165  C1237   1.417   .     A
C1165  C1345   1.456   .     S
C1165  C1170   1.404   .     A
C1166  C1347   1.454   .     S
C1166  C1238   1.422   .     A
C1166  C1169   1.401   .     A
C1167  C1239   1.418   .     A
C1167  C1349   1.455   .     S
C1168  C1351   1.455   .     S
C1168  C1240   1.418   .     A
C1168  C411    1.394   1_565 S
C1169  C1353   1.455   .     S
C1169  C1241   1.418   .     A
C1170  C1355   1.455   .     S
C1170  C1242   1.420   .     A
C1171  C1357   1.455   .     S
C1171  C1243   1.418   .     A
C1172  C1359   1.455   .     S
C1172  C407    1.394   1_565 S
C1172  C484    1.418   1_565 S
C1173  C1245   1.422   .     A
C1173  C1361   1.454   .     S
C1173  C1178   1.401   1_556 S
C1174  C1246   1.418   .     A
C1174  C1363   1.456   .     S
C1174  C1177   1.404   1_554 S
C1175  C1365   1.454   .     S
C1175  C1247   1.422   .     A
C1175  C1180   1.401   1_556 S
C1176  C1248   1.416   .     A
C1176  C1367   1.455   .     S
C1176  C1179   1.405   1_554 S
C1177  C1249   1.420   .     A
C1177  C1369   1.456   .     S
C1177  C1174   1.404   1_556 S
C1178  C1371   1.455   .     S
C1178  C1250   1.418   .     A
C1178  C1173   1.401   1_554 S
C1179  C1251   1.421   .     A
C1179  C1373   1.455   .     S
C1179  C1176   1.405   1_556 S
C1180  C1252   1.418   .     A
C1180  C1375   1.455   .     S
C1180  C1175   1.401   1_554 S
C1181  O1285   1.273   .     A
C1182  O1286   1.273   .     A
C1182  O522    1.275   1_565 S
C1183  O1287   1.275   .     A
C1183  O903    1.276   1_655 S
C1184  O1284   1.275   .     A
C1184  O908    1.278   1_655 S
C1185  O1293   1.279   .     A
C1185  O1289   1.275   .     A
C1186  O914    1.275   1_655 A
C1186  C784    1.456   1_655 S
C1186  O910    1.276   1_655 S
C1187  O531    1.274   1_565 A
C1187  O535    1.278   1_565 A
C1188  O1296   1.275   .     A
C1188  O1292   1.277   .     A
C1189  C1255   1.457   .     S
C1189  O1297   1.280   .     A
C1189  O1323   1.279   .     A
C1190  O1324   1.279   .     A
C1190  O1298   1.279   .     A
C1190  C1256   1.459   .     S
C1191  O1321   1.279   .     A
C1191  C1257   1.460   .     S
C1191  O1299   1.279   .     A
C1192  O1322   1.280   .     A
C1192  O1300   1.279   .     A
C1192  C1258   1.461   .     S
C1193  C1259   1.458   .     S
C1193  O1327   1.277   .     A
C1193  O1301   1.279   .     A
C1194  O1302   1.277   .     A
C1194  O1328   1.279   .     A
C1194  C1260   1.458   .     S
C1195  O1303   1.279   .     A
C1195  C1253   1.458   .     S
C1195  O1325   1.278   .     A
C1196  O1304   1.279   .     A
C1196  O1326   1.278   .     A
C1196  C1254   1.458   .     S
C1197  C1263   1.456   .     S
C1197  O1315   1.278   .     A
C1197  O1305   1.278   .     A
C1198  O1306   1.279   .     A
C1198  O1316   1.279   .     A
C1198  C1264   1.458   .     S
C1199  O1307   1.279   .     A
C1199  C1265   1.457   .     S
C1199  O1313   1.279   .     A
C1200  O1314   1.280   .     A
C1200  O1308   1.279   .     A
C1200  C1266   1.458   .     S
C1201  C1267   1.459   .     S
C1201  O1319   1.279   .     A
C1201  O1309   1.278   .     A
C1202  O1310   1.278   .     A
C1202  C1268   1.459   .     S
C1202  O1320   1.279   .     A
C1203  O1311   1.279   .     A
C1203  C1261   1.457   .     S
C1203  O1317   1.277   .     A
C1204  O1312   1.277   .     A
C1204  O1318   1.279   .     A
C1204  C1262   1.457   .     S
C1205  C1268   1.414   .     A
C1205  C1377   1.498   .     S
C1205  C1220   1.410   .     A
C1206  C1219   1.409   .     A
C1206  C1380   1.496   .     S
C1206  C1267   1.414   .     A
C1207  C1266   1.413   .     A
C1207  C1383   1.497   .     S
C1207  C1218   1.409   .     A
C1208  C1386   1.500   .     S
C1208  C1217   1.410   .     A
C1208  C1265   1.416   .     A
C1209  C1389   1.498   .     S
C1209  C1216   1.410   .     A
C1209  C1264   1.416   .     A
C1210  C1392   1.494   .     S
C1210  C1215   1.405   .     A
C1210  C1263   1.413   .     A
C1211  C1262   1.414   .     A
C1211  C1395   1.498   .     S
C1211  C1214   1.409   .     A
C1212  C1213   1.409   .     A
C1212  C1261   1.413   .     A
C1212  C1398   1.485   .     S
C1213  C1401   1.498   .     S
C1213  C1260   1.414   .     A
C1214  C1259   1.413   .     A
C1214  C1404   1.484   .     S
C1215  C1407   1.482   .     S
C1215  C1258   1.410   .     A
C1216  C1410   1.485   .     S
C1216  C1257   1.411   .     A
C1217  C1413   1.485   .     S
C1217  C1256   1.411   .     A
C1218  C1255   1.412   .     A
C1218  C1416   1.485   .     S
C1219  C1419   1.485   .     S
C1219  C1254   1.412   .     A
C1220  C1253   1.413   .     A
C1220  C1422   1.485   .     S
C1221  C1254   1.413   .     A
C1221  C1425   1.497   .     S
C1221  C1236   1.409   .     A
C1222  C1235   1.410   .     A
C1222  C1253   1.414   .     A
C1222  C1428   1.499   .     S
C1223  C1431   1.485   .     S
C1223  C1234   1.410   .     A
C1223  C1256   1.411   .     A
C1224  C1233   1.410   .     A
C1224  C1434   1.498   .     S
C1224  C1255   1.414   .     A
C1225  C1437   1.482   .     S
C1225  C1232   1.409   .     A
C1225  C1258   1.412   .     A
C1226  C1257   1.411   .     A
C1226  C1440   1.485   .     S
C1226  C1231   1.410   .     A
C1227  C1443   1.484   .     S
C1227  C1230   1.409   .     A
C1227  C1260   1.413   .     A
C1228  C1259   1.413   .     A
C1228  C1229   1.408   .     A
C1228  C1446   1.496   .     S
C1229  C1262   1.412   .     A
C1229  C1449   1.485   .     S
C1230  C1452   1.499   .     S
C1230  C1261   1.414   .     A
C1231  C1455   1.499   .     S
C1231  C1264   1.416   .     A
C1232  C1263   1.415   .     A
C1232  C1458   1.498   .     S
C1233  C1461   1.485   .     S
C1233  C1266   1.413   .     A
C1234  C1464   1.500   .     S
C1234  C1265   1.416   .     A
C1235  C1467   1.484   .     S
C1235  C1268   1.413   .     A
C1236  C1470   1.484   .     S
C1236  C1267   1.413   .     A
C1237  C1269   1.420   .     A
C1239  C1271   1.427   .     A
C1240  C388    1.418   1_565 S
C1240  C512    1.427   1_565 S
C1242  C1270   1.424   .     A
C1243  C1271   1.427   .     A
C1244  C1272   1.428   .     A
C1245  C1273   1.424   .     A
C1247  C1275   1.423   .     A
C1248  C896    1.419   1_655 S
C1250  C1274   1.421   .     A
C1251  C895    1.424   1_655 S
C1252  C1276   1.422   .     A
C1269  C1270   1.418   .     A
C1269  C861    1.421   1_655 S
C1270  C858    1.424   1_655 S
C1271  C1272   1.423   .     A
C1273  C489    1.424   1_565 S
C1273  C1274   1.418   1_556 S
C1274  C486    1.420   1_565 S
C1274  C1273   1.418   1_554 S
C1275  C1276   1.417   1_556 S
C1276  C1275   1.417   1_554 S
O1277  Zn1340  1.948   .     S
O1277  Zn1329  1.948   .     S
O1277  Zn1333  1.946   .     S
O1278  Zn1343  1.946   .     S
O1278  Zn1330  1.948   .     S
O1278  Zn1334  1.946   .     S
O1279  Zn1338  1.948   .     S
O1279  Zn1335  1.946   .     S
O1279  Zn1331  1.948   .     S
O1280  Zn1332  1.948   .     S
O1280  Zn1336  1.946   .     S
O1280  Zn1341  1.946   .     S
O1281  Zn1344  1.950   .     S
O1281  C421    1.275   1_565 S
O1282  Zn1343  1.950   .     S
O1283  Zn1338  1.949   .     S
O1284  Zn1337  1.949   .     S
O1285  Zn1340  1.949   .     S
O1286  Zn1339  1.949   .     S
O1287  Zn1342  1.950   .     S
O1288  Zn1341  1.950   .     S
O1289  Zn1336  1.950   .     S
O1290  Zn1335  1.950   .     S
O1291  Zn1330  1.949   .     S
O1292  Zn1329  1.949   .     S
O1293  Zn1332  1.949   .     S
O1294  Zn1331  1.949   .     S
O1295  Zn1334  1.950   .     S
O1296  Zn1333  1.950   .     S
O1297  Zn1340  1.934   .     S
O1298  Zn1339  1.934   .     S
O1299  Zn1342  1.936   .     S
O1300  Zn1341  1.936   .     S
O1301  Zn1344  1.934   .     S
O1302  Zn1343  1.934   .     S
O1303  Zn1338  1.935   .     S
O1304  Zn1337  1.935   .     S
O1305  Zn1339  1.935   .     S
O1306  Zn1340  1.935   .     S
O1307  Zn1337  1.934   .     S
O1308  Zn1338  1.934   .     S
O1309  Zn1343  1.936   .     S
O1310  Zn1344  1.936   .     S
O1311  Zn1341  1.934   .     S
O1312  Zn1342  1.934   .     S
O1313  Zn952   1.934   1_655 S
O1314  Zn1331  1.934   .     S
O1315  Zn574   1.936   1_565 S
O1316  Zn1333  1.936   .     S
O1317  Zn1336  1.934   .     S
O1318  Zn955   1.934   1_655 S
O1319  Zn1330  1.935   .     S
O1320  Zn569   1.935   1_565 S
O1321  Zn951   1.935   1_655 S
O1322  Zn1332  1.935   .     S
O1323  Zn1329  1.934   .     S
O1324  Zn570   1.934   1_565 S
O1325  Zn1335  1.936   .     S
O1326  Zn956   1.936   1_655 S
O1327  Zn573   1.934   1_565 S
O1328  Zn1334  1.934   .     S
Zn1337 O900    1.948   1_655 S
Zn1339 O518    1.948   1_565 S
Zn1342 O899    1.946   1_655 S
Zn1344 O517    1.946   1_565 S
C1345  N1346   1.158   .     T
N1348  C967    1.158   1_655 S
C1349  N1350   1.158   .     T
C1351  N1352   1.158   .     T
C1353  N1354   1.158   .     T
C1355  N1356   1.158   .     T
C1357  N1358   1.158   .     T
C1359  N1360   1.158   .     T
C1361  N1362   1.158   .     T
C1363  N1364   1.158   .     T
C1365  N1366   1.158   .     T
C1367  N1368   1.158   .     T
C1369  N1370   1.158   .     T
C1371  N1372   1.158   .     T
C1373  N1374   1.158   .     T
C1375  N1376   1.158   .     T
C1377  H1378   1.085   .     S
C1377  O1379   1.220   .     D
C1380  O1382   1.220   .     D
C1380  H1381   1.085   .     S
C1383  H1384   1.085   .     S
C1383  O1385   1.220   .     D
C1386  O1388   1.219   .     D
C1386  H1387   1.085   .     S
C1389  H1390   1.085   .     S
C1389  O1391   1.220   .     D
C1392  H1393   1.085   .     S
C1392  O1394   1.220   .     D
C1395  O1397   1.220   .     D
C1395  H1396   1.085   .     S
C1398  H1399   1.085   .     S
C1398  O1400   1.221   .     D
C1401  H1402   1.085   .     S
C1401  O1403   1.220   .     D
C1404  H1405   1.085   .     S
C1404  O1406   1.221   .     D
C1407  O1409   1.220   .     D
C1407  H1408   1.085   .     S
C1410  O1412   1.221   .     D
C1410  H1411   1.085   .     S
C1413  H1414   1.085   .     S
C1413  O1415   1.221   .     D
C1416  H1417   1.085   .     S
C1416  O1418   1.221   .     D
C1419  O1421   1.221   .     D
C1419  H1420   1.085   .     S
C1422  H1423   1.085   .     S
C1422  O1424   1.221   .     D
C1425  O1427   1.220   .     D
C1425  H1426   1.085   .     S
C1428  O1430   1.220   .     D
C1428  H1429   1.085   .     S
C1431  H1432   1.085   .     S
C1431  O1433   1.221   .     D
C1434  H1435   1.085   .     S
C1434  O1436   1.220   .     D
C1437  O1439   1.221   .     D
C1437  H1438   1.085   .     S
C1440  H1441   1.085   .     S
C1440  O1442   1.221   .     D
C1443  O1445   1.221   .     D
C1443  H1444   1.085   .     S
C1446  H1447   1.085   .     S
C1446  O1448   1.220   .     D
C1449  O1451   1.221   .     D
C1449  H1450   1.085   .     S
C1452  H1453   1.085   .     S
C1452  O1454   1.220   .     D
C1455  O1457   1.220   .     D
C1455  H1456   1.085   .     S
C1458  O1460   1.220   .     D
C1458  H1459   1.085   .     S
C1461  H1462   1.085   .     S
C1461  O1463   1.221   .     D
C1464  H1465   1.085   .     S
C1464  O1466   1.219   .     D
C1467  O1469   1.221   .     D
C1467  H1468   1.085   .     S
C1470  H1471   1.085   .     S
C1470  O1472   1.221   .     D
C1473  O1475   1.221   .     D
C1473  H1094   1.085   1_655 S
C1476  H1477   1.084   .     S
C1476  O1098   1.221   1_655 S
C1479  O1481   1.221   .     D
C1479  H720    1.085   1_565 S
C1482  O1484   1.221   .     D
H1483  C722    1.086   1_565 S
C1485  O1487   1.221   .     D
C1485  H1486   1.085   .     S
C1488  H1489   1.086   .     S
C1488  O1490   1.221   .     D
C1491  O1493   1.221   .     D
C1491  H732    1.085   1_565 S
C1494  O1496   1.221   .     D
H1495  C734    1.085   1_565 S
C1497  H1498   1.085   .     S
C1497  O1499   1.221   .     D
C1500  H1501   1.085   .     S
C1500  O1502   1.221   .     D
C1503  H1504   1.084   .     S
C1503  O1505   1.221   .     D
C1506  H1507   1.085   .     S
C1506  O1508   1.221   .     D
C1509  O1511   1.221   .     D
C1509  H1510   1.086   .     S
C1512  H1513   1.085   .     S
C1512  O1514   1.221   .     D
C1515  H1516   1.085   .     S
C1515  O1517   1.221   .     D
C1518  H1519   1.085   .     S
C1518  O1520   1.221   .     D
