data_str_m1_o10_o18_pcu_sym.20
_audit_creation_date              2020-01-03
_audit_creation_method            'Materials Studio'
_symmetry_space_group_name_H-M    'P1'
_symmetry_Int_Tables_number       1
_symmetry_cell_setting            triclinic
loop_
_symmetry_equiv_pos_as_xyz
  x,y,z
_cell_length_a                    32.5866
_cell_length_b                    32.6720
_cell_length_c                    35.8575
_cell_angle_alpha                 98.9956
_cell_angle_beta                  72.6384
_cell_angle_gamma                 99.0750
loop_
_atom_site_label
_atom_site_type_symbol
_atom_site_fract_x
_atom_site_fract_y
_atom_site_fract_z
_atom_site_U_iso_or_equiv
_atom_site_adp_type
_atom_site_occupancy
C1     C     0.05229   0.15943   0.25931   0.00000  Uiso   1.00
C2     C     0.19312   0.12729   0.46020   0.00000  Uiso   1.00
C3     C     0.21094   0.10564   0.48062   0.00000  Uiso   1.00
C4     C     0.28118   0.17378   0.24096   0.00000  Uiso   1.00
C5     C     0.20443   0.11562   0.02101   0.00000  Uiso   1.00
C6     C     0.17979   0.14839   0.04169   0.00000  Uiso   1.00
C7     C     0.22227   0.09265   0.04075   0.00000  Uiso   1.00
C8     C     0.21631   0.10150   0.08127   0.00000  Uiso   1.00
C9     C     0.18014   0.16210   0.08127   0.00000  Uiso   1.00
C10    C     0.32778   0.17738   0.23656   0.00000  Uiso   1.00
C11    C     0.00744   0.15826   0.26104   0.00000  Uiso   1.00
C12    C     0.10088   0.21840   0.42132   0.00000  Uiso   1.00
C13    C     0.18054   0.32236   0.24036   0.00000  Uiso   1.00
C14    C     0.14866   0.01224   0.26094   0.00000  Uiso   1.00
C15    C     0.15603   0.05619   0.25823   0.00000  Uiso   1.00
C16    C     0.17645   0.27759   0.24143   0.00000  Uiso   1.00
C17    C     0.18783   0.14542   0.14405   0.00000  Uiso   1.00
C18    C     0.14537   0.18790   0.35609   0.00000  Uiso   1.00
C19    C     0.13446   0.19506   0.39929   0.00000  Uiso   1.00
C20    C     0.19553   0.13665   0.10150   0.00000  Uiso   1.00
C21    C     0.08948   0.22253   0.46228   0.00000  Uiso   1.00
C22    C     0.02470   0.20194   0.20528   0.00000  Uiso   1.00
C23    C     0.15687   0.17650   0.41865   0.00000  Uiso   1.00
C24    C     0.10291   0.32920   0.27919   0.00000  Uiso   1.00
C25    C     0.17080   0.20530   0.09908   0.00000  Uiso   1.00
C26    C     0.23346   0.07476   0.10180   0.00000  Uiso   1.00
C27    C     0.14484   0.17876   0.45992   0.00000  Uiso   1.00
C28    C     0.11105   0.20284   0.48172   0.00000  Uiso   1.00
C29    C     0.16538   0.15779   0.48006   0.00000  Uiso   1.00
C30    C     0.15585   0.16580   0.02173   0.00000  Uiso   1.00
C31    C     0.12005   0.18758   0.04233   0.00000  Uiso   1.00
C32    C     0.09836   0.20609   0.02266   0.00000  Uiso   1.00
H33    H     0.19940   0.11727   0.42914   0.00000  Uiso   1.00
H34    H     0.23028   0.08100   0.46453   0.00000  Uiso   1.00
H35    H     0.06336   0.24066   0.47880   0.00000  Uiso   1.00
H36    H     0.08313   0.23307   0.40694   0.00000  Uiso   1.00
H37    H     0.18413   0.16092   0.40082   0.00000  Uiso   1.00
H38    H     0.10685   0.18893   0.07386   0.00000  Uiso   1.00
H39    H     0.07133   0.22288   0.03964   0.00000  Uiso   1.00
H40    H     0.24006   0.06701   0.02451   0.00000  Uiso   1.00
H41    H     0.01187   0.21568   0.18610   0.00000  Uiso   1.00
H42    H     0.31770   0.14077   0.28333   0.00000  Uiso   1.00
H43    H     0.21131   0.00399   0.22357   0.00000  Uiso   1.00
H44    H     0.08474   0.01209   0.30644   0.00000  Uiso   1.00
H45    H     0.17858   0.23008   0.08029   0.00000  Uiso   1.00
H46    H     0.23109   0.08214   0.13287   0.00000  Uiso   1.00
O47    O     0.16667   0.16667   0.25000   0.00000  Uiso   1.00
O48    O     0.15693   0.12393   0.16625   0.00000  Uiso   1.00
O49    O     0.12687   0.20646   0.33749   0.00000  Uiso   1.00
O50    O     0.21088   0.17493   0.15877   0.00000  Uiso   1.00
O51    O     0.17198   0.16135   0.33749   0.00000  Uiso   1.00
O52    O     0.06379   0.20737   0.20040   0.00000  Uiso   1.00
O53    O     0.08426   0.30000   0.26254   0.00000  Uiso   1.00
O54    O     0.15330   0.21348   0.13411   0.00000  Uiso   1.00
O55    O     0.25056   0.04393   0.08419   0.00000  Uiso   1.00
O56    O     0.17849   0.08101   0.27821   0.00000  Uiso   1.00
O57    O     0.14581   0.26136   0.26767   0.00000  Uiso   1.00
O58    O     0.07452   0.13251   0.23607   0.00000  Uiso   1.00
O59    O     0.26785   0.19179   0.21806   0.00000  Uiso   1.00
O60    O     0.06990   0.18960   0.27820   0.00000  Uiso   1.00
O61    O     0.25440   0.15277   0.26768   0.00000  Uiso   1.00
O62    O     0.13800   0.06903   0.23607   0.00000  Uiso   1.00
O63    O     0.20437   0.25527   0.21806   0.00000  Uiso   1.00
Zn64   Zn    0.19244   0.14090   0.28278   0.00000  Uiso   1.00
Zn65   Zn    0.13459   0.12378   0.22258   0.00000  Uiso   1.00
Zn66   Zn    0.21166   0.19664   0.21188   0.00000  Uiso   1.00
Zn67   Zn    0.12798   0.20535   0.28277   0.00000  Uiso   1.00
C68    C     0.38562   0.15943   0.25931   0.00000  Uiso   1.00
C69    C     0.52645   0.12729   0.46020   0.00000  Uiso   1.00
C70    C     0.54427   0.10564   0.48062   0.00000  Uiso   1.00
C71    C     0.61451   0.17378   0.24096   0.00000  Uiso   1.00
C72    C     0.53776   0.11562   0.02101   0.00000  Uiso   1.00
C73    C     0.51312   0.14839   0.04169   0.00000  Uiso   1.00
C74    C     0.55560   0.09265   0.04075   0.00000  Uiso   1.00
C75    C     0.54964   0.10150   0.08127   0.00000  Uiso   1.00
C76    C     0.51348   0.16210   0.08127   0.00000  Uiso   1.00
C77    C     0.66112   0.17738   0.23656   0.00000  Uiso   1.00
C78    C     0.34077   0.15826   0.26104   0.00000  Uiso   1.00
C79    C     0.43421   0.21840   0.42132   0.00000  Uiso   1.00
C80    C     0.51387   0.32236   0.24036   0.00000  Uiso   1.00
C81    C     0.48199   0.01224   0.26094   0.00000  Uiso   1.00
C82    C     0.48937   0.05619   0.25823   0.00000  Uiso   1.00
C83    C     0.50979   0.27759   0.24143   0.00000  Uiso   1.00
C84    C     0.52117   0.14542   0.14405   0.00000  Uiso   1.00
C85    C     0.47870   0.18790   0.35609   0.00000  Uiso   1.00
C86    C     0.46780   0.19506   0.39929   0.00000  Uiso   1.00
C87    C     0.52887   0.13665   0.10150   0.00000  Uiso   1.00
C88    C     0.42281   0.22253   0.46228   0.00000  Uiso   1.00
C89    C     0.35804   0.20194   0.20528   0.00000  Uiso   1.00
C90    C     0.49020   0.17650   0.41865   0.00000  Uiso   1.00
C91    C     0.43625   0.32920   0.27919   0.00000  Uiso   1.00
C92    C     0.50414   0.20530   0.09908   0.00000  Uiso   1.00
C93    C     0.56679   0.07476   0.10180   0.00000  Uiso   1.00
C94    C     0.47817   0.17876   0.45992   0.00000  Uiso   1.00
C95    C     0.44438   0.20284   0.48172   0.00000  Uiso   1.00
C96    C     0.49871   0.15779   0.48006   0.00000  Uiso   1.00
C97    C     0.48918   0.16580   0.02173   0.00000  Uiso   1.00
C98    C     0.45338   0.18758   0.04233   0.00000  Uiso   1.00
C99    C     0.43170   0.20609   0.02266   0.00000  Uiso   1.00
H100   H     0.53274   0.11727   0.42914   0.00000  Uiso   1.00
H101   H     0.56362   0.08100   0.46453   0.00000  Uiso   1.00
H102   H     0.39669   0.24066   0.47880   0.00000  Uiso   1.00
H103   H     0.41646   0.23307   0.40694   0.00000  Uiso   1.00
H104   H     0.51747   0.16092   0.40082   0.00000  Uiso   1.00
H105   H     0.44018   0.18893   0.07386   0.00000  Uiso   1.00
H106   H     0.40467   0.22288   0.03964   0.00000  Uiso   1.00
H107   H     0.57339   0.06701   0.02451   0.00000  Uiso   1.00
H108   H     0.34520   0.21568   0.18610   0.00000  Uiso   1.00
H109   H     0.65103   0.14077   0.28333   0.00000  Uiso   1.00
H110   H     0.54464   0.00399   0.22357   0.00000  Uiso   1.00
H111   H     0.41807   0.01209   0.30644   0.00000  Uiso   1.00
H112   H     0.51192   0.23008   0.08029   0.00000  Uiso   1.00
H113   H     0.56442   0.08214   0.13287   0.00000  Uiso   1.00
O114   O     0.50000   0.16667   0.25000   0.00000  Uiso   1.00
O115   O     0.49027   0.12393   0.16625   0.00000  Uiso   1.00
O116   O     0.46020   0.20646   0.33749   0.00000  Uiso   1.00
O117   O     0.54421   0.17493   0.15877   0.00000  Uiso   1.00
O118   O     0.50532   0.16135   0.33749   0.00000  Uiso   1.00
O119   O     0.39713   0.20737   0.20040   0.00000  Uiso   1.00
O120   O     0.41759   0.30000   0.26254   0.00000  Uiso   1.00
O121   O     0.48663   0.21348   0.13411   0.00000  Uiso   1.00
O122   O     0.58390   0.04393   0.08419   0.00000  Uiso   1.00
O123   O     0.51182   0.08101   0.27821   0.00000  Uiso   1.00
O124   O     0.47914   0.26136   0.26767   0.00000  Uiso   1.00
O125   O     0.40785   0.13251   0.23607   0.00000  Uiso   1.00
O126   O     0.60119   0.19179   0.21806   0.00000  Uiso   1.00
O127   O     0.40323   0.18960   0.27820   0.00000  Uiso   1.00
O128   O     0.58773   0.15277   0.26768   0.00000  Uiso   1.00
O129   O     0.47133   0.06903   0.23607   0.00000  Uiso   1.00
O130   O     0.53771   0.25527   0.21806   0.00000  Uiso   1.00
Zn131  Zn    0.52577   0.14090   0.28278   0.00000  Uiso   1.00
Zn132  Zn    0.46792   0.12378   0.22258   0.00000  Uiso   1.00
Zn133  Zn    0.54500   0.19664   0.21188   0.00000  Uiso   1.00
Zn134  Zn    0.46131   0.20535   0.28277   0.00000  Uiso   1.00
C135   C     0.71896   0.15943   0.25931   0.00000  Uiso   1.00
C136   C     0.85979   0.12729   0.46020   0.00000  Uiso   1.00
C137   C     0.87761   0.10564   0.48062   0.00000  Uiso   1.00
C138   C     0.94784   0.17378   0.24096   0.00000  Uiso   1.00
C139   C     0.87110   0.11562   0.02101   0.00000  Uiso   1.00
C140   C     0.84645   0.14839   0.04169   0.00000  Uiso   1.00
C141   C     0.88893   0.09265   0.04075   0.00000  Uiso   1.00
C142   C     0.88298   0.10150   0.08127   0.00000  Uiso   1.00
C143   C     0.84681   0.16210   0.08127   0.00000  Uiso   1.00
C144   C     0.99445   0.17738   0.23656   0.00000  Uiso   1.00
C145   C     0.67410   0.15826   0.26104   0.00000  Uiso   1.00
C146   C     0.76754   0.21840   0.42132   0.00000  Uiso   1.00
C147   C     0.84720   0.32236   0.24036   0.00000  Uiso   1.00
C148   C     0.81533   0.01224   0.26094   0.00000  Uiso   1.00
C149   C     0.82270   0.05619   0.25823   0.00000  Uiso   1.00
C150   C     0.84312   0.27759   0.24143   0.00000  Uiso   1.00
C151   C     0.85450   0.14542   0.14405   0.00000  Uiso   1.00
C152   C     0.81204   0.18790   0.35609   0.00000  Uiso   1.00
C153   C     0.80113   0.19506   0.39929   0.00000  Uiso   1.00
C154   C     0.86220   0.13665   0.10150   0.00000  Uiso   1.00
C155   C     0.75615   0.22253   0.46228   0.00000  Uiso   1.00
C156   C     0.69137   0.20194   0.20528   0.00000  Uiso   1.00
C157   C     0.82354   0.17650   0.41865   0.00000  Uiso   1.00
C158   C     0.76958   0.32920   0.27919   0.00000  Uiso   1.00
C159   C     0.83747   0.20530   0.09908   0.00000  Uiso   1.00
C160   C     0.90013   0.07476   0.10180   0.00000  Uiso   1.00
C161   C     0.81150   0.17876   0.45992   0.00000  Uiso   1.00
C162   C     0.77772   0.20284   0.48172   0.00000  Uiso   1.00
C163   C     0.83205   0.15779   0.48006   0.00000  Uiso   1.00
C164   C     0.82252   0.16580   0.02173   0.00000  Uiso   1.00
C165   C     0.78671   0.18758   0.04233   0.00000  Uiso   1.00
C166   C     0.76503   0.20609   0.02266   0.00000  Uiso   1.00
H167   H     0.86607   0.11727   0.42914   0.00000  Uiso   1.00
H168   H     0.89695   0.08100   0.46453   0.00000  Uiso   1.00
H169   H     0.73002   0.24066   0.47880   0.00000  Uiso   1.00
H170   H     0.74980   0.23307   0.40694   0.00000  Uiso   1.00
H171   H     0.85080   0.16092   0.40082   0.00000  Uiso   1.00
H172   H     0.77352   0.18893   0.07386   0.00000  Uiso   1.00
H173   H     0.73800   0.22288   0.03964   0.00000  Uiso   1.00
H174   H     0.90672   0.06701   0.02451   0.00000  Uiso   1.00
H175   H     0.67854   0.21568   0.18610   0.00000  Uiso   1.00
H176   H     0.98437   0.14077   0.28333   0.00000  Uiso   1.00
H177   H     0.87797   0.00399   0.22357   0.00000  Uiso   1.00
H178   H     0.75141   0.01209   0.30644   0.00000  Uiso   1.00
H179   H     0.84525   0.23008   0.08029   0.00000  Uiso   1.00
H180   H     0.89775   0.08214   0.13287   0.00000  Uiso   1.00
O181   O     0.83333   0.16667   0.25000   0.00000  Uiso   1.00
O182   O     0.82360   0.12393   0.16625   0.00000  Uiso   1.00
O183   O     0.79354   0.20646   0.33749   0.00000  Uiso   1.00
O184   O     0.87755   0.17493   0.15877   0.00000  Uiso   1.00
O185   O     0.83865   0.16135   0.33749   0.00000  Uiso   1.00
O186   O     0.73046   0.20737   0.20040   0.00000  Uiso   1.00
O187   O     0.75092   0.30000   0.26254   0.00000  Uiso   1.00
O188   O     0.81997   0.21348   0.13411   0.00000  Uiso   1.00
O189   O     0.91723   0.04393   0.08419   0.00000  Uiso   1.00
O190   O     0.84515   0.08101   0.27821   0.00000  Uiso   1.00
O191   O     0.81247   0.26136   0.26767   0.00000  Uiso   1.00
O192   O     0.74119   0.13251   0.23607   0.00000  Uiso   1.00
O193   O     0.93452   0.19179   0.21806   0.00000  Uiso   1.00
O194   O     0.73656   0.18960   0.27820   0.00000  Uiso   1.00
O195   O     0.92106   0.15277   0.26768   0.00000  Uiso   1.00
O196   O     0.80467   0.06903   0.23607   0.00000  Uiso   1.00
O197   O     0.87104   0.25527   0.21806   0.00000  Uiso   1.00
Zn198  Zn    0.85910   0.14090   0.28278   0.00000  Uiso   1.00
Zn199  Zn    0.80125   0.12378   0.22258   0.00000  Uiso   1.00
Zn200  Zn    0.87833   0.19664   0.21188   0.00000  Uiso   1.00
Zn201  Zn    0.79465   0.20535   0.28277   0.00000  Uiso   1.00
C202   C     0.05229   0.49276   0.25931   0.00000  Uiso   1.00
C203   C     0.19312   0.46062   0.46020   0.00000  Uiso   1.00
C204   C     0.21094   0.43897   0.48062   0.00000  Uiso   1.00
C205   C     0.28118   0.50711   0.24096   0.00000  Uiso   1.00
C206   C     0.20443   0.44895   0.02101   0.00000  Uiso   1.00
C207   C     0.17979   0.48172   0.04169   0.00000  Uiso   1.00
C208   C     0.22227   0.42599   0.04075   0.00000  Uiso   1.00
C209   C     0.21631   0.43483   0.08127   0.00000  Uiso   1.00
C210   C     0.18014   0.49543   0.08127   0.00000  Uiso   1.00
C211   C     0.32778   0.51071   0.23656   0.00000  Uiso   1.00
C212   C     0.00744   0.49160   0.26104   0.00000  Uiso   1.00
C213   C     0.10088   0.55173   0.42132   0.00000  Uiso   1.00
C214   C     0.18054   0.65569   0.24036   0.00000  Uiso   1.00
C215   C     0.14866   0.34557   0.26094   0.00000  Uiso   1.00
C216   C     0.15603   0.38953   0.25823   0.00000  Uiso   1.00
C217   C     0.17645   0.61092   0.24143   0.00000  Uiso   1.00
C218   C     0.18783   0.47875   0.14405   0.00000  Uiso   1.00
C219   C     0.14537   0.52123   0.35609   0.00000  Uiso   1.00
C220   C     0.13446   0.52839   0.39929   0.00000  Uiso   1.00
C221   C     0.19553   0.46998   0.10150   0.00000  Uiso   1.00
C222   C     0.08948   0.55586   0.46228   0.00000  Uiso   1.00
C223   C     0.02470   0.53527   0.20528   0.00000  Uiso   1.00
C224   C     0.15687   0.50983   0.41865   0.00000  Uiso   1.00
C225   C     0.10291   0.66253   0.27919   0.00000  Uiso   1.00
C226   C     0.17080   0.53863   0.09908   0.00000  Uiso   1.00
C227   C     0.23346   0.40809   0.10180   0.00000  Uiso   1.00
C228   C     0.14484   0.51210   0.45992   0.00000  Uiso   1.00
C229   C     0.11105   0.53617   0.48172   0.00000  Uiso   1.00
C230   C     0.16538   0.49113   0.48006   0.00000  Uiso   1.00
C231   C     0.15585   0.49913   0.02173   0.00000  Uiso   1.00
C232   C     0.12005   0.52091   0.04233   0.00000  Uiso   1.00
C233   C     0.09836   0.53942   0.02266   0.00000  Uiso   1.00
H234   H     0.19940   0.45061   0.42914   0.00000  Uiso   1.00
H235   H     0.23028   0.41434   0.46453   0.00000  Uiso   1.00
H236   H     0.06336   0.57399   0.47880   0.00000  Uiso   1.00
H237   H     0.08313   0.56640   0.40694   0.00000  Uiso   1.00
H238   H     0.18413   0.49425   0.40082   0.00000  Uiso   1.00
H239   H     0.10685   0.52226   0.07386   0.00000  Uiso   1.00
H240   H     0.07133   0.55621   0.03964   0.00000  Uiso   1.00
H241   H     0.24006   0.40034   0.02451   0.00000  Uiso   1.00
H242   H     0.01187   0.54902   0.18610   0.00000  Uiso   1.00
H243   H     0.31770   0.47410   0.28333   0.00000  Uiso   1.00
H244   H     0.21131   0.33732   0.22357   0.00000  Uiso   1.00
H245   H     0.08474   0.34542   0.30644   0.00000  Uiso   1.00
H246   H     0.17858   0.56342   0.08029   0.00000  Uiso   1.00
H247   H     0.23109   0.41547   0.13287   0.00000  Uiso   1.00
O248   O     0.16667   0.50000   0.25000   0.00000  Uiso   1.00
O249   O     0.15693   0.45726   0.16625   0.00000  Uiso   1.00
O250   O     0.12687   0.53979   0.33749   0.00000  Uiso   1.00
O251   O     0.21088   0.50826   0.15877   0.00000  Uiso   1.00
O252   O     0.17198   0.49468   0.33749   0.00000  Uiso   1.00
O253   O     0.06379   0.54070   0.20040   0.00000  Uiso   1.00
O254   O     0.08426   0.63333   0.26254   0.00000  Uiso   1.00
O255   O     0.15330   0.54681   0.13411   0.00000  Uiso   1.00
O256   O     0.25056   0.37726   0.08419   0.00000  Uiso   1.00
O257   O     0.17849   0.41434   0.27821   0.00000  Uiso   1.00
O258   O     0.14581   0.59469   0.26767   0.00000  Uiso   1.00
O259   O     0.07452   0.46584   0.23607   0.00000  Uiso   1.00
O260   O     0.26785   0.52512   0.21806   0.00000  Uiso   1.00
O261   O     0.06990   0.52293   0.27820   0.00000  Uiso   1.00
O262   O     0.25440   0.48610   0.26768   0.00000  Uiso   1.00
O263   O     0.13800   0.40236   0.23607   0.00000  Uiso   1.00
O264   O     0.20437   0.58860   0.21806   0.00000  Uiso   1.00
Zn265  Zn    0.19244   0.47423   0.28278   0.00000  Uiso   1.00
Zn266  Zn    0.13459   0.45711   0.22258   0.00000  Uiso   1.00
Zn267  Zn    0.21166   0.52997   0.21188   0.00000  Uiso   1.00
Zn268  Zn    0.12798   0.53868   0.28277   0.00000  Uiso   1.00
C269   C     0.38562   0.49276   0.25931   0.00000  Uiso   1.00
C270   C     0.52645   0.46062   0.46020   0.00000  Uiso   1.00
C271   C     0.54427   0.43897   0.48062   0.00000  Uiso   1.00
C272   C     0.61451   0.50711   0.24096   0.00000  Uiso   1.00
C273   C     0.53776   0.44895   0.02101   0.00000  Uiso   1.00
C274   C     0.51312   0.48172   0.04169   0.00000  Uiso   1.00
C275   C     0.55560   0.42599   0.04075   0.00000  Uiso   1.00
C276   C     0.54964   0.43483   0.08127   0.00000  Uiso   1.00
C277   C     0.51348   0.49543   0.08127   0.00000  Uiso   1.00
C278   C     0.66112   0.51071   0.23656   0.00000  Uiso   1.00
C279   C     0.34077   0.49160   0.26104   0.00000  Uiso   1.00
C280   C     0.43421   0.55173   0.42132   0.00000  Uiso   1.00
C281   C     0.51387   0.65569   0.24036   0.00000  Uiso   1.00
C282   C     0.48199   0.34557   0.26094   0.00000  Uiso   1.00
C283   C     0.48937   0.38953   0.25823   0.00000  Uiso   1.00
C284   C     0.50979   0.61092   0.24143   0.00000  Uiso   1.00
C285   C     0.52117   0.47875   0.14405   0.00000  Uiso   1.00
C286   C     0.47870   0.52123   0.35609   0.00000  Uiso   1.00
C287   C     0.46780   0.52839   0.39929   0.00000  Uiso   1.00
C288   C     0.52887   0.46998   0.10150   0.00000  Uiso   1.00
C289   C     0.42281   0.55586   0.46228   0.00000  Uiso   1.00
C290   C     0.35804   0.53527   0.20528   0.00000  Uiso   1.00
C291   C     0.49020   0.50983   0.41865   0.00000  Uiso   1.00
C292   C     0.43625   0.66253   0.27919   0.00000  Uiso   1.00
C293   C     0.50414   0.53863   0.09908   0.00000  Uiso   1.00
C294   C     0.56679   0.40809   0.10180   0.00000  Uiso   1.00
C295   C     0.47817   0.51210   0.45992   0.00000  Uiso   1.00
C296   C     0.44438   0.53617   0.48172   0.00000  Uiso   1.00
C297   C     0.49871   0.49113   0.48006   0.00000  Uiso   1.00
C298   C     0.48918   0.49913   0.02173   0.00000  Uiso   1.00
C299   C     0.45338   0.52091   0.04233   0.00000  Uiso   1.00
C300   C     0.43170   0.53942   0.02266   0.00000  Uiso   1.00
H301   H     0.53274   0.45061   0.42914   0.00000  Uiso   1.00
H302   H     0.56362   0.41434   0.46453   0.00000  Uiso   1.00
H303   H     0.39669   0.57399   0.47880   0.00000  Uiso   1.00
H304   H     0.41646   0.56640   0.40694   0.00000  Uiso   1.00
H305   H     0.51747   0.49425   0.40082   0.00000  Uiso   1.00
H306   H     0.44018   0.52226   0.07386   0.00000  Uiso   1.00
H307   H     0.40467   0.55621   0.03964   0.00000  Uiso   1.00
H308   H     0.57339   0.40034   0.02451   0.00000  Uiso   1.00
H309   H     0.34520   0.54902   0.18610   0.00000  Uiso   1.00
H310   H     0.65103   0.47410   0.28333   0.00000  Uiso   1.00
H311   H     0.54464   0.33732   0.22357   0.00000  Uiso   1.00
H312   H     0.41807   0.34542   0.30644   0.00000  Uiso   1.00
H313   H     0.51192   0.56342   0.08029   0.00000  Uiso   1.00
H314   H     0.56442   0.41547   0.13287   0.00000  Uiso   1.00
O315   O     0.50000   0.50000   0.25000   0.00000  Uiso   1.00
O316   O     0.49027   0.45726   0.16625   0.00000  Uiso   1.00
O317   O     0.46020   0.53979   0.33749   0.00000  Uiso   1.00
O318   O     0.54421   0.50826   0.15877   0.00000  Uiso   1.00
O319   O     0.50532   0.49468   0.33749   0.00000  Uiso   1.00
O320   O     0.39713   0.54070   0.20040   0.00000  Uiso   1.00
O321   O     0.41759   0.63333   0.26254   0.00000  Uiso   1.00
O322   O     0.48663   0.54681   0.13411   0.00000  Uiso   1.00
O323   O     0.58390   0.37726   0.08419   0.00000  Uiso   1.00
O324   O     0.51182   0.41434   0.27821   0.00000  Uiso   1.00
O325   O     0.47914   0.59469   0.26767   0.00000  Uiso   1.00
O326   O     0.40785   0.46584   0.23607   0.00000  Uiso   1.00
O327   O     0.60119   0.52512   0.21806   0.00000  Uiso   1.00
O328   O     0.40323   0.52293   0.27820   0.00000  Uiso   1.00
O329   O     0.58773   0.48610   0.26768   0.00000  Uiso   1.00
O330   O     0.47133   0.40236   0.23607   0.00000  Uiso   1.00
O331   O     0.53771   0.58860   0.21806   0.00000  Uiso   1.00
Zn332  Zn    0.52577   0.47423   0.28278   0.00000  Uiso   1.00
Zn333  Zn    0.46792   0.45711   0.22258   0.00000  Uiso   1.00
Zn334  Zn    0.54500   0.52997   0.21188   0.00000  Uiso   1.00
Zn335  Zn    0.46131   0.53868   0.28277   0.00000  Uiso   1.00
C336   C     0.71896   0.49276   0.25931   0.00000  Uiso   1.00
C337   C     0.85979   0.46062   0.46020   0.00000  Uiso   1.00
C338   C     0.87761   0.43897   0.48062   0.00000  Uiso   1.00
C339   C     0.94784   0.50711   0.24096   0.00000  Uiso   1.00
C340   C     0.87110   0.44895   0.02101   0.00000  Uiso   1.00
C341   C     0.84645   0.48172   0.04169   0.00000  Uiso   1.00
C342   C     0.88893   0.42599   0.04075   0.00000  Uiso   1.00
C343   C     0.88298   0.43483   0.08127   0.00000  Uiso   1.00
C344   C     0.84681   0.49543   0.08127   0.00000  Uiso   1.00
C345   C     0.99445   0.51071   0.23656   0.00000  Uiso   1.00
C346   C     0.67410   0.49160   0.26104   0.00000  Uiso   1.00
C347   C     0.76754   0.55173   0.42132   0.00000  Uiso   1.00
C348   C     0.84720   0.65569   0.24036   0.00000  Uiso   1.00
C349   C     0.81533   0.34557   0.26094   0.00000  Uiso   1.00
C350   C     0.82270   0.38953   0.25823   0.00000  Uiso   1.00
C351   C     0.84312   0.61092   0.24143   0.00000  Uiso   1.00
C352   C     0.85450   0.47875   0.14405   0.00000  Uiso   1.00
C353   C     0.81204   0.52123   0.35609   0.00000  Uiso   1.00
C354   C     0.80113   0.52839   0.39929   0.00000  Uiso   1.00
C355   C     0.86220   0.46998   0.10150   0.00000  Uiso   1.00
C356   C     0.75615   0.55586   0.46228   0.00000  Uiso   1.00
C357   C     0.69137   0.53527   0.20528   0.00000  Uiso   1.00
C358   C     0.82354   0.50983   0.41865   0.00000  Uiso   1.00
C359   C     0.76958   0.66253   0.27919   0.00000  Uiso   1.00
C360   C     0.83747   0.53863   0.09908   0.00000  Uiso   1.00
C361   C     0.90013   0.40809   0.10180   0.00000  Uiso   1.00
C362   C     0.81150   0.51210   0.45992   0.00000  Uiso   1.00
C363   C     0.77772   0.53617   0.48172   0.00000  Uiso   1.00
C364   C     0.83205   0.49113   0.48006   0.00000  Uiso   1.00
C365   C     0.82252   0.49913   0.02173   0.00000  Uiso   1.00
C366   C     0.78671   0.52091   0.04233   0.00000  Uiso   1.00
C367   C     0.76503   0.53942   0.02266   0.00000  Uiso   1.00
H368   H     0.86607   0.45061   0.42914   0.00000  Uiso   1.00
H369   H     0.89695   0.41434   0.46453   0.00000  Uiso   1.00
H370   H     0.73002   0.57399   0.47880   0.00000  Uiso   1.00
H371   H     0.74980   0.56640   0.40694   0.00000  Uiso   1.00
H372   H     0.85080   0.49425   0.40082   0.00000  Uiso   1.00
H373   H     0.77352   0.52226   0.07386   0.00000  Uiso   1.00
H374   H     0.73800   0.55621   0.03964   0.00000  Uiso   1.00
H375   H     0.90672   0.40034   0.02451   0.00000  Uiso   1.00
H376   H     0.67854   0.54902   0.18610   0.00000  Uiso   1.00
H377   H     0.98437   0.47410   0.28333   0.00000  Uiso   1.00
H378   H     0.87797   0.33732   0.22357   0.00000  Uiso   1.00
H379   H     0.75141   0.34542   0.30644   0.00000  Uiso   1.00
H380   H     0.84525   0.56342   0.08029   0.00000  Uiso   1.00
H381   H     0.89775   0.41547   0.13287   0.00000  Uiso   1.00
O382   O     0.83333   0.50000   0.25000   0.00000  Uiso   1.00
O383   O     0.82360   0.45726   0.16625   0.00000  Uiso   1.00
O384   O     0.79354   0.53979   0.33749   0.00000  Uiso   1.00
O385   O     0.87755   0.50826   0.15877   0.00000  Uiso   1.00
O386   O     0.83865   0.49468   0.33749   0.00000  Uiso   1.00
O387   O     0.73046   0.54070   0.20040   0.00000  Uiso   1.00
O388   O     0.75092   0.63333   0.26254   0.00000  Uiso   1.00
O389   O     0.81997   0.54681   0.13411   0.00000  Uiso   1.00
O390   O     0.91723   0.37726   0.08419   0.00000  Uiso   1.00
O391   O     0.84515   0.41434   0.27821   0.00000  Uiso   1.00
O392   O     0.81247   0.59469   0.26767   0.00000  Uiso   1.00
O393   O     0.74119   0.46584   0.23607   0.00000  Uiso   1.00
O394   O     0.93452   0.52512   0.21806   0.00000  Uiso   1.00
O395   O     0.73656   0.52293   0.27820   0.00000  Uiso   1.00
O396   O     0.92106   0.48610   0.26768   0.00000  Uiso   1.00
O397   O     0.80467   0.40236   0.23607   0.00000  Uiso   1.00
O398   O     0.87104   0.58860   0.21806   0.00000  Uiso   1.00
Zn399  Zn    0.85910   0.47423   0.28278   0.00000  Uiso   1.00
Zn400  Zn    0.80125   0.45711   0.22258   0.00000  Uiso   1.00
Zn401  Zn    0.87833   0.52997   0.21188   0.00000  Uiso   1.00
Zn402  Zn    0.79465   0.53868   0.28277   0.00000  Uiso   1.00
C403   C     0.05229   0.82610   0.25931   0.00000  Uiso   1.00
C404   C     0.19312   0.79395   0.46020   0.00000  Uiso   1.00
C405   C     0.21094   0.77231   0.48062   0.00000  Uiso   1.00
C406   C     0.28118   0.84044   0.24096   0.00000  Uiso   1.00
C407   C     0.20443   0.78229   0.02101   0.00000  Uiso   1.00
C408   C     0.17979   0.81505   0.04169   0.00000  Uiso   1.00
C409   C     0.22227   0.75932   0.04075   0.00000  Uiso   1.00
C410   C     0.21631   0.76816   0.08127   0.00000  Uiso   1.00
C411   C     0.18014   0.82877   0.08127   0.00000  Uiso   1.00
C412   C     0.32778   0.84404   0.23656   0.00000  Uiso   1.00
C413   C     0.00744   0.82493   0.26104   0.00000  Uiso   1.00
C414   C     0.10088   0.88506   0.42132   0.00000  Uiso   1.00
C415   C     0.18054   0.98903   0.24036   0.00000  Uiso   1.00
C416   C     0.14866   0.67890   0.26094   0.00000  Uiso   1.00
C417   C     0.15603   0.72286   0.25823   0.00000  Uiso   1.00
C418   C     0.17645   0.94426   0.24143   0.00000  Uiso   1.00
C419   C     0.18783   0.81209   0.14405   0.00000  Uiso   1.00
C420   C     0.14537   0.85457   0.35609   0.00000  Uiso   1.00
C421   C     0.13446   0.86173   0.39929   0.00000  Uiso   1.00
C422   C     0.19553   0.80331   0.10150   0.00000  Uiso   1.00
C423   C     0.08948   0.88919   0.46228   0.00000  Uiso   1.00
C424   C     0.02470   0.86860   0.20528   0.00000  Uiso   1.00
C425   C     0.15687   0.84317   0.41865   0.00000  Uiso   1.00
C426   C     0.10291   0.99587   0.27919   0.00000  Uiso   1.00
C427   C     0.17080   0.87196   0.09908   0.00000  Uiso   1.00
C428   C     0.23346   0.74142   0.10180   0.00000  Uiso   1.00
C429   C     0.14484   0.84543   0.45992   0.00000  Uiso   1.00
C430   C     0.11105   0.86950   0.48172   0.00000  Uiso   1.00
C431   C     0.16538   0.82446   0.48006   0.00000  Uiso   1.00
C432   C     0.15585   0.83246   0.02173   0.00000  Uiso   1.00
C433   C     0.12005   0.85425   0.04233   0.00000  Uiso   1.00
C434   C     0.09836   0.87275   0.02266   0.00000  Uiso   1.00
H435   H     0.19940   0.78394   0.42914   0.00000  Uiso   1.00
H436   H     0.23028   0.74767   0.46453   0.00000  Uiso   1.00
H437   H     0.06336   0.90732   0.47880   0.00000  Uiso   1.00
H438   H     0.08313   0.89974   0.40694   0.00000  Uiso   1.00
H439   H     0.18413   0.82759   0.40082   0.00000  Uiso   1.00
H440   H     0.10685   0.85559   0.07386   0.00000  Uiso   1.00
H441   H     0.07133   0.88954   0.03964   0.00000  Uiso   1.00
H442   H     0.24006   0.73367   0.02451   0.00000  Uiso   1.00
H443   H     0.01187   0.88235   0.18610   0.00000  Uiso   1.00
H444   H     0.31770   0.80744   0.28333   0.00000  Uiso   1.00
H445   H     0.21131   0.67066   0.22357   0.00000  Uiso   1.00
H446   H     0.08474   0.67876   0.30644   0.00000  Uiso   1.00
H447   H     0.17858   0.89675   0.08029   0.00000  Uiso   1.00
H448   H     0.23109   0.74881   0.13287   0.00000  Uiso   1.00
O449   O     0.16667   0.83333   0.25000   0.00000  Uiso   1.00
O450   O     0.15693   0.79060   0.16625   0.00000  Uiso   1.00
O451   O     0.12687   0.87313   0.33749   0.00000  Uiso   1.00
O452   O     0.21088   0.84159   0.15877   0.00000  Uiso   1.00
O453   O     0.17198   0.82802   0.33749   0.00000  Uiso   1.00
O454   O     0.06379   0.87403   0.20040   0.00000  Uiso   1.00
O455   O     0.08426   0.96666   0.26254   0.00000  Uiso   1.00
O456   O     0.15330   0.88015   0.13411   0.00000  Uiso   1.00
O457   O     0.25056   0.71060   0.08419   0.00000  Uiso   1.00
O458   O     0.17849   0.74768   0.27821   0.00000  Uiso   1.00
O459   O     0.14581   0.92803   0.26767   0.00000  Uiso   1.00
O460   O     0.07452   0.79917   0.23607   0.00000  Uiso   1.00
O461   O     0.26785   0.85845   0.21806   0.00000  Uiso   1.00
O462   O     0.06990   0.85627   0.27820   0.00000  Uiso   1.00
O463   O     0.25440   0.81944   0.26768   0.00000  Uiso   1.00
O464   O     0.13800   0.73570   0.23607   0.00000  Uiso   1.00
O465   O     0.20437   0.92193   0.21806   0.00000  Uiso   1.00
Zn466  Zn    0.19244   0.80756   0.28278   0.00000  Uiso   1.00
Zn467  Zn    0.13459   0.79044   0.22258   0.00000  Uiso   1.00
Zn468  Zn    0.21166   0.86331   0.21188   0.00000  Uiso   1.00
Zn469  Zn    0.12798   0.87202   0.28277   0.00000  Uiso   1.00
C470   C     0.38562   0.82610   0.25931   0.00000  Uiso   1.00
C471   C     0.52645   0.79395   0.46020   0.00000  Uiso   1.00
C472   C     0.54427   0.77231   0.48062   0.00000  Uiso   1.00
C473   C     0.61451   0.84044   0.24096   0.00000  Uiso   1.00
C474   C     0.53776   0.78229   0.02101   0.00000  Uiso   1.00
C475   C     0.51312   0.81505   0.04169   0.00000  Uiso   1.00
C476   C     0.55560   0.75932   0.04075   0.00000  Uiso   1.00
C477   C     0.54964   0.76816   0.08127   0.00000  Uiso   1.00
C478   C     0.51348   0.82877   0.08127   0.00000  Uiso   1.00
C479   C     0.66112   0.84404   0.23656   0.00000  Uiso   1.00
C480   C     0.34077   0.82493   0.26104   0.00000  Uiso   1.00
C481   C     0.43421   0.88506   0.42132   0.00000  Uiso   1.00
C482   C     0.51387   0.98903   0.24036   0.00000  Uiso   1.00
C483   C     0.48199   0.67890   0.26094   0.00000  Uiso   1.00
C484   C     0.48937   0.72286   0.25823   0.00000  Uiso   1.00
C485   C     0.50979   0.94426   0.24143   0.00000  Uiso   1.00
C486   C     0.52117   0.81209   0.14405   0.00000  Uiso   1.00
C487   C     0.47870   0.85457   0.35609   0.00000  Uiso   1.00
C488   C     0.46780   0.86173   0.39929   0.00000  Uiso   1.00
C489   C     0.52887   0.80331   0.10150   0.00000  Uiso   1.00
C490   C     0.42281   0.88919   0.46228   0.00000  Uiso   1.00
C491   C     0.35804   0.86860   0.20528   0.00000  Uiso   1.00
C492   C     0.49020   0.84317   0.41865   0.00000  Uiso   1.00
C493   C     0.43625   0.99587   0.27919   0.00000  Uiso   1.00
C494   C     0.50414   0.87196   0.09908   0.00000  Uiso   1.00
C495   C     0.56679   0.74142   0.10180   0.00000  Uiso   1.00
C496   C     0.47817   0.84543   0.45992   0.00000  Uiso   1.00
C497   C     0.44438   0.86950   0.48172   0.00000  Uiso   1.00
C498   C     0.49871   0.82446   0.48006   0.00000  Uiso   1.00
C499   C     0.48918   0.83246   0.02173   0.00000  Uiso   1.00
C500   C     0.45338   0.85425   0.04233   0.00000  Uiso   1.00
C501   C     0.43170   0.87275   0.02266   0.00000  Uiso   1.00
H502   H     0.53274   0.78394   0.42914   0.00000  Uiso   1.00
H503   H     0.56362   0.74767   0.46453   0.00000  Uiso   1.00
H504   H     0.39669   0.90732   0.47880   0.00000  Uiso   1.00
H505   H     0.41646   0.89974   0.40694   0.00000  Uiso   1.00
H506   H     0.51747   0.82759   0.40082   0.00000  Uiso   1.00
H507   H     0.44018   0.85559   0.07386   0.00000  Uiso   1.00
H508   H     0.40467   0.88954   0.03964   0.00000  Uiso   1.00
H509   H     0.57339   0.73367   0.02451   0.00000  Uiso   1.00
H510   H     0.34520   0.88235   0.18610   0.00000  Uiso   1.00
H511   H     0.65103   0.80744   0.28333   0.00000  Uiso   1.00
H512   H     0.54464   0.67066   0.22357   0.00000  Uiso   1.00
H513   H     0.41807   0.67876   0.30644   0.00000  Uiso   1.00
H514   H     0.51192   0.89675   0.08029   0.00000  Uiso   1.00
H515   H     0.56442   0.74881   0.13287   0.00000  Uiso   1.00
O516   O     0.50000   0.83333   0.25000   0.00000  Uiso   1.00
O517   O     0.49027   0.79060   0.16625   0.00000  Uiso   1.00
O518   O     0.46020   0.87313   0.33749   0.00000  Uiso   1.00
O519   O     0.54421   0.84159   0.15877   0.00000  Uiso   1.00
O520   O     0.50532   0.82802   0.33749   0.00000  Uiso   1.00
O521   O     0.39713   0.87403   0.20040   0.00000  Uiso   1.00
O522   O     0.41759   0.96666   0.26254   0.00000  Uiso   1.00
O523   O     0.48663   0.88015   0.13411   0.00000  Uiso   1.00
O524   O     0.58390   0.71060   0.08419   0.00000  Uiso   1.00
O525   O     0.51182   0.74768   0.27821   0.00000  Uiso   1.00
O526   O     0.47914   0.92803   0.26767   0.00000  Uiso   1.00
O527   O     0.40785   0.79917   0.23607   0.00000  Uiso   1.00
O528   O     0.60119   0.85845   0.21806   0.00000  Uiso   1.00
O529   O     0.40323   0.85627   0.27820   0.00000  Uiso   1.00
O530   O     0.58773   0.81944   0.26768   0.00000  Uiso   1.00
O531   O     0.47133   0.73570   0.23607   0.00000  Uiso   1.00
O532   O     0.53771   0.92193   0.21806   0.00000  Uiso   1.00
Zn533  Zn    0.52577   0.80756   0.28278   0.00000  Uiso   1.00
Zn534  Zn    0.46792   0.79044   0.22258   0.00000  Uiso   1.00
Zn535  Zn    0.54500   0.86331   0.21188   0.00000  Uiso   1.00
Zn536  Zn    0.46131   0.87202   0.28277   0.00000  Uiso   1.00
C537   C     0.71896   0.82610   0.25931   0.00000  Uiso   1.00
C538   C     0.85979   0.79395   0.46020   0.00000  Uiso   1.00
C539   C     0.87761   0.77231   0.48062   0.00000  Uiso   1.00
C540   C     0.94784   0.84044   0.24096   0.00000  Uiso   1.00
C541   C     0.87110   0.78229   0.02101   0.00000  Uiso   1.00
C542   C     0.84645   0.81505   0.04169   0.00000  Uiso   1.00
C543   C     0.88893   0.75932   0.04075   0.00000  Uiso   1.00
C544   C     0.88298   0.76816   0.08127   0.00000  Uiso   1.00
C545   C     0.84681   0.82877   0.08127   0.00000  Uiso   1.00
C546   C     0.99445   0.84404   0.23656   0.00000  Uiso   1.00
C547   C     0.67410   0.82493   0.26104   0.00000  Uiso   1.00
C548   C     0.76754   0.88506   0.42132   0.00000  Uiso   1.00
C549   C     0.84720   0.98903   0.24036   0.00000  Uiso   1.00
C550   C     0.81533   0.67890   0.26094   0.00000  Uiso   1.00
C551   C     0.82270   0.72286   0.25823   0.00000  Uiso   1.00
C552   C     0.84312   0.94426   0.24143   0.00000  Uiso   1.00
C553   C     0.85450   0.81209   0.14405   0.00000  Uiso   1.00
C554   C     0.81204   0.85457   0.35609   0.00000  Uiso   1.00
C555   C     0.80113   0.86173   0.39929   0.00000  Uiso   1.00
C556   C     0.86220   0.80331   0.10150   0.00000  Uiso   1.00
C557   C     0.75615   0.88919   0.46228   0.00000  Uiso   1.00
C558   C     0.69137   0.86860   0.20528   0.00000  Uiso   1.00
C559   C     0.82354   0.84317   0.41865   0.00000  Uiso   1.00
C560   C     0.76958   0.99587   0.27919   0.00000  Uiso   1.00
C561   C     0.83747   0.87196   0.09908   0.00000  Uiso   1.00
C562   C     0.90013   0.74142   0.10180   0.00000  Uiso   1.00
C563   C     0.81150   0.84543   0.45992   0.00000  Uiso   1.00
C564   C     0.77772   0.86950   0.48172   0.00000  Uiso   1.00
C565   C     0.83205   0.82446   0.48006   0.00000  Uiso   1.00
C566   C     0.82252   0.83246   0.02173   0.00000  Uiso   1.00
C567   C     0.78671   0.85425   0.04233   0.00000  Uiso   1.00
C568   C     0.76503   0.87275   0.02266   0.00000  Uiso   1.00
H569   H     0.86607   0.78394   0.42914   0.00000  Uiso   1.00
H570   H     0.89695   0.74767   0.46453   0.00000  Uiso   1.00
H571   H     0.73002   0.90732   0.47880   0.00000  Uiso   1.00
H572   H     0.74980   0.89974   0.40694   0.00000  Uiso   1.00
H573   H     0.85080   0.82759   0.40082   0.00000  Uiso   1.00
H574   H     0.77352   0.85559   0.07386   0.00000  Uiso   1.00
H575   H     0.73800   0.88954   0.03964   0.00000  Uiso   1.00
H576   H     0.90672   0.73367   0.02451   0.00000  Uiso   1.00
H577   H     0.67854   0.88235   0.18610   0.00000  Uiso   1.00
H578   H     0.98437   0.80744   0.28333   0.00000  Uiso   1.00
H579   H     0.87797   0.67066   0.22357   0.00000  Uiso   1.00
H580   H     0.75141   0.67876   0.30644   0.00000  Uiso   1.00
H581   H     0.84525   0.89675   0.08029   0.00000  Uiso   1.00
H582   H     0.89775   0.74881   0.13287   0.00000  Uiso   1.00
O583   O     0.83333   0.83333   0.25000   0.00000  Uiso   1.00
O584   O     0.82360   0.79060   0.16625   0.00000  Uiso   1.00
O585   O     0.79354   0.87313   0.33749   0.00000  Uiso   1.00
O586   O     0.87755   0.84159   0.15877   0.00000  Uiso   1.00
O587   O     0.83865   0.82802   0.33749   0.00000  Uiso   1.00
O588   O     0.73046   0.87403   0.20040   0.00000  Uiso   1.00
O589   O     0.75092   0.96666   0.26254   0.00000  Uiso   1.00
O590   O     0.81997   0.88015   0.13411   0.00000  Uiso   1.00
O591   O     0.91723   0.71060   0.08419   0.00000  Uiso   1.00
O592   O     0.84515   0.74768   0.27821   0.00000  Uiso   1.00
O593   O     0.81247   0.92803   0.26767   0.00000  Uiso   1.00
O594   O     0.74119   0.79917   0.23607   0.00000  Uiso   1.00
O595   O     0.93452   0.85845   0.21806   0.00000  Uiso   1.00
O596   O     0.73656   0.85627   0.27820   0.00000  Uiso   1.00
O597   O     0.92106   0.81944   0.26768   0.00000  Uiso   1.00
O598   O     0.80467   0.73570   0.23607   0.00000  Uiso   1.00
O599   O     0.87104   0.92193   0.21806   0.00000  Uiso   1.00
Zn600  Zn    0.85910   0.80756   0.28278   0.00000  Uiso   1.00
Zn601  Zn    0.80125   0.79044   0.22258   0.00000  Uiso   1.00
Zn602  Zn    0.87833   0.86331   0.21188   0.00000  Uiso   1.00
Zn603  Zn    0.79465   0.87202   0.28277   0.00000  Uiso   1.00
C604   C     0.05229   0.15943   0.75931   0.00000  Uiso   1.00
C605   C     0.19312   0.12729   0.96020   0.00000  Uiso   1.00
C606   C     0.21094   0.10564   0.98062   0.00000  Uiso   1.00
C607   C     0.28118   0.17378   0.74096   0.00000  Uiso   1.00
C608   C     0.20443   0.11562   0.52101   0.00000  Uiso   1.00
C609   C     0.17979   0.14839   0.54169   0.00000  Uiso   1.00
C610   C     0.22227   0.09265   0.54075   0.00000  Uiso   1.00
C611   C     0.21631   0.10150   0.58127   0.00000  Uiso   1.00
C612   C     0.18014   0.16210   0.58127   0.00000  Uiso   1.00
C613   C     0.32778   0.17738   0.73656   0.00000  Uiso   1.00
C614   C     0.00744   0.15826   0.76104   0.00000  Uiso   1.00
C615   C     0.10088   0.21840   0.92132   0.00000  Uiso   1.00
C616   C     0.18054   0.32236   0.74036   0.00000  Uiso   1.00
C617   C     0.14866   0.01224   0.76094   0.00000  Uiso   1.00
C618   C     0.15603   0.05619   0.75823   0.00000  Uiso   1.00
C619   C     0.17645   0.27759   0.74143   0.00000  Uiso   1.00
C620   C     0.18783   0.14542   0.64405   0.00000  Uiso   1.00
C621   C     0.14537   0.18790   0.85609   0.00000  Uiso   1.00
C622   C     0.13446   0.19506   0.89929   0.00000  Uiso   1.00
C623   C     0.19553   0.13665   0.60150   0.00000  Uiso   1.00
C624   C     0.08948   0.22253   0.96228   0.00000  Uiso   1.00
C625   C     0.02470   0.20194   0.70528   0.00000  Uiso   1.00
C626   C     0.15687   0.17650   0.91865   0.00000  Uiso   1.00
C627   C     0.10291   0.32920   0.77919   0.00000  Uiso   1.00
C628   C     0.17080   0.20530   0.59908   0.00000  Uiso   1.00
C629   C     0.23346   0.07476   0.60180   0.00000  Uiso   1.00
C630   C     0.14484   0.17876   0.95992   0.00000  Uiso   1.00
C631   C     0.11105   0.20284   0.98172   0.00000  Uiso   1.00
C632   C     0.16538   0.15779   0.98006   0.00000  Uiso   1.00
C633   C     0.15585   0.16580   0.52173   0.00000  Uiso   1.00
C634   C     0.12005   0.18758   0.54233   0.00000  Uiso   1.00
C635   C     0.09836   0.20609   0.52266   0.00000  Uiso   1.00
H636   H     0.19940   0.11727   0.92914   0.00000  Uiso   1.00
H637   H     0.23028   0.08100   0.96453   0.00000  Uiso   1.00
H638   H     0.06336   0.24066   0.97880   0.00000  Uiso   1.00
H639   H     0.08313   0.23307   0.90694   0.00000  Uiso   1.00
H640   H     0.18413   0.16092   0.90082   0.00000  Uiso   1.00
H641   H     0.10685   0.18893   0.57386   0.00000  Uiso   1.00
H642   H     0.07133   0.22288   0.53964   0.00000  Uiso   1.00
H643   H     0.24006   0.06701   0.52451   0.00000  Uiso   1.00
H644   H     0.01187   0.21568   0.68610   0.00000  Uiso   1.00
H645   H     0.31770   0.14077   0.78333   0.00000  Uiso   1.00
H646   H     0.21131   0.00399   0.72357   0.00000  Uiso   1.00
H647   H     0.08474   0.01209   0.80644   0.00000  Uiso   1.00
H648   H     0.17858   0.23008   0.58029   0.00000  Uiso   1.00
H649   H     0.23109   0.08214   0.63287   0.00000  Uiso   1.00
O650   O     0.16667   0.16667   0.75000   0.00000  Uiso   1.00
O651   O     0.15693   0.12393   0.66625   0.00000  Uiso   1.00
O652   O     0.12687   0.20646   0.83749   0.00000  Uiso   1.00
O653   O     0.21088   0.17493   0.65877   0.00000  Uiso   1.00
O654   O     0.17198   0.16135   0.83749   0.00000  Uiso   1.00
O655   O     0.06379   0.20737   0.70040   0.00000  Uiso   1.00
O656   O     0.08426   0.30000   0.76254   0.00000  Uiso   1.00
O657   O     0.15330   0.21348   0.63411   0.00000  Uiso   1.00
O658   O     0.25056   0.04393   0.58419   0.00000  Uiso   1.00
O659   O     0.17849   0.08101   0.77821   0.00000  Uiso   1.00
O660   O     0.14581   0.26136   0.76767   0.00000  Uiso   1.00
O661   O     0.07452   0.13251   0.73607   0.00000  Uiso   1.00
O662   O     0.26785   0.19179   0.71806   0.00000  Uiso   1.00
O663   O     0.06990   0.18960   0.77820   0.00000  Uiso   1.00
O664   O     0.25440   0.15277   0.76768   0.00000  Uiso   1.00
O665   O     0.13800   0.06903   0.73607   0.00000  Uiso   1.00
O666   O     0.20437   0.25527   0.71806   0.00000  Uiso   1.00
Zn667  Zn    0.19244   0.14090   0.78278   0.00000  Uiso   1.00
Zn668  Zn    0.13459   0.12378   0.72258   0.00000  Uiso   1.00
Zn669  Zn    0.21166   0.19664   0.71188   0.00000  Uiso   1.00
Zn670  Zn    0.12798   0.20535   0.78277   0.00000  Uiso   1.00
C671   C     0.38562   0.15943   0.75931   0.00000  Uiso   1.00
C672   C     0.52645   0.12729   0.96020   0.00000  Uiso   1.00
C673   C     0.54427   0.10564   0.98062   0.00000  Uiso   1.00
C674   C     0.61451   0.17378   0.74096   0.00000  Uiso   1.00
C675   C     0.53776   0.11562   0.52101   0.00000  Uiso   1.00
C676   C     0.51312   0.14839   0.54169   0.00000  Uiso   1.00
C677   C     0.55560   0.09265   0.54075   0.00000  Uiso   1.00
C678   C     0.54964   0.10150   0.58127   0.00000  Uiso   1.00
C679   C     0.51348   0.16210   0.58127   0.00000  Uiso   1.00
C680   C     0.66112   0.17738   0.73656   0.00000  Uiso   1.00
C681   C     0.34077   0.15826   0.76104   0.00000  Uiso   1.00
C682   C     0.43421   0.21840   0.92132   0.00000  Uiso   1.00
C683   C     0.51387   0.32236   0.74036   0.00000  Uiso   1.00
C684   C     0.48199   0.01224   0.76094   0.00000  Uiso   1.00
C685   C     0.48937   0.05619   0.75823   0.00000  Uiso   1.00
C686   C     0.50979   0.27759   0.74143   0.00000  Uiso   1.00
C687   C     0.52117   0.14542   0.64405   0.00000  Uiso   1.00
C688   C     0.47870   0.18790   0.85609   0.00000  Uiso   1.00
C689   C     0.46780   0.19506   0.89929   0.00000  Uiso   1.00
C690   C     0.52887   0.13665   0.60150   0.00000  Uiso   1.00
C691   C     0.42281   0.22253   0.96228   0.00000  Uiso   1.00
C692   C     0.35804   0.20194   0.70528   0.00000  Uiso   1.00
C693   C     0.49020   0.17650   0.91865   0.00000  Uiso   1.00
C694   C     0.43625   0.32920   0.77919   0.00000  Uiso   1.00
C695   C     0.50414   0.20530   0.59908   0.00000  Uiso   1.00
C696   C     0.56679   0.07476   0.60180   0.00000  Uiso   1.00
C697   C     0.47817   0.17876   0.95992   0.00000  Uiso   1.00
C698   C     0.44438   0.20284   0.98172   0.00000  Uiso   1.00
C699   C     0.49871   0.15779   0.98006   0.00000  Uiso   1.00
C700   C     0.48918   0.16580   0.52173   0.00000  Uiso   1.00
C701   C     0.45338   0.18758   0.54233   0.00000  Uiso   1.00
C702   C     0.43170   0.20609   0.52266   0.00000  Uiso   1.00
H703   H     0.53274   0.11727   0.92914   0.00000  Uiso   1.00
H704   H     0.56362   0.08100   0.96453   0.00000  Uiso   1.00
H705   H     0.39669   0.24066   0.97880   0.00000  Uiso   1.00
H706   H     0.41646   0.23307   0.90694   0.00000  Uiso   1.00
H707   H     0.51747   0.16092   0.90082   0.00000  Uiso   1.00
H708   H     0.44018   0.18893   0.57386   0.00000  Uiso   1.00
H709   H     0.40467   0.22288   0.53964   0.00000  Uiso   1.00
H710   H     0.57339   0.06701   0.52451   0.00000  Uiso   1.00
H711   H     0.34520   0.21568   0.68610   0.00000  Uiso   1.00
H712   H     0.65103   0.14077   0.78333   0.00000  Uiso   1.00
H713   H     0.54464   0.00399   0.72357   0.00000  Uiso   1.00
H714   H     0.41807   0.01209   0.80644   0.00000  Uiso   1.00
H715   H     0.51192   0.23008   0.58029   0.00000  Uiso   1.00
H716   H     0.56442   0.08214   0.63287   0.00000  Uiso   1.00
O717   O     0.50000   0.16667   0.75000   0.00000  Uiso   1.00
O718   O     0.49027   0.12393   0.66625   0.00000  Uiso   1.00
O719   O     0.46020   0.20646   0.83749   0.00000  Uiso   1.00
O720   O     0.54421   0.17493   0.65877   0.00000  Uiso   1.00
O721   O     0.50532   0.16135   0.83749   0.00000  Uiso   1.00
O722   O     0.39713   0.20737   0.70040   0.00000  Uiso   1.00
O723   O     0.41759   0.30000   0.76254   0.00000  Uiso   1.00
O724   O     0.48663   0.21348   0.63411   0.00000  Uiso   1.00
O725   O     0.58390   0.04393   0.58419   0.00000  Uiso   1.00
O726   O     0.51182   0.08101   0.77821   0.00000  Uiso   1.00
O727   O     0.47914   0.26136   0.76767   0.00000  Uiso   1.00
O728   O     0.40785   0.13251   0.73607   0.00000  Uiso   1.00
O729   O     0.60119   0.19179   0.71806   0.00000  Uiso   1.00
O730   O     0.40323   0.18960   0.77820   0.00000  Uiso   1.00
O731   O     0.58773   0.15277   0.76768   0.00000  Uiso   1.00
O732   O     0.47133   0.06903   0.73607   0.00000  Uiso   1.00
O733   O     0.53771   0.25527   0.71806   0.00000  Uiso   1.00
Zn734  Zn    0.52577   0.14090   0.78278   0.00000  Uiso   1.00
Zn735  Zn    0.46792   0.12378   0.72258   0.00000  Uiso   1.00
Zn736  Zn    0.54500   0.19664   0.71188   0.00000  Uiso   1.00
Zn737  Zn    0.46131   0.20535   0.78277   0.00000  Uiso   1.00
C738   C     0.71896   0.15943   0.75931   0.00000  Uiso   1.00
C739   C     0.85979   0.12729   0.96020   0.00000  Uiso   1.00
C740   C     0.87761   0.10564   0.98062   0.00000  Uiso   1.00
C741   C     0.94784   0.17378   0.74096   0.00000  Uiso   1.00
C742   C     0.87110   0.11562   0.52101   0.00000  Uiso   1.00
C743   C     0.84645   0.14839   0.54169   0.00000  Uiso   1.00
C744   C     0.88893   0.09265   0.54075   0.00000  Uiso   1.00
C745   C     0.88298   0.10150   0.58127   0.00000  Uiso   1.00
C746   C     0.84681   0.16210   0.58127   0.00000  Uiso   1.00
C747   C     0.99445   0.17738   0.73656   0.00000  Uiso   1.00
C748   C     0.67410   0.15826   0.76104   0.00000  Uiso   1.00
C749   C     0.76754   0.21840   0.92132   0.00000  Uiso   1.00
C750   C     0.84720   0.32236   0.74036   0.00000  Uiso   1.00
C751   C     0.81533   0.01224   0.76094   0.00000  Uiso   1.00
C752   C     0.82270   0.05619   0.75823   0.00000  Uiso   1.00
C753   C     0.84312   0.27759   0.74143   0.00000  Uiso   1.00
C754   C     0.85450   0.14542   0.64405   0.00000  Uiso   1.00
C755   C     0.81204   0.18790   0.85609   0.00000  Uiso   1.00
C756   C     0.80113   0.19506   0.89929   0.00000  Uiso   1.00
C757   C     0.86220   0.13665   0.60150   0.00000  Uiso   1.00
C758   C     0.75615   0.22253   0.96228   0.00000  Uiso   1.00
C759   C     0.69137   0.20194   0.70528   0.00000  Uiso   1.00
C760   C     0.82354   0.17650   0.91865   0.00000  Uiso   1.00
C761   C     0.76958   0.32920   0.77919   0.00000  Uiso   1.00
C762   C     0.83747   0.20530   0.59908   0.00000  Uiso   1.00
C763   C     0.90013   0.07476   0.60180   0.00000  Uiso   1.00
C764   C     0.81150   0.17876   0.95992   0.00000  Uiso   1.00
C765   C     0.77772   0.20284   0.98172   0.00000  Uiso   1.00
C766   C     0.83205   0.15779   0.98006   0.00000  Uiso   1.00
C767   C     0.82252   0.16580   0.52173   0.00000  Uiso   1.00
C768   C     0.78671   0.18758   0.54233   0.00000  Uiso   1.00
C769   C     0.76503   0.20609   0.52266   0.00000  Uiso   1.00
H770   H     0.86607   0.11727   0.92914   0.00000  Uiso   1.00
H771   H     0.89695   0.08100   0.96453   0.00000  Uiso   1.00
H772   H     0.73002   0.24066   0.97880   0.00000  Uiso   1.00
H773   H     0.74980   0.23307   0.90694   0.00000  Uiso   1.00
H774   H     0.85080   0.16092   0.90082   0.00000  Uiso   1.00
H775   H     0.77352   0.18893   0.57386   0.00000  Uiso   1.00
H776   H     0.73800   0.22288   0.53964   0.00000  Uiso   1.00
H777   H     0.90672   0.06701   0.52451   0.00000  Uiso   1.00
H778   H     0.67854   0.21568   0.68610   0.00000  Uiso   1.00
H779   H     0.98437   0.14077   0.78333   0.00000  Uiso   1.00
H780   H     0.87797   0.00399   0.72357   0.00000  Uiso   1.00
H781   H     0.75141   0.01209   0.80644   0.00000  Uiso   1.00
H782   H     0.84525   0.23008   0.58029   0.00000  Uiso   1.00
H783   H     0.89775   0.08214   0.63287   0.00000  Uiso   1.00
O784   O     0.83333   0.16667   0.75000   0.00000  Uiso   1.00
O785   O     0.82360   0.12393   0.66625   0.00000  Uiso   1.00
O786   O     0.79354   0.20646   0.83749   0.00000  Uiso   1.00
O787   O     0.87755   0.17493   0.65877   0.00000  Uiso   1.00
O788   O     0.83865   0.16135   0.83749   0.00000  Uiso   1.00
O789   O     0.73046   0.20737   0.70040   0.00000  Uiso   1.00
O790   O     0.75092   0.30000   0.76254   0.00000  Uiso   1.00
O791   O     0.81997   0.21348   0.63411   0.00000  Uiso   1.00
O792   O     0.91723   0.04393   0.58419   0.00000  Uiso   1.00
O793   O     0.84515   0.08101   0.77821   0.00000  Uiso   1.00
O794   O     0.81247   0.26136   0.76767   0.00000  Uiso   1.00
O795   O     0.74119   0.13251   0.73607   0.00000  Uiso   1.00
O796   O     0.93452   0.19179   0.71806   0.00000  Uiso   1.00
O797   O     0.73656   0.18960   0.77820   0.00000  Uiso   1.00
O798   O     0.92106   0.15277   0.76768   0.00000  Uiso   1.00
O799   O     0.80467   0.06903   0.73607   0.00000  Uiso   1.00
O800   O     0.87104   0.25527   0.71806   0.00000  Uiso   1.00
Zn801  Zn    0.85910   0.14090   0.78278   0.00000  Uiso   1.00
Zn802  Zn    0.80125   0.12378   0.72258   0.00000  Uiso   1.00
Zn803  Zn    0.87833   0.19664   0.71188   0.00000  Uiso   1.00
Zn804  Zn    0.79465   0.20535   0.78277   0.00000  Uiso   1.00
C805   C     0.05229   0.49276   0.75931   0.00000  Uiso   1.00
C806   C     0.19312   0.46062   0.96020   0.00000  Uiso   1.00
C807   C     0.21094   0.43897   0.98062   0.00000  Uiso   1.00
C808   C     0.28118   0.50711   0.74096   0.00000  Uiso   1.00
C809   C     0.20443   0.44895   0.52101   0.00000  Uiso   1.00
C810   C     0.17979   0.48172   0.54169   0.00000  Uiso   1.00
C811   C     0.22227   0.42599   0.54075   0.00000  Uiso   1.00
C812   C     0.21631   0.43483   0.58127   0.00000  Uiso   1.00
C813   C     0.18014   0.49543   0.58127   0.00000  Uiso   1.00
C814   C     0.32778   0.51071   0.73656   0.00000  Uiso   1.00
C815   C     0.00744   0.49160   0.76104   0.00000  Uiso   1.00
C816   C     0.10088   0.55173   0.92132   0.00000  Uiso   1.00
C817   C     0.18054   0.65569   0.74036   0.00000  Uiso   1.00
C818   C     0.14866   0.34557   0.76094   0.00000  Uiso   1.00
C819   C     0.15603   0.38953   0.75823   0.00000  Uiso   1.00
C820   C     0.17645   0.61092   0.74143   0.00000  Uiso   1.00
C821   C     0.18783   0.47875   0.64405   0.00000  Uiso   1.00
C822   C     0.14537   0.52123   0.85609   0.00000  Uiso   1.00
C823   C     0.13446   0.52839   0.89929   0.00000  Uiso   1.00
C824   C     0.19553   0.46998   0.60150   0.00000  Uiso   1.00
C825   C     0.08948   0.55586   0.96228   0.00000  Uiso   1.00
C826   C     0.02470   0.53527   0.70528   0.00000  Uiso   1.00
C827   C     0.15687   0.50983   0.91865   0.00000  Uiso   1.00
C828   C     0.10291   0.66253   0.77919   0.00000  Uiso   1.00
C829   C     0.17080   0.53863   0.59908   0.00000  Uiso   1.00
C830   C     0.23346   0.40809   0.60180   0.00000  Uiso   1.00
C831   C     0.14484   0.51210   0.95992   0.00000  Uiso   1.00
C832   C     0.11105   0.53617   0.98172   0.00000  Uiso   1.00
C833   C     0.16538   0.49113   0.98006   0.00000  Uiso   1.00
C834   C     0.15585   0.49913   0.52173   0.00000  Uiso   1.00
C835   C     0.12005   0.52091   0.54233   0.00000  Uiso   1.00
C836   C     0.09836   0.53942   0.52266   0.00000  Uiso   1.00
H837   H     0.19940   0.45061   0.92914   0.00000  Uiso   1.00
H838   H     0.23028   0.41434   0.96453   0.00000  Uiso   1.00
H839   H     0.06336   0.57399   0.97880   0.00000  Uiso   1.00
H840   H     0.08313   0.56640   0.90694   0.00000  Uiso   1.00
H841   H     0.18413   0.49425   0.90082   0.00000  Uiso   1.00
H842   H     0.10685   0.52226   0.57386   0.00000  Uiso   1.00
H843   H     0.07133   0.55621   0.53964   0.00000  Uiso   1.00
H844   H     0.24006   0.40034   0.52451   0.00000  Uiso   1.00
H845   H     0.01187   0.54902   0.68610   0.00000  Uiso   1.00
H846   H     0.31770   0.47410   0.78333   0.00000  Uiso   1.00
H847   H     0.21131   0.33732   0.72357   0.00000  Uiso   1.00
H848   H     0.08474   0.34542   0.80644   0.00000  Uiso   1.00
H849   H     0.17858   0.56342   0.58029   0.00000  Uiso   1.00
H850   H     0.23109   0.41547   0.63287   0.00000  Uiso   1.00
O851   O     0.16667   0.50000   0.75000   0.00000  Uiso   1.00
O852   O     0.15693   0.45726   0.66625   0.00000  Uiso   1.00
O853   O     0.12687   0.53979   0.83749   0.00000  Uiso   1.00
O854   O     0.21088   0.50826   0.65877   0.00000  Uiso   1.00
O855   O     0.17198   0.49468   0.83749   0.00000  Uiso   1.00
O856   O     0.06379   0.54070   0.70040   0.00000  Uiso   1.00
O857   O     0.08426   0.63333   0.76254   0.00000  Uiso   1.00
O858   O     0.15330   0.54681   0.63411   0.00000  Uiso   1.00
O859   O     0.25056   0.37726   0.58419   0.00000  Uiso   1.00
O860   O     0.17849   0.41434   0.77821   0.00000  Uiso   1.00
O861   O     0.14581   0.59469   0.76767   0.00000  Uiso   1.00
O862   O     0.07452   0.46584   0.73607   0.00000  Uiso   1.00
O863   O     0.26785   0.52512   0.71806   0.00000  Uiso   1.00
O864   O     0.06990   0.52293   0.77820   0.00000  Uiso   1.00
O865   O     0.25440   0.48610   0.76768   0.00000  Uiso   1.00
O866   O     0.13800   0.40236   0.73607   0.00000  Uiso   1.00
O867   O     0.20437   0.58860   0.71806   0.00000  Uiso   1.00
Zn868  Zn    0.19244   0.47423   0.78278   0.00000  Uiso   1.00
Zn869  Zn    0.13459   0.45711   0.72258   0.00000  Uiso   1.00
Zn870  Zn    0.21166   0.52997   0.71188   0.00000  Uiso   1.00
Zn871  Zn    0.12798   0.53868   0.78277   0.00000  Uiso   1.00
C872   C     0.38562   0.49276   0.75931   0.00000  Uiso   1.00
C873   C     0.52645   0.46062   0.96020   0.00000  Uiso   1.00
C874   C     0.54427   0.43897   0.98062   0.00000  Uiso   1.00
C875   C     0.61451   0.50711   0.74096   0.00000  Uiso   1.00
C876   C     0.53776   0.44895   0.52101   0.00000  Uiso   1.00
C877   C     0.51312   0.48172   0.54169   0.00000  Uiso   1.00
C878   C     0.55560   0.42599   0.54075   0.00000  Uiso   1.00
C879   C     0.54964   0.43483   0.58127   0.00000  Uiso   1.00
C880   C     0.51348   0.49543   0.58127   0.00000  Uiso   1.00
C881   C     0.66112   0.51071   0.73656   0.00000  Uiso   1.00
C882   C     0.34077   0.49160   0.76104   0.00000  Uiso   1.00
C883   C     0.43421   0.55173   0.92132   0.00000  Uiso   1.00
C884   C     0.51387   0.65569   0.74036   0.00000  Uiso   1.00
C885   C     0.48199   0.34557   0.76094   0.00000  Uiso   1.00
C886   C     0.48937   0.38953   0.75823   0.00000  Uiso   1.00
C887   C     0.50979   0.61092   0.74143   0.00000  Uiso   1.00
C888   C     0.52117   0.47875   0.64405   0.00000  Uiso   1.00
C889   C     0.47870   0.52123   0.85609   0.00000  Uiso   1.00
C890   C     0.46780   0.52839   0.89929   0.00000  Uiso   1.00
C891   C     0.52887   0.46998   0.60150   0.00000  Uiso   1.00
C892   C     0.42281   0.55586   0.96228   0.00000  Uiso   1.00
C893   C     0.35804   0.53527   0.70528   0.00000  Uiso   1.00
C894   C     0.49020   0.50983   0.91865   0.00000  Uiso   1.00
C895   C     0.43625   0.66253   0.77919   0.00000  Uiso   1.00
C896   C     0.50414   0.53863   0.59908   0.00000  Uiso   1.00
C897   C     0.56679   0.40809   0.60180   0.00000  Uiso   1.00
C898   C     0.47817   0.51210   0.95992   0.00000  Uiso   1.00
C899   C     0.44438   0.53617   0.98172   0.00000  Uiso   1.00
C900   C     0.49871   0.49113   0.98006   0.00000  Uiso   1.00
C901   C     0.48918   0.49913   0.52173   0.00000  Uiso   1.00
C902   C     0.45338   0.52091   0.54233   0.00000  Uiso   1.00
C903   C     0.43170   0.53942   0.52266   0.00000  Uiso   1.00
H904   H     0.53274   0.45061   0.92914   0.00000  Uiso   1.00
H905   H     0.56362   0.41434   0.96453   0.00000  Uiso   1.00
H906   H     0.39669   0.57399   0.97880   0.00000  Uiso   1.00
H907   H     0.41646   0.56640   0.90694   0.00000  Uiso   1.00
H908   H     0.51747   0.49425   0.90082   0.00000  Uiso   1.00
H909   H     0.44018   0.52226   0.57386   0.00000  Uiso   1.00
H910   H     0.40467   0.55621   0.53964   0.00000  Uiso   1.00
H911   H     0.57339   0.40034   0.52451   0.00000  Uiso   1.00
H912   H     0.34520   0.54902   0.68610   0.00000  Uiso   1.00
H913   H     0.65103   0.47410   0.78333   0.00000  Uiso   1.00
H914   H     0.54464   0.33732   0.72357   0.00000  Uiso   1.00
H915   H     0.41807   0.34542   0.80644   0.00000  Uiso   1.00
H916   H     0.51192   0.56342   0.58029   0.00000  Uiso   1.00
H917   H     0.56442   0.41547   0.63287   0.00000  Uiso   1.00
O918   O     0.50000   0.50000   0.75000   0.00000  Uiso   1.00
O919   O     0.49027   0.45726   0.66625   0.00000  Uiso   1.00
O920   O     0.46020   0.53979   0.83749   0.00000  Uiso   1.00
O921   O     0.54421   0.50826   0.65877   0.00000  Uiso   1.00
O922   O     0.50532   0.49468   0.83749   0.00000  Uiso   1.00
O923   O     0.39713   0.54070   0.70040   0.00000  Uiso   1.00
O924   O     0.41759   0.63333   0.76254   0.00000  Uiso   1.00
O925   O     0.48663   0.54681   0.63411   0.00000  Uiso   1.00
O926   O     0.58390   0.37726   0.58419   0.00000  Uiso   1.00
O927   O     0.51182   0.41434   0.77821   0.00000  Uiso   1.00
O928   O     0.47914   0.59469   0.76767   0.00000  Uiso   1.00
O929   O     0.40785   0.46584   0.73607   0.00000  Uiso   1.00
O930   O     0.60119   0.52512   0.71806   0.00000  Uiso   1.00
O931   O     0.40323   0.52293   0.77820   0.00000  Uiso   1.00
O932   O     0.58773   0.48610   0.76768   0.00000  Uiso   1.00
O933   O     0.47133   0.40236   0.73607   0.00000  Uiso   1.00
O934   O     0.53771   0.58860   0.71806   0.00000  Uiso   1.00
Zn935  Zn    0.52577   0.47423   0.78278   0.00000  Uiso   1.00
Zn936  Zn    0.46792   0.45711   0.72258   0.00000  Uiso   1.00
Zn937  Zn    0.54500   0.52997   0.71188   0.00000  Uiso   1.00
Zn938  Zn    0.46131   0.53868   0.78277   0.00000  Uiso   1.00
C939   C     0.71896   0.49276   0.75931   0.00000  Uiso   1.00
C940   C     0.85979   0.46062   0.96020   0.00000  Uiso   1.00
C941   C     0.87761   0.43897   0.98062   0.00000  Uiso   1.00
C942   C     0.94784   0.50711   0.74096   0.00000  Uiso   1.00
C943   C     0.87110   0.44895   0.52101   0.00000  Uiso   1.00
C944   C     0.84645   0.48172   0.54169   0.00000  Uiso   1.00
C945   C     0.88893   0.42599   0.54075   0.00000  Uiso   1.00
C946   C     0.88298   0.43483   0.58127   0.00000  Uiso   1.00
C947   C     0.84681   0.49543   0.58127   0.00000  Uiso   1.00
C948   C     0.99445   0.51071   0.73656   0.00000  Uiso   1.00
C949   C     0.67410   0.49160   0.76104   0.00000  Uiso   1.00
C950   C     0.76754   0.55173   0.92132   0.00000  Uiso   1.00
C951   C     0.84720   0.65569   0.74036   0.00000  Uiso   1.00
C952   C     0.81533   0.34557   0.76094   0.00000  Uiso   1.00
C953   C     0.82270   0.38953   0.75823   0.00000  Uiso   1.00
C954   C     0.84312   0.61092   0.74143   0.00000  Uiso   1.00
C955   C     0.85450   0.47875   0.64405   0.00000  Uiso   1.00
C956   C     0.81204   0.52123   0.85609   0.00000  Uiso   1.00
C957   C     0.80113   0.52839   0.89929   0.00000  Uiso   1.00
C958   C     0.86220   0.46998   0.60150   0.00000  Uiso   1.00
C959   C     0.75615   0.55586   0.96228   0.00000  Uiso   1.00
C960   C     0.69137   0.53527   0.70528   0.00000  Uiso   1.00
C961   C     0.82354   0.50983   0.91865   0.00000  Uiso   1.00
C962   C     0.76958   0.66253   0.77919   0.00000  Uiso   1.00
C963   C     0.83747   0.53863   0.59908   0.00000  Uiso   1.00
C964   C     0.90013   0.40809   0.60180   0.00000  Uiso   1.00
C965   C     0.81150   0.51210   0.95992   0.00000  Uiso   1.00
C966   C     0.77772   0.53617   0.98172   0.00000  Uiso   1.00
C967   C     0.83205   0.49113   0.98006   0.00000  Uiso   1.00
C968   C     0.82252   0.49913   0.52173   0.00000  Uiso   1.00
C969   C     0.78671   0.52091   0.54233   0.00000  Uiso   1.00
C970   C     0.76503   0.53942   0.52266   0.00000  Uiso   1.00
H971   H     0.86607   0.45061   0.92914   0.00000  Uiso   1.00
H972   H     0.89695   0.41434   0.96453   0.00000  Uiso   1.00
H973   H     0.73002   0.57399   0.97880   0.00000  Uiso   1.00
H974   H     0.74980   0.56640   0.90694   0.00000  Uiso   1.00
H975   H     0.85080   0.49425   0.90082   0.00000  Uiso   1.00
H976   H     0.77352   0.52226   0.57386   0.00000  Uiso   1.00
H977   H     0.73800   0.55621   0.53964   0.00000  Uiso   1.00
H978   H     0.90672   0.40034   0.52451   0.00000  Uiso   1.00
H979   H     0.67854   0.54902   0.68610   0.00000  Uiso   1.00
H980   H     0.98437   0.47410   0.78333   0.00000  Uiso   1.00
H981   H     0.87797   0.33732   0.72357   0.00000  Uiso   1.00
H982   H     0.75141   0.34542   0.80644   0.00000  Uiso   1.00
H983   H     0.84525   0.56342   0.58029   0.00000  Uiso   1.00
H984   H     0.89775   0.41547   0.63287   0.00000  Uiso   1.00
O985   O     0.83333   0.50000   0.75000   0.00000  Uiso   1.00
O986   O     0.82360   0.45726   0.66625   0.00000  Uiso   1.00
O987   O     0.79354   0.53979   0.83749   0.00000  Uiso   1.00
O988   O     0.87755   0.50826   0.65877   0.00000  Uiso   1.00
O989   O     0.83865   0.49468   0.83749   0.00000  Uiso   1.00
O990   O     0.73046   0.54070   0.70040   0.00000  Uiso   1.00
O991   O     0.75092   0.63333   0.76254   0.00000  Uiso   1.00
O992   O     0.81997   0.54681   0.63411   0.00000  Uiso   1.00
O993   O     0.91723   0.37726   0.58419   0.00000  Uiso   1.00
O994   O     0.84515   0.41434   0.77821   0.00000  Uiso   1.00
O995   O     0.81247   0.59469   0.76767   0.00000  Uiso   1.00
O996   O     0.74119   0.46584   0.73607   0.00000  Uiso   1.00
O997   O     0.93452   0.52512   0.71806   0.00000  Uiso   1.00
O998   O     0.73656   0.52293   0.77820   0.00000  Uiso   1.00
O999   O     0.92106   0.48610   0.76768   0.00000  Uiso   1.00
O1000  O     0.80467   0.40236   0.73607   0.00000  Uiso   1.00
O1001  O     0.87104   0.58860   0.71806   0.00000  Uiso   1.00
Zn1002 Zn    0.85910   0.47423   0.78278   0.00000  Uiso   1.00
Zn1003 Zn    0.80125   0.45711   0.72258   0.00000  Uiso   1.00
Zn1004 Zn    0.87833   0.52997   0.71188   0.00000  Uiso   1.00
Zn1005 Zn    0.79465   0.53868   0.78277   0.00000  Uiso   1.00
C1006  C     0.05229   0.82610   0.75931   0.00000  Uiso   1.00
C1007  C     0.19312   0.79395   0.96020   0.00000  Uiso   1.00
C1008  C     0.21094   0.77231   0.98062   0.00000  Uiso   1.00
C1009  C     0.28118   0.84044   0.74096   0.00000  Uiso   1.00
C1010  C     0.20443   0.78229   0.52101   0.00000  Uiso   1.00
C1011  C     0.17979   0.81505   0.54169   0.00000  Uiso   1.00
C1012  C     0.22227   0.75932   0.54075   0.00000  Uiso   1.00
C1013  C     0.21631   0.76816   0.58127   0.00000  Uiso   1.00
C1014  C     0.18014   0.82877   0.58127   0.00000  Uiso   1.00
C1015  C     0.32778   0.84404   0.73656   0.00000  Uiso   1.00
C1016  C     0.00744   0.82493   0.76104   0.00000  Uiso   1.00
C1017  C     0.10088   0.88506   0.92132   0.00000  Uiso   1.00
C1018  C     0.18054   0.98903   0.74036   0.00000  Uiso   1.00
C1019  C     0.14866   0.67890   0.76094   0.00000  Uiso   1.00
C1020  C     0.15603   0.72286   0.75823   0.00000  Uiso   1.00
C1021  C     0.17645   0.94426   0.74143   0.00000  Uiso   1.00
C1022  C     0.18783   0.81209   0.64405   0.00000  Uiso   1.00
C1023  C     0.14537   0.85457   0.85609   0.00000  Uiso   1.00
C1024  C     0.13446   0.86173   0.89929   0.00000  Uiso   1.00
C1025  C     0.19553   0.80331   0.60150   0.00000  Uiso   1.00
C1026  C     0.08948   0.88919   0.96228   0.00000  Uiso   1.00
C1027  C     0.02470   0.86860   0.70528   0.00000  Uiso   1.00
C1028  C     0.15687   0.84317   0.91865   0.00000  Uiso   1.00
C1029  C     0.10291   0.99587   0.77919   0.00000  Uiso   1.00
C1030  C     0.17080   0.87196   0.59908   0.00000  Uiso   1.00
C1031  C     0.23346   0.74142   0.60180   0.00000  Uiso   1.00
C1032  C     0.14484   0.84543   0.95992   0.00000  Uiso   1.00
C1033  C     0.11105   0.86950   0.98172   0.00000  Uiso   1.00
C1034  C     0.16538   0.82446   0.98006   0.00000  Uiso   1.00
C1035  C     0.15585   0.83246   0.52173   0.00000  Uiso   1.00
C1036  C     0.12005   0.85425   0.54233   0.00000  Uiso   1.00
C1037  C     0.09836   0.87275   0.52266   0.00000  Uiso   1.00
H1038  H     0.19940   0.78394   0.92914   0.00000  Uiso   1.00
H1039  H     0.23028   0.74767   0.96453   0.00000  Uiso   1.00
H1040  H     0.06336   0.90732   0.97880   0.00000  Uiso   1.00
H1041  H     0.08313   0.89974   0.90694   0.00000  Uiso   1.00
H1042  H     0.18413   0.82759   0.90082   0.00000  Uiso   1.00
H1043  H     0.10685   0.85559   0.57386   0.00000  Uiso   1.00
H1044  H     0.07133   0.88954   0.53964   0.00000  Uiso   1.00
H1045  H     0.24006   0.73367   0.52451   0.00000  Uiso   1.00
H1046  H     0.01187   0.88235   0.68610   0.00000  Uiso   1.00
H1047  H     0.31770   0.80744   0.78333   0.00000  Uiso   1.00
H1048  H     0.21131   0.67066   0.72357   0.00000  Uiso   1.00
H1049  H     0.08474   0.67876   0.80644   0.00000  Uiso   1.00
H1050  H     0.17858   0.89675   0.58029   0.00000  Uiso   1.00
H1051  H     0.23109   0.74881   0.63287   0.00000  Uiso   1.00
O1052  O     0.16667   0.83333   0.75000   0.00000  Uiso   1.00
O1053  O     0.15693   0.79060   0.66625   0.00000  Uiso   1.00
O1054  O     0.12687   0.87313   0.83749   0.00000  Uiso   1.00
O1055  O     0.21088   0.84159   0.65877   0.00000  Uiso   1.00
O1056  O     0.17198   0.82802   0.83749   0.00000  Uiso   1.00
O1057  O     0.06379   0.87403   0.70040   0.00000  Uiso   1.00
O1058  O     0.08426   0.96666   0.76254   0.00000  Uiso   1.00
O1059  O     0.15330   0.88015   0.63411   0.00000  Uiso   1.00
O1060  O     0.25056   0.71060   0.58419   0.00000  Uiso   1.00
O1061  O     0.17849   0.74768   0.77821   0.00000  Uiso   1.00
O1062  O     0.14581   0.92803   0.76767   0.00000  Uiso   1.00
O1063  O     0.07452   0.79917   0.73607   0.00000  Uiso   1.00
O1064  O     0.26785   0.85845   0.71806   0.00000  Uiso   1.00
O1065  O     0.06990   0.85627   0.77820   0.00000  Uiso   1.00
O1066  O     0.25440   0.81944   0.76768   0.00000  Uiso   1.00
O1067  O     0.13800   0.73570   0.73607   0.00000  Uiso   1.00
O1068  O     0.20437   0.92193   0.71806   0.00000  Uiso   1.00
Zn1069 Zn    0.19244   0.80756   0.78278   0.00000  Uiso   1.00
Zn1070 Zn    0.13459   0.79044   0.72258   0.00000  Uiso   1.00
Zn1071 Zn    0.21166   0.86331   0.71188   0.00000  Uiso   1.00
Zn1072 Zn    0.12798   0.87202   0.78277   0.00000  Uiso   1.00
C1073  C     0.38562   0.82610   0.75931   0.00000  Uiso   1.00
C1074  C     0.52645   0.79395   0.96020   0.00000  Uiso   1.00
C1075  C     0.54427   0.77231   0.98062   0.00000  Uiso   1.00
C1076  C     0.61451   0.84044   0.74096   0.00000  Uiso   1.00
C1077  C     0.53776   0.78229   0.52101   0.00000  Uiso   1.00
C1078  C     0.51312   0.81505   0.54169   0.00000  Uiso   1.00
C1079  C     0.55560   0.75932   0.54075   0.00000  Uiso   1.00
C1080  C     0.54964   0.76816   0.58127   0.00000  Uiso   1.00
C1081  C     0.51348   0.82877   0.58127   0.00000  Uiso   1.00
C1082  C     0.66112   0.84404   0.73656   0.00000  Uiso   1.00
C1083  C     0.34077   0.82493   0.76104   0.00000  Uiso   1.00
C1084  C     0.43421   0.88506   0.92132   0.00000  Uiso   1.00
C1085  C     0.51387   0.98903   0.74036   0.00000  Uiso   1.00
C1086  C     0.48199   0.67890   0.76094   0.00000  Uiso   1.00
C1087  C     0.48937   0.72286   0.75823   0.00000  Uiso   1.00
C1088  C     0.50979   0.94426   0.74143   0.00000  Uiso   1.00
C1089  C     0.52117   0.81209   0.64405   0.00000  Uiso   1.00
C1090  C     0.47870   0.85457   0.85609   0.00000  Uiso   1.00
C1091  C     0.46780   0.86173   0.89929   0.00000  Uiso   1.00
C1092  C     0.52887   0.80331   0.60150   0.00000  Uiso   1.00
C1093  C     0.42281   0.88919   0.96228   0.00000  Uiso   1.00
C1094  C     0.35804   0.86860   0.70528   0.00000  Uiso   1.00
C1095  C     0.49020   0.84317   0.91865   0.00000  Uiso   1.00
C1096  C     0.43625   0.99587   0.77919   0.00000  Uiso   1.00
C1097  C     0.50414   0.87196   0.59908   0.00000  Uiso   1.00
C1098  C     0.56679   0.74142   0.60180   0.00000  Uiso   1.00
C1099  C     0.47817   0.84543   0.95992   0.00000  Uiso   1.00
C1100  C     0.44438   0.86950   0.98172   0.00000  Uiso   1.00
C1101  C     0.49871   0.82446   0.98006   0.00000  Uiso   1.00
C1102  C     0.48918   0.83246   0.52173   0.00000  Uiso   1.00
C1103  C     0.45338   0.85425   0.54233   0.00000  Uiso   1.00
C1104  C     0.43170   0.87275   0.52266   0.00000  Uiso   1.00
H1105  H     0.53274   0.78394   0.92914   0.00000  Uiso   1.00
H1106  H     0.56362   0.74767   0.96453   0.00000  Uiso   1.00
H1107  H     0.39669   0.90732   0.97880   0.00000  Uiso   1.00
H1108  H     0.41646   0.89974   0.90694   0.00000  Uiso   1.00
H1109  H     0.51747   0.82759   0.90082   0.00000  Uiso   1.00
H1110  H     0.44018   0.85559   0.57386   0.00000  Uiso   1.00
H1111  H     0.40467   0.88954   0.53964   0.00000  Uiso   1.00
H1112  H     0.57339   0.73367   0.52451   0.00000  Uiso   1.00
H1113  H     0.34520   0.88235   0.68610   0.00000  Uiso   1.00
H1114  H     0.65103   0.80744   0.78333   0.00000  Uiso   1.00
H1115  H     0.54464   0.67066   0.72357   0.00000  Uiso   1.00
H1116  H     0.41807   0.67876   0.80644   0.00000  Uiso   1.00
H1117  H     0.51192   0.89675   0.58029   0.00000  Uiso   1.00
H1118  H     0.56442   0.74881   0.63287   0.00000  Uiso   1.00
O1119  O     0.50000   0.83333   0.75000   0.00000  Uiso   1.00
O1120  O     0.49027   0.79060   0.66625   0.00000  Uiso   1.00
O1121  O     0.46020   0.87313   0.83749   0.00000  Uiso   1.00
O1122  O     0.54421   0.84159   0.65877   0.00000  Uiso   1.00
O1123  O     0.50532   0.82802   0.83749   0.00000  Uiso   1.00
O1124  O     0.39713   0.87403   0.70040   0.00000  Uiso   1.00
O1125  O     0.41759   0.96666   0.76254   0.00000  Uiso   1.00
O1126  O     0.48663   0.88015   0.63411   0.00000  Uiso   1.00
O1127  O     0.58390   0.71060   0.58419   0.00000  Uiso   1.00
O1128  O     0.51182   0.74768   0.77821   0.00000  Uiso   1.00
O1129  O     0.47914   0.92803   0.76767   0.00000  Uiso   1.00
O1130  O     0.40785   0.79917   0.73607   0.00000  Uiso   1.00
O1131  O     0.60119   0.85845   0.71806   0.00000  Uiso   1.00
O1132  O     0.40323   0.85627   0.77820   0.00000  Uiso   1.00
O1133  O     0.58773   0.81944   0.76768   0.00000  Uiso   1.00
O1134  O     0.47133   0.73570   0.73607   0.00000  Uiso   1.00
O1135  O     0.53771   0.92193   0.71806   0.00000  Uiso   1.00
Zn1136 Zn    0.52577   0.80756   0.78278   0.00000  Uiso   1.00
Zn1137 Zn    0.46792   0.79044   0.72258   0.00000  Uiso   1.00
Zn1138 Zn    0.54500   0.86331   0.71188   0.00000  Uiso   1.00
Zn1139 Zn    0.46131   0.87202   0.78277   0.00000  Uiso   1.00
C1140  C     0.71896   0.82610   0.75931   0.00000  Uiso   1.00
C1141  C     0.85979   0.79395   0.96020   0.00000  Uiso   1.00
C1142  C     0.87761   0.77231   0.98062   0.00000  Uiso   1.00
C1143  C     0.94784   0.84044   0.74096   0.00000  Uiso   1.00
C1144  C     0.87110   0.78229   0.52101   0.00000  Uiso   1.00
C1145  C     0.84645   0.81505   0.54169   0.00000  Uiso   1.00
C1146  C     0.88893   0.75932   0.54075   0.00000  Uiso   1.00
C1147  C     0.88298   0.76816   0.58127   0.00000  Uiso   1.00
C1148  C     0.84681   0.82877   0.58127   0.00000  Uiso   1.00
C1149  C     0.99445   0.84404   0.73656   0.00000  Uiso   1.00
C1150  C     0.67410   0.82493   0.76104   0.00000  Uiso   1.00
C1151  C     0.76754   0.88506   0.92132   0.00000  Uiso   1.00
C1152  C     0.84720   0.98903   0.74036   0.00000  Uiso   1.00
C1153  C     0.81533   0.67890   0.76094   0.00000  Uiso   1.00
C1154  C     0.82270   0.72286   0.75823   0.00000  Uiso   1.00
C1155  C     0.84312   0.94426   0.74143   0.00000  Uiso   1.00
C1156  C     0.85450   0.81209   0.64405   0.00000  Uiso   1.00
C1157  C     0.81204   0.85457   0.85609   0.00000  Uiso   1.00
C1158  C     0.80113   0.86173   0.89929   0.00000  Uiso   1.00
C1159  C     0.86220   0.80331   0.60150   0.00000  Uiso   1.00
C1160  C     0.75615   0.88919   0.96228   0.00000  Uiso   1.00
C1161  C     0.69137   0.86860   0.70528   0.00000  Uiso   1.00
C1162  C     0.82354   0.84317   0.91865   0.00000  Uiso   1.00
C1163  C     0.76958   0.99587   0.77919   0.00000  Uiso   1.00
C1164  C     0.83747   0.87196   0.59908   0.00000  Uiso   1.00
C1165  C     0.90013   0.74142   0.60180   0.00000  Uiso   1.00
C1166  C     0.81150   0.84543   0.95992   0.00000  Uiso   1.00
C1167  C     0.77772   0.86950   0.98172   0.00000  Uiso   1.00
C1168  C     0.83205   0.82446   0.98006   0.00000  Uiso   1.00
C1169  C     0.82252   0.83246   0.52173   0.00000  Uiso   1.00
C1170  C     0.78671   0.85425   0.54233   0.00000  Uiso   1.00
C1171  C     0.76503   0.87275   0.52266   0.00000  Uiso   1.00
H1172  H     0.86607   0.78394   0.92914   0.00000  Uiso   1.00
H1173  H     0.89695   0.74767   0.96453   0.00000  Uiso   1.00
H1174  H     0.73002   0.90732   0.97880   0.00000  Uiso   1.00
H1175  H     0.74980   0.89974   0.90694   0.00000  Uiso   1.00
H1176  H     0.85080   0.82759   0.90082   0.00000  Uiso   1.00
H1177  H     0.77352   0.85559   0.57386   0.00000  Uiso   1.00
H1178  H     0.73800   0.88954   0.53964   0.00000  Uiso   1.00
H1179  H     0.90672   0.73367   0.52451   0.00000  Uiso   1.00
H1180  H     0.67854   0.88235   0.68610   0.00000  Uiso   1.00
H1181  H     0.98437   0.80744   0.78333   0.00000  Uiso   1.00
H1182  H     0.87797   0.67066   0.72357   0.00000  Uiso   1.00
H1183  H     0.75141   0.67876   0.80644   0.00000  Uiso   1.00
H1184  H     0.84525   0.89675   0.58029   0.00000  Uiso   1.00
H1185  H     0.89775   0.74881   0.63287   0.00000  Uiso   1.00
O1186  O     0.83333   0.83333   0.75000   0.00000  Uiso   1.00
O1187  O     0.82360   0.79060   0.66625   0.00000  Uiso   1.00
O1188  O     0.79354   0.87313   0.83749   0.00000  Uiso   1.00
O1189  O     0.87755   0.84159   0.65877   0.00000  Uiso   1.00
O1190  O     0.83865   0.82802   0.83749   0.00000  Uiso   1.00
O1191  O     0.73046   0.87403   0.70040   0.00000  Uiso   1.00
O1192  O     0.75092   0.96666   0.76254   0.00000  Uiso   1.00
O1193  O     0.81997   0.88015   0.63411   0.00000  Uiso   1.00
O1194  O     0.91723   0.71060   0.58419   0.00000  Uiso   1.00
O1195  O     0.84515   0.74768   0.77821   0.00000  Uiso   1.00
O1196  O     0.81247   0.92803   0.76767   0.00000  Uiso   1.00
O1197  O     0.74119   0.79917   0.73607   0.00000  Uiso   1.00
O1198  O     0.93452   0.85845   0.71806   0.00000  Uiso   1.00
O1199  O     0.73656   0.85627   0.77820   0.00000  Uiso   1.00
O1200  O     0.92106   0.81944   0.76768   0.00000  Uiso   1.00
O1201  O     0.80467   0.73570   0.73607   0.00000  Uiso   1.00
O1202  O     0.87104   0.92193   0.71806   0.00000  Uiso   1.00
Zn1203 Zn    0.85910   0.80756   0.78278   0.00000  Uiso   1.00
Zn1204 Zn    0.80125   0.79044   0.72258   0.00000  Uiso   1.00
Zn1205 Zn    0.87833   0.86331   0.71188   0.00000  Uiso   1.00
Zn1206 Zn    0.79465   0.87202   0.78277   0.00000  Uiso   1.00
loop_
_geom_bond_atom_site_label_1
_geom_bond_atom_site_label_2
_geom_bond_distance
_geom_bond_site_symmetry_2
_ccdc_geom_bond_type
C1     O60     1.267   .     A
C1     O58     1.267   .     A
C1     C11     1.439   .     S
C2     C3      1.385   .     A
C2     C29     1.413   .     A
C2     H33     1.077   .     S
C3     H34     1.084   .     S
C3     C608    1.393   .     S
C4     O59     1.286   .     A
C4     C10     1.467   .     S
C4     O61     1.291   .     A
C5     C6      1.417   .     A
C5     C7      1.397   .     A
C5     C606    1.393   1_554 S
C6     C9      1.423   .     A
C6     C30     1.430   .     A
C7     H40     1.085   .     S
C7     C8      1.396   .     A
C8     C26     1.489   .     S
C8     C20     1.413   .     A
C9     C25     1.493   .     S
C9     C20     1.416   .     A
C10    C78     1.347   .     S
C10    C89     1.499   .     S
C11    C144    1.347   1_455 S
C11    H176    1.086   1_455 S
C12    C21     1.393   .     A
C12    H36     1.083   .     S
C12    C19     1.401   .     A
C13    C16     1.453   .     S
C13    C215    1.347   .     S
C13    H244    1.088   .     S
C14    C15     1.432   .     S
C14    C415    1.347   1_545 S
C14    C426    1.487   1_545 S
C15    O62     1.270   .     A
C15    O56     1.284   .     A
C16    O63     1.275   .     A
C16    O57     1.262   .     A
C17    O50     1.273   .     A
C17    O48     1.270   .     A
C17    C20     1.460   .     S
C18    O51     1.289   .     A
C18    O49     1.288   .     A
C18    C19     1.471   .     S
C19    C23     1.399   .     A
C21    H35     1.084   .     S
C21    C28     1.403   .     A
C22    H41     1.085   .     S
C22    O52     1.221   .     D
C22    C144    1.499   1_455 S
C23    C27     1.406   .     A
C23    H37     1.077   .     S
C24    O53     1.222   .     D
C24    C215    1.487   .     S
C24    H245    1.085   .     S
C25    H45     1.085   .     S
C25    O54     1.221   .     D
C26    O55     1.221   .     D
C26    H46     1.085   .     S
C27    C29     1.424   .     A
C27    C28     1.417   .     A
C28    C635    1.393   .     S
C29    C633    1.423   .     S
C30    C31     1.413   .     A
C30    C632    1.423   1_554 S
C31    C32     1.389   .     A
C31    H38     1.080   .     S
C32    H39     1.084   .     S
C32    C631    1.393   1_554 S
H42    C78     1.086   .     S
H43    C415    1.088   1_545 S
H44    C426    1.085   1_545 S
O47    Zn66    1.936   .     S
O47    Zn64    1.979   .     S
O47    Zn67    1.929   .     S
O47    Zn65    1.935   .     S
O48    Zn65    1.932   .     S
O49    Zn67    1.946   .     S
O50    Zn66    1.932   .     S
O51    Zn64    1.921   .     S
O56    Zn64    1.930   .     S
O57    Zn67    1.941   .     S
O58    Zn65    1.927   .     S
O59    Zn66    1.942   .     S
O60    Zn67    1.930   .     S
O61    Zn64    1.920   .     S
O62    Zn65    1.952   .     S
O63    Zn66    1.938   .     S
C68    O127    1.267   .     A
C68    O125    1.267   .     A
C68    C78     1.439   .     S
C69    C70     1.385   .     A
C69    C96     1.413   .     A
C69    H100    1.077   .     S
C70    H101    1.084   .     S
C70    C675    1.393   .     S
C71    O126    1.286   .     A
C71    C77     1.467   .     S
C71    O128    1.291   .     A
C72    C73     1.417   .     A
C72    C74     1.397   .     A
C72    C673    1.393   1_554 S
C73    C76     1.423   .     A
C73    C97     1.430   .     A
C74    H107    1.085   .     S
C74    C75     1.396   .     A
C75    C93     1.489   .     S
C75    C87     1.413   .     A
C76    C92     1.493   .     S
C76    C87     1.416   .     A
C77    C145    1.347   .     S
C77    C156    1.499   .     S
C79    C88     1.393   .     A
C79    H103    1.083   .     S
C79    C86     1.401   .     A
C80    C83     1.453   .     S
C80    C282    1.347   .     S
C80    H311    1.088   .     S
C81    C82     1.432   .     S
C81    C482    1.347   1_545 S
C81    C493    1.487   1_545 S
C82    O129    1.270   .     A
C82    O123    1.284   .     A
C83    O130    1.275   .     A
C83    O124    1.262   .     A
C84    O117    1.273   .     A
C84    O115    1.270   .     A
C84    C87     1.460   .     S
C85    O118    1.289   .     A
C85    O116    1.288   .     A
C85    C86     1.471   .     S
C86    C90     1.399   .     A
C88    H102    1.084   .     S
C88    C95     1.403   .     A
C89    H108    1.085   .     S
C89    O119    1.221   .     D
C90    C94     1.406   .     A
C90    H104    1.077   .     S
C91    O120    1.222   .     D
C91    C282    1.487   .     S
C91    H312    1.085   .     S
C92    H112    1.085   .     S
C92    O121    1.221   .     D
C93    O122    1.221   .     D
C93    H113    1.085   .     S
C94    C96     1.424   .     A
C94    C95     1.417   .     A
C95    C702    1.393   .     S
C96    C700    1.423   .     S
C97    C98     1.413   .     A
C97    C699    1.423   1_554 S
C98    C99     1.389   .     A
C98    H105    1.080   .     S
C99    H106    1.084   .     S
C99    C698    1.393   1_554 S
H109   C145    1.086   .     S
H110   C482    1.088   1_545 S
H111   C493    1.085   1_545 S
O114   Zn133   1.936   .     S
O114   Zn131   1.979   .     S
O114   Zn134   1.929   .     S
O114   Zn132   1.935   .     S
O115   Zn132   1.932   .     S
O116   Zn134   1.946   .     S
O117   Zn133   1.932   .     S
O118   Zn131   1.921   .     S
O123   Zn131   1.930   .     S
O124   Zn134   1.941   .     S
O125   Zn132   1.927   .     S
O126   Zn133   1.942   .     S
O127   Zn134   1.930   .     S
O128   Zn131   1.920   .     S
O129   Zn132   1.952   .     S
O130   Zn133   1.938   .     S
C135   O194    1.267   .     A
C135   O192    1.267   .     A
C135   C145    1.439   .     S
C136   C137    1.385   .     A
C136   C163    1.413   .     A
C136   H167    1.077   .     S
C137   H168    1.084   .     S
C137   C742    1.393   .     S
C138   O193    1.286   .     A
C138   C144    1.467   .     S
C138   O195    1.291   .     A
C139   C140    1.417   .     A
C139   C141    1.397   .     A
C139   C740    1.393   1_554 S
C140   C143    1.423   .     A
C140   C164    1.430   .     A
C141   H174    1.085   .     S
C141   C142    1.396   .     A
C142   C160    1.489   .     S
C142   C154    1.413   .     A
C143   C159    1.493   .     S
C143   C154    1.416   .     A
C144   C11     1.347   1_655 S
C144   C22     1.499   1_655 S
C146   C155    1.393   .     A
C146   H170    1.083   .     S
C146   C153    1.401   .     A
C147   C150    1.453   .     S
C147   C349    1.347   .     S
C147   H378    1.088   .     S
C148   C149    1.432   .     S
C148   C549    1.347   1_545 S
C148   C560    1.487   1_545 S
C149   O196    1.270   .     A
C149   O190    1.284   .     A
C150   O197    1.275   .     A
C150   O191    1.262   .     A
C151   O184    1.273   .     A
C151   O182    1.270   .     A
C151   C154    1.460   .     S
C152   O185    1.289   .     A
C152   O183    1.288   .     A
C152   C153    1.471   .     S
C153   C157    1.399   .     A
C155   H169    1.084   .     S
C155   C162    1.403   .     A
C156   H175    1.085   .     S
C156   O186    1.221   .     D
C157   C161    1.406   .     A
C157   H171    1.077   .     S
C158   O187    1.222   .     D
C158   C349    1.487   .     S
C158   H379    1.085   .     S
C159   H179    1.085   .     S
C159   O188    1.221   .     D
C160   O189    1.221   .     D
C160   H180    1.085   .     S
C161   C163    1.424   .     A
C161   C162    1.417   .     A
C162   C769    1.393   .     S
C163   C767    1.423   .     S
C164   C165    1.413   .     A
C164   C766    1.423   1_554 S
C165   C166    1.389   .     A
C165   H172    1.080   .     S
C166   H173    1.084   .     S
C166   C765    1.393   1_554 S
H176   C11     1.086   1_655 S
H177   C549    1.088   1_545 S
H178   C560    1.085   1_545 S
O181   Zn200   1.936   .     S
O181   Zn198   1.979   .     S
O181   Zn201   1.929   .     S
O181   Zn199   1.935   .     S
O182   Zn199   1.932   .     S
O183   Zn201   1.946   .     S
O184   Zn200   1.932   .     S
O185   Zn198   1.921   .     S
O190   Zn198   1.930   .     S
O191   Zn201   1.941   .     S
O192   Zn199   1.927   .     S
O193   Zn200   1.942   .     S
O194   Zn201   1.930   .     S
O195   Zn198   1.920   .     S
O196   Zn199   1.952   .     S
O197   Zn200   1.938   .     S
C202   O261    1.267   .     A
C202   O259    1.267   .     A
C202   C212    1.439   .     S
C203   C204    1.385   .     A
C203   C230    1.413   .     A
C203   H234    1.077   .     S
C204   H235    1.084   .     S
C204   C809    1.393   .     S
C205   O260    1.286   .     A
C205   C211    1.467   .     S
C205   O262    1.291   .     A
C206   C207    1.417   .     A
C206   C208    1.397   .     A
C206   C807    1.393   1_554 S
C207   C210    1.423   .     A
C207   C231    1.430   .     A
C208   H241    1.085   .     S
C208   C209    1.396   .     A
C209   C227    1.489   .     S
C209   C221    1.413   .     A
C210   C226    1.493   .     S
C210   C221    1.416   .     A
C211   C279    1.347   .     S
C211   C290    1.499   .     S
C212   C345    1.347   1_455 S
C212   H377    1.086   1_455 S
C213   C222    1.393   .     A
C213   H237    1.083   .     S
C213   C220    1.401   .     A
C214   C217    1.453   .     S
C214   C416    1.347   .     S
C214   H445    1.088   .     S
C215   C216    1.432   .     S
C216   O263    1.270   .     A
C216   O257    1.284   .     A
C217   O264    1.275   .     A
C217   O258    1.262   .     A
C218   O251    1.273   .     A
C218   O249    1.270   .     A
C218   C221    1.460   .     S
C219   O252    1.289   .     A
C219   O250    1.288   .     A
C219   C220    1.471   .     S
C220   C224    1.399   .     A
C222   H236    1.084   .     S
C222   C229    1.403   .     A
C223   H242    1.085   .     S
C223   O253    1.221   .     D
C223   C345    1.499   1_455 S
C224   C228    1.406   .     A
C224   H238    1.077   .     S
C225   O254    1.222   .     D
C225   C416    1.487   .     S
C225   H446    1.085   .     S
C226   H246    1.085   .     S
C226   O255    1.221   .     D
C227   O256    1.221   .     D
C227   H247    1.085   .     S
C228   C230    1.424   .     A
C228   C229    1.417   .     A
C229   C836    1.393   .     S
C230   C834    1.423   .     S
C231   C232    1.413   .     A
C231   C833    1.423   1_554 S
C232   C233    1.389   .     A
C232   H239    1.080   .     S
C233   H240    1.084   .     S
C233   C832    1.393   1_554 S
H243   C279    1.086   .     S
O248   Zn267   1.936   .     S
O248   Zn265   1.979   .     S
O248   Zn268   1.929   .     S
O248   Zn266   1.935   .     S
O249   Zn266   1.932   .     S
O250   Zn268   1.946   .     S
O251   Zn267   1.932   .     S
O252   Zn265   1.921   .     S
O257   Zn265   1.930   .     S
O258   Zn268   1.941   .     S
O259   Zn266   1.927   .     S
O260   Zn267   1.942   .     S
O261   Zn268   1.930   .     S
O262   Zn265   1.920   .     S
O263   Zn266   1.952   .     S
O264   Zn267   1.938   .     S
C269   O328    1.267   .     A
C269   O326    1.267   .     A
C269   C279    1.439   .     S
C270   C271    1.385   .     A
C270   C297    1.413   .     A
C270   H301    1.077   .     S
C271   H302    1.084   .     S
C271   C876    1.393   .     S
C272   O327    1.286   .     A
C272   C278    1.467   .     S
C272   O329    1.291   .     A
C273   C274    1.417   .     A
C273   C275    1.397   .     A
C273   C874    1.393   1_554 S
C274   C277    1.423   .     A
C274   C298    1.430   .     A
C275   H308    1.085   .     S
C275   C276    1.396   .     A
C276   C294    1.489   .     S
C276   C288    1.413   .     A
C277   C293    1.493   .     S
C277   C288    1.416   .     A
C278   C346    1.347   .     S
C278   C357    1.499   .     S
C280   C289    1.393   .     A
C280   H304    1.083   .     S
C280   C287    1.401   .     A
C281   C284    1.453   .     S
C281   C483    1.347   .     S
C281   H512    1.088   .     S
C282   C283    1.432   .     S
C283   O330    1.270   .     A
C283   O324    1.284   .     A
C284   O331    1.275   .     A
C284   O325    1.262   .     A
C285   O318    1.273   .     A
C285   O316    1.270   .     A
C285   C288    1.460   .     S
C286   O319    1.289   .     A
C286   O317    1.288   .     A
C286   C287    1.471   .     S
C287   C291    1.399   .     A
C289   H303    1.084   .     S
C289   C296    1.403   .     A
C290   H309    1.085   .     S
C290   O320    1.221   .     D
C291   C295    1.406   .     A
C291   H305    1.077   .     S
C292   O321    1.222   .     D
C292   C483    1.487   .     S
C292   H513    1.085   .     S
C293   H313    1.085   .     S
C293   O322    1.221   .     D
C294   O323    1.221   .     D
C294   H314    1.085   .     S
C295   C297    1.424   .     A
C295   C296    1.417   .     A
C296   C903    1.393   .     S
C297   C901    1.423   .     S
C298   C299    1.413   .     A
C298   C900    1.423   1_554 S
C299   C300    1.389   .     A
C299   H306    1.080   .     S
C300   H307    1.084   .     S
C300   C899    1.393   1_554 S
H310   C346    1.086   .     S
O315   Zn334   1.936   .     S
O315   Zn332   1.979   .     S
O315   Zn335   1.929   .     S
O315   Zn333   1.935   .     S
O316   Zn333   1.932   .     S
O317   Zn335   1.946   .     S
O318   Zn334   1.932   .     S
O319   Zn332   1.921   .     S
O324   Zn332   1.930   .     S
O325   Zn335   1.941   .     S
O326   Zn333   1.927   .     S
O327   Zn334   1.942   .     S
O328   Zn335   1.930   .     S
O329   Zn332   1.920   .     S
O330   Zn333   1.952   .     S
O331   Zn334   1.938   .     S
C336   O395    1.267   .     A
C336   O393    1.267   .     A
C336   C346    1.439   .     S
C337   C338    1.385   .     A
C337   C364    1.413   .     A
C337   H368    1.077   .     S
C338   H369    1.084   .     S
C338   C943    1.393   .     S
C339   O394    1.286   .     A
C339   C345    1.467   .     S
C339   O396    1.291   .     A
C340   C341    1.417   .     A
C340   C342    1.397   .     A
C340   C941    1.393   1_554 S
C341   C344    1.423   .     A
C341   C365    1.430   .     A
C342   H375    1.085   .     S
C342   C343    1.396   .     A
C343   C361    1.489   .     S
C343   C355    1.413   .     A
C344   C360    1.493   .     S
C344   C355    1.416   .     A
C345   C212    1.347   1_655 S
C345   C223    1.499   1_655 S
C347   C356    1.393   .     A
C347   H371    1.083   .     S
C347   C354    1.401   .     A
C348   C351    1.453   .     S
C348   C550    1.347   .     S
C348   H579    1.088   .     S
C349   C350    1.432   .     S
C350   O397    1.270   .     A
C350   O391    1.284   .     A
C351   O398    1.275   .     A
C351   O392    1.262   .     A
C352   O385    1.273   .     A
C352   O383    1.270   .     A
C352   C355    1.460   .     S
C353   O386    1.289   .     A
C353   O384    1.288   .     A
C353   C354    1.471   .     S
C354   C358    1.399   .     A
C356   H370    1.084   .     S
C356   C363    1.403   .     A
C357   H376    1.085   .     S
C357   O387    1.221   .     D
C358   C362    1.406   .     A
C358   H372    1.077   .     S
C359   O388    1.222   .     D
C359   C550    1.487   .     S
C359   H580    1.085   .     S
C360   H380    1.085   .     S
C360   O389    1.221   .     D
C361   O390    1.221   .     D
C361   H381    1.085   .     S
C362   C364    1.424   .     A
C362   C363    1.417   .     A
C363   C970    1.393   .     S
C364   C968    1.423   .     S
C365   C366    1.413   .     A
C365   C967    1.423   1_554 S
C366   C367    1.389   .     A
C366   H373    1.080   .     S
C367   H374    1.084   .     S
C367   C966    1.393   1_554 S
H377   C212    1.086   1_655 S
O382   Zn401   1.936   .     S
O382   Zn399   1.979   .     S
O382   Zn402   1.929   .     S
O382   Zn400   1.935   .     S
O383   Zn400   1.932   .     S
O384   Zn402   1.946   .     S
O385   Zn401   1.932   .     S
O386   Zn399   1.921   .     S
O391   Zn399   1.930   .     S
O392   Zn402   1.941   .     S
O393   Zn400   1.927   .     S
O394   Zn401   1.942   .     S
O395   Zn402   1.930   .     S
O396   Zn399   1.920   .     S
O397   Zn400   1.952   .     S
O398   Zn401   1.938   .     S
C403   O462    1.267   .     A
C403   O460    1.267   .     A
C403   C413    1.439   .     S
C404   C405    1.385   .     A
C404   C431    1.413   .     A
C404   H435    1.077   .     S
C405   H436    1.084   .     S
C405   C1010   1.393   .     S
C406   O461    1.286   .     A
C406   C412    1.467   .     S
C406   O463    1.291   .     A
C407   C408    1.417   .     A
C407   C409    1.397   .     A
C407   C1008   1.393   1_554 S
C408   C411    1.423   .     A
C408   C432    1.430   .     A
C409   H442    1.085   .     S
C409   C410    1.396   .     A
C410   C428    1.489   .     S
C410   C422    1.413   .     A
C411   C427    1.493   .     S
C411   C422    1.416   .     A
C412   C480    1.347   .     S
C412   C491    1.499   .     S
C413   C546    1.347   1_455 S
C413   H578    1.086   1_455 S
C414   C423    1.393   .     A
C414   H438    1.083   .     S
C414   C421    1.401   .     A
C415   C418    1.453   .     S
C415   C14     1.347   1_565 S
C415   H43     1.088   1_565 S
C416   C417    1.432   .     S
C417   O464    1.270   .     A
C417   O458    1.284   .     A
C418   O465    1.275   .     A
C418   O459    1.262   .     A
C419   O452    1.273   .     A
C419   O450    1.270   .     A
C419   C422    1.460   .     S
C420   O453    1.289   .     A
C420   O451    1.288   .     A
C420   C421    1.471   .     S
C421   C425    1.399   .     A
C423   H437    1.084   .     S
C423   C430    1.403   .     A
C424   H443    1.085   .     S
C424   O454    1.221   .     D
C424   C546    1.499   1_455 S
C425   C429    1.406   .     A
C425   H439    1.077   .     S
C426   O455    1.222   .     D
C426   C14     1.487   1_565 S
C426   H44     1.085   1_565 S
C427   H447    1.085   .     S
C427   O456    1.221   .     D
C428   O457    1.221   .     D
C428   H448    1.085   .     S
C429   C431    1.424   .     A
C429   C430    1.417   .     A
C430   C1037   1.393   .     S
C431   C1035   1.423   .     S
C432   C433    1.413   .     A
C432   C1034   1.423   1_554 S
C433   C434    1.389   .     A
C433   H440    1.080   .     S
C434   H441    1.084   .     S
C434   C1033   1.393   1_554 S
H444   C480    1.086   .     S
O449   Zn468   1.936   .     S
O449   Zn466   1.979   .     S
O449   Zn469   1.929   .     S
O449   Zn467   1.935   .     S
O450   Zn467   1.932   .     S
O451   Zn469   1.946   .     S
O452   Zn468   1.932   .     S
O453   Zn466   1.921   .     S
O458   Zn466   1.930   .     S
O459   Zn469   1.941   .     S
O460   Zn467   1.927   .     S
O461   Zn468   1.942   .     S
O462   Zn469   1.930   .     S
O463   Zn466   1.920   .     S
O464   Zn467   1.952   .     S
O465   Zn468   1.938   .     S
C470   O529    1.267   .     A
C470   O527    1.267   .     A
C470   C480    1.439   .     S
C471   C472    1.385   .     A
C471   C498    1.413   .     A
C471   H502    1.077   .     S
C472   H503    1.084   .     S
C472   C1077   1.393   .     S
C473   O528    1.286   .     A
C473   C479    1.467   .     S
C473   O530    1.291   .     A
C474   C475    1.417   .     A
C474   C476    1.397   .     A
C474   C1075   1.393   1_554 S
C475   C478    1.423   .     A
C475   C499    1.430   .     A
C476   H509    1.085   .     S
C476   C477    1.396   .     A
C477   C495    1.489   .     S
C477   C489    1.413   .     A
C478   C494    1.493   .     S
C478   C489    1.416   .     A
C479   C547    1.347   .     S
C479   C558    1.499   .     S
C481   C490    1.393   .     A
C481   H505    1.083   .     S
C481   C488    1.401   .     A
C482   C485    1.453   .     S
C482   C81     1.347   1_565 S
C482   H110    1.088   1_565 S
C483   C484    1.432   .     S
C484   O531    1.270   .     A
C484   O525    1.284   .     A
C485   O532    1.275   .     A
C485   O526    1.262   .     A
C486   O519    1.273   .     A
C486   O517    1.270   .     A
C486   C489    1.460   .     S
C487   O520    1.289   .     A
C487   O518    1.288   .     A
C487   C488    1.471   .     S
C488   C492    1.399   .     A
C490   H504    1.084   .     S
C490   C497    1.403   .     A
C491   H510    1.085   .     S
C491   O521    1.221   .     D
C492   C496    1.406   .     A
C492   H506    1.077   .     S
C493   O522    1.222   .     D
C493   C81     1.487   1_565 S
C493   H111    1.085   1_565 S
C494   H514    1.085   .     S
C494   O523    1.221   .     D
C495   O524    1.221   .     D
C495   H515    1.085   .     S
C496   C498    1.424   .     A
C496   C497    1.417   .     A
C497   C1104   1.393   .     S
C498   C1102   1.423   .     S
C499   C500    1.413   .     A
C499   C1101   1.423   1_554 S
C500   C501    1.389   .     A
C500   H507    1.080   .     S
C501   H508    1.084   .     S
C501   C1100   1.393   1_554 S
H511   C547    1.086   .     S
O516   Zn535   1.936   .     S
O516   Zn533   1.979   .     S
O516   Zn536   1.929   .     S
O516   Zn534   1.935   .     S
O517   Zn534   1.932   .     S
O518   Zn536   1.946   .     S
O519   Zn535   1.932   .     S
O520   Zn533   1.921   .     S
O525   Zn533   1.930   .     S
O526   Zn536   1.941   .     S
O527   Zn534   1.927   .     S
O528   Zn535   1.942   .     S
O529   Zn536   1.930   .     S
O530   Zn533   1.920   .     S
O531   Zn534   1.952   .     S
O532   Zn535   1.938   .     S
C537   O596    1.267   .     A
C537   O594    1.267   .     A
C537   C547    1.439   .     S
C538   C539    1.385   .     A
C538   C565    1.413   .     A
C538   H569    1.077   .     S
C539   H570    1.084   .     S
C539   C1144   1.393   .     S
C540   O595    1.286   .     A
C540   C546    1.467   .     S
C540   O597    1.291   .     A
C541   C542    1.417   .     A
C541   C543    1.397   .     A
C541   C1142   1.393   1_554 S
C542   C545    1.423   .     A
C542   C566    1.430   .     A
C543   H576    1.085   .     S
C543   C544    1.396   .     A
C544   C562    1.489   .     S
C544   C556    1.413   .     A
C545   C561    1.493   .     S
C545   C556    1.416   .     A
C546   C413    1.347   1_655 S
C546   C424    1.499   1_655 S
C548   C557    1.393   .     A
C548   H572    1.083   .     S
C548   C555    1.401   .     A
C549   C552    1.453   .     S
C549   C148    1.347   1_565 S
C549   H177    1.088   1_565 S
C550   C551    1.432   .     S
C551   O598    1.270   .     A
C551   O592    1.284   .     A
C552   O599    1.275   .     A
C552   O593    1.262   .     A
C553   O586    1.273   .     A
C553   O584    1.270   .     A
C553   C556    1.460   .     S
C554   O587    1.289   .     A
C554   O585    1.288   .     A
C554   C555    1.471   .     S
C555   C559    1.399   .     A
C557   H571    1.084   .     S
C557   C564    1.403   .     A
C558   H577    1.085   .     S
C558   O588    1.221   .     D
C559   C563    1.406   .     A
C559   H573    1.077   .     S
C560   O589    1.222   .     D
C560   C148    1.487   1_565 S
C560   H178    1.085   1_565 S
C561   H581    1.085   .     S
C561   O590    1.221   .     D
C562   O591    1.221   .     D
C562   H582    1.085   .     S
C563   C565    1.424   .     A
C563   C564    1.417   .     A
C564   C1171   1.393   .     S
C565   C1169   1.423   .     S
C566   C567    1.413   .     A
C566   C1168   1.423   1_554 S
C567   C568    1.389   .     A
C567   H574    1.080   .     S
C568   H575    1.084   .     S
C568   C1167   1.393   1_554 S
H578   C413    1.086   1_655 S
O583   Zn602   1.936   .     S
O583   Zn600   1.979   .     S
O583   Zn603   1.929   .     S
O583   Zn601   1.935   .     S
O584   Zn601   1.932   .     S
O585   Zn603   1.946   .     S
O586   Zn602   1.932   .     S
O587   Zn600   1.921   .     S
O592   Zn600   1.930   .     S
O593   Zn603   1.941   .     S
O594   Zn601   1.927   .     S
O595   Zn602   1.942   .     S
O596   Zn603   1.930   .     S
O597   Zn600   1.920   .     S
O598   Zn601   1.952   .     S
O599   Zn602   1.938   .     S
C604   O663    1.267   .     A
C604   O661    1.267   .     A
C604   C614    1.439   .     S
C605   C606    1.385   .     A
C605   C632    1.413   .     A
C605   H636    1.077   .     S
C606   H637    1.084   .     S
C606   C5      1.393   1_556 S
C607   O662    1.286   .     A
C607   C613    1.467   .     S
C607   O664    1.291   .     A
C608   C609    1.417   .     A
C608   C610    1.397   .     A
C609   C612    1.423   .     A
C609   C633    1.430   .     A
C610   H643    1.085   .     S
C610   C611    1.396   .     A
C611   C629    1.489   .     S
C611   C623    1.413   .     A
C612   C628    1.493   .     S
C612   C623    1.416   .     A
C613   C681    1.347   .     S
C613   C692    1.499   .     S
C614   C747    1.347   1_455 S
C614   H779    1.086   1_455 S
C615   C624    1.393   .     A
C615   H639    1.083   .     S
C615   C622    1.401   .     A
C616   C619    1.453   .     S
C616   C818    1.347   .     S
C616   H847    1.088   .     S
C617   C618    1.432   .     S
C617   C1018   1.347   1_545 S
C617   C1029   1.487   1_545 S
C618   O665    1.270   .     A
C618   O659    1.284   .     A
C619   O666    1.275   .     A
C619   O660    1.262   .     A
C620   O653    1.273   .     A
C620   O651    1.270   .     A
C620   C623    1.460   .     S
C621   O654    1.289   .     A
C621   O652    1.288   .     A
C621   C622    1.471   .     S
C622   C626    1.399   .     A
C624   H638    1.084   .     S
C624   C631    1.403   .     A
C625   H644    1.085   .     S
C625   O655    1.221   .     D
C625   C747    1.499   1_455 S
C626   C630    1.406   .     A
C626   H640    1.077   .     S
C627   O656    1.222   .     D
C627   C818    1.487   .     S
C627   H848    1.085   .     S
C628   H648    1.085   .     S
C628   O657    1.221   .     D
C629   O658    1.221   .     D
C629   H649    1.085   .     S
C630   C632    1.424   .     A
C630   C631    1.417   .     A
C631   C32     1.393   1_556 S
C632   C30     1.423   1_556 S
C633   C634    1.413   .     A
C634   C635    1.389   .     A
C634   H641    1.080   .     S
C635   H642    1.084   .     S
H645   C681    1.086   .     S
H646   C1018   1.088   1_545 S
H647   C1029   1.085   1_545 S
O650   Zn669   1.936   .     S
O650   Zn667   1.979   .     S
O650   Zn670   1.929   .     S
O650   Zn668   1.935   .     S
O651   Zn668   1.932   .     S
O652   Zn670   1.946   .     S
O653   Zn669   1.932   .     S
O654   Zn667   1.921   .     S
O659   Zn667   1.930   .     S
O660   Zn670   1.941   .     S
O661   Zn668   1.927   .     S
O662   Zn669   1.942   .     S
O663   Zn670   1.930   .     S
O664   Zn667   1.920   .     S
O665   Zn668   1.952   .     S
O666   Zn669   1.938   .     S
C671   O730    1.267   .     A
C671   O728    1.267   .     A
C671   C681    1.439   .     S
C672   C673    1.385   .     A
C672   C699    1.413   .     A
C672   H703    1.077   .     S
C673   H704    1.084   .     S
C673   C72     1.393   1_556 S
C674   O729    1.286   .     A
C674   C680    1.467   .     S
C674   O731    1.291   .     A
C675   C676    1.417   .     A
C675   C677    1.397   .     A
C676   C679    1.423   .     A
C676   C700    1.430   .     A
C677   H710    1.085   .     S
C677   C678    1.396   .     A
C678   C696    1.489   .     S
C678   C690    1.413   .     A
C679   C695    1.493   .     S
C679   C690    1.416   .     A
C680   C748    1.347   .     S
C680   C759    1.499   .     S
C682   C691    1.393   .     A
C682   H706    1.083   .     S
C682   C689    1.401   .     A
C683   C686    1.453   .     S
C683   C885    1.347   .     S
C683   H914    1.088   .     S
C684   C685    1.432   .     S
C684   C1085   1.347   1_545 S
C684   C1096   1.487   1_545 S
C685   O732    1.270   .     A
C685   O726    1.284   .     A
C686   O733    1.275   .     A
C686   O727    1.262   .     A
C687   O720    1.273   .     A
C687   O718    1.270   .     A
C687   C690    1.460   .     S
C688   O721    1.289   .     A
C688   O719    1.288   .     A
C688   C689    1.471   .     S
C689   C693    1.399   .     A
C691   H705    1.084   .     S
C691   C698    1.403   .     A
C692   H711    1.085   .     S
C692   O722    1.221   .     D
C693   C697    1.406   .     A
C693   H707    1.077   .     S
C694   O723    1.222   .     D
C694   C885    1.487   .     S
C694   H915    1.085   .     S
C695   H715    1.085   .     S
C695   O724    1.221   .     D
C696   O725    1.221   .     D
C696   H716    1.085   .     S
C697   C699    1.424   .     A
C697   C698    1.417   .     A
C698   C99     1.393   1_556 S
C699   C97     1.423   1_556 S
C700   C701    1.413   .     A
C701   C702    1.389   .     A
C701   H708    1.080   .     S
C702   H709    1.084   .     S
H712   C748    1.086   .     S
H713   C1085   1.088   1_545 S
H714   C1096   1.085   1_545 S
O717   Zn736   1.936   .     S
O717   Zn734   1.979   .     S
O717   Zn737   1.929   .     S
O717   Zn735   1.935   .     S
O718   Zn735   1.932   .     S
O719   Zn737   1.946   .     S
O720   Zn736   1.932   .     S
O721   Zn734   1.921   .     S
O726   Zn734   1.930   .     S
O727   Zn737   1.941   .     S
O728   Zn735   1.927   .     S
O729   Zn736   1.942   .     S
O730   Zn737   1.930   .     S
O731   Zn734   1.920   .     S
O732   Zn735   1.952   .     S
O733   Zn736   1.938   .     S
C738   O797    1.267   .     A
C738   O795    1.267   .     A
C738   C748    1.439   .     S
C739   C740    1.385   .     A
C739   C766    1.413   .     A
C739   H770    1.077   .     S
C740   H771    1.084   .     S
C740   C139    1.393   1_556 S
C741   O796    1.286   .     A
C741   C747    1.467   .     S
C741   O798    1.291   .     A
C742   C743    1.417   .     A
C742   C744    1.397   .     A
C743   C746    1.423   .     A
C743   C767    1.430   .     A
C744   H777    1.085   .     S
C744   C745    1.396   .     A
C745   C763    1.489   .     S
C745   C757    1.413   .     A
C746   C762    1.493   .     S
C746   C757    1.416   .     A
C747   C614    1.347   1_655 S
C747   C625    1.499   1_655 S
C749   C758    1.393   .     A
C749   H773    1.083   .     S
C749   C756    1.401   .     A
C750   C753    1.453   .     S
C750   C952    1.347   .     S
C750   H981    1.088   .     S
C751   C752    1.432   .     S
C751   C1152   1.347   1_545 S
C751   C1163   1.487   1_545 S
C752   O799    1.270   .     A
C752   O793    1.284   .     A
C753   O800    1.275   .     A
C753   O794    1.262   .     A
C754   O787    1.273   .     A
C754   O785    1.270   .     A
C754   C757    1.460   .     S
C755   O788    1.289   .     A
C755   O786    1.288   .     A
C755   C756    1.471   .     S
C756   C760    1.399   .     A
C758   H772    1.084   .     S
C758   C765    1.403   .     A
C759   H778    1.085   .     S
C759   O789    1.221   .     D
C760   C764    1.406   .     A
C760   H774    1.077   .     S
C761   O790    1.222   .     D
C761   C952    1.487   .     S
C761   H982    1.085   .     S
C762   H782    1.085   .     S
C762   O791    1.221   .     D
C763   O792    1.221   .     D
C763   H783    1.085   .     S
C764   C766    1.424   .     A
C764   C765    1.417   .     A
C765   C166    1.393   1_556 S
C766   C164    1.423   1_556 S
C767   C768    1.413   .     A
C768   C769    1.389   .     A
C768   H775    1.080   .     S
C769   H776    1.084   .     S
H779   C614    1.086   1_655 S
H780   C1152   1.088   1_545 S
H781   C1163   1.085   1_545 S
O784   Zn803   1.936   .     S
O784   Zn801   1.979   .     S
O784   Zn804   1.929   .     S
O784   Zn802   1.935   .     S
O785   Zn802   1.932   .     S
O786   Zn804   1.946   .     S
O787   Zn803   1.932   .     S
O788   Zn801   1.921   .     S
O793   Zn801   1.930   .     S
O794   Zn804   1.941   .     S
O795   Zn802   1.927   .     S
O796   Zn803   1.942   .     S
O797   Zn804   1.930   .     S
O798   Zn801   1.920   .     S
O799   Zn802   1.952   .     S
O800   Zn803   1.938   .     S
C805   O864    1.267   .     A
C805   O862    1.267   .     A
C805   C815    1.439   .     S
C806   C807    1.385   .     A
C806   C833    1.413   .     A
C806   H837    1.077   .     S
C807   H838    1.084   .     S
C807   C206    1.393   1_556 S
C808   O863    1.286   .     A
C808   C814    1.467   .     S
C808   O865    1.291   .     A
C809   C810    1.417   .     A
C809   C811    1.397   .     A
C810   C813    1.423   .     A
C810   C834    1.430   .     A
C811   H844    1.085   .     S
C811   C812    1.396   .     A
C812   C830    1.489   .     S
C812   C824    1.413   .     A
C813   C829    1.493   .     S
C813   C824    1.416   .     A
C814   C882    1.347   .     S
C814   C893    1.499   .     S
C815   C948    1.347   1_455 S
C815   H980    1.086   1_455 S
C816   C825    1.393   .     A
C816   H840    1.083   .     S
C816   C823    1.401   .     A
C817   C820    1.453   .     S
C817   C1019   1.347   .     S
C817   H1048   1.088   .     S
C818   C819    1.432   .     S
C819   O866    1.270   .     A
C819   O860    1.284   .     A
C820   O867    1.275   .     A
C820   O861    1.262   .     A
C821   O854    1.273   .     A
C821   O852    1.270   .     A
C821   C824    1.460   .     S
C822   O855    1.289   .     A
C822   O853    1.288   .     A
C822   C823    1.471   .     S
C823   C827    1.399   .     A
C825   H839    1.084   .     S
C825   C832    1.403   .     A
C826   H845    1.085   .     S
C826   O856    1.221   .     D
C826   C948    1.499   1_455 S
C827   C831    1.406   .     A
C827   H841    1.077   .     S
C828   O857    1.222   .     D
C828   C1019   1.487   .     S
C828   H1049   1.085   .     S
C829   H849    1.085   .     S
C829   O858    1.221   .     D
C830   O859    1.221   .     D
C830   H850    1.085   .     S
C831   C833    1.424   .     A
C831   C832    1.417   .     A
C832   C233    1.393   1_556 S
C833   C231    1.423   1_556 S
C834   C835    1.413   .     A
C835   C836    1.389   .     A
C835   H842    1.080   .     S
C836   H843    1.084   .     S
H846   C882    1.086   .     S
O851   Zn870   1.936   .     S
O851   Zn868   1.979   .     S
O851   Zn871   1.929   .     S
O851   Zn869   1.935   .     S
O852   Zn869   1.932   .     S
O853   Zn871   1.946   .     S
O854   Zn870   1.932   .     S
O855   Zn868   1.921   .     S
O860   Zn868   1.930   .     S
O861   Zn871   1.941   .     S
O862   Zn869   1.927   .     S
O863   Zn870   1.942   .     S
O864   Zn871   1.930   .     S
O865   Zn868   1.920   .     S
O866   Zn869   1.952   .     S
O867   Zn870   1.938   .     S
C872   O931    1.267   .     A
C872   O929    1.267   .     A
C872   C882    1.439   .     S
C873   C874    1.385   .     A
C873   C900    1.413   .     A
C873   H904    1.077   .     S
C874   H905    1.084   .     S
C874   C273    1.393   1_556 S
C875   O930    1.286   .     A
C875   C881    1.467   .     S
C875   O932    1.291   .     A
C876   C877    1.417   .     A
C876   C878    1.397   .     A
C877   C880    1.423   .     A
C877   C901    1.430   .     A
C878   H911    1.085   .     S
C878   C879    1.396   .     A
C879   C897    1.489   .     S
C879   C891    1.413   .     A
C880   C896    1.493   .     S
C880   C891    1.416   .     A
C881   C949    1.347   .     S
C881   C960    1.499   .     S
C883   C892    1.393   .     A
C883   H907    1.083   .     S
C883   C890    1.401   .     A
C884   C887    1.453   .     S
C884   C1086   1.347   .     S
C884   H1115   1.088   .     S
C885   C886    1.432   .     S
C886   O933    1.270   .     A
C886   O927    1.284   .     A
C887   O934    1.275   .     A
C887   O928    1.262   .     A
C888   O921    1.273   .     A
C888   O919    1.270   .     A
C888   C891    1.460   .     S
C889   O922    1.289   .     A
C889   O920    1.288   .     A
C889   C890    1.471   .     S
C890   C894    1.399   .     A
C892   H906    1.084   .     S
C892   C899    1.403   .     A
C893   H912    1.085   .     S
C893   O923    1.221   .     D
C894   C898    1.406   .     A
C894   H908    1.077   .     S
C895   O924    1.222   .     D
C895   C1086   1.487   .     S
C895   H1116   1.085   .     S
C896   H916    1.085   .     S
C896   O925    1.221   .     D
C897   O926    1.221   .     D
C897   H917    1.085   .     S
C898   C900    1.424   .     A
C898   C899    1.417   .     A
C899   C300    1.393   1_556 S
C900   C298    1.423   1_556 S
C901   C902    1.413   .     A
C902   C903    1.389   .     A
C902   H909    1.080   .     S
C903   H910    1.084   .     S
H913   C949    1.086   .     S
O918   Zn937   1.936   .     S
O918   Zn935   1.979   .     S
O918   Zn938   1.929   .     S
O918   Zn936   1.935   .     S
O919   Zn936   1.932   .     S
O920   Zn938   1.946   .     S
O921   Zn937   1.932   .     S
O922   Zn935   1.921   .     S
O927   Zn935   1.930   .     S
O928   Zn938   1.941   .     S
O929   Zn936   1.927   .     S
O930   Zn937   1.942   .     S
O931   Zn938   1.930   .     S
O932   Zn935   1.920   .     S
O933   Zn936   1.952   .     S
O934   Zn937   1.938   .     S
C939   O998    1.267   .     A
C939   O996    1.267   .     A
C939   C949    1.439   .     S
C940   C941    1.385   .     A
C940   C967    1.413   .     A
C940   H971    1.077   .     S
C941   H972    1.084   .     S
C941   C340    1.393   1_556 S
C942   O997    1.286   .     A
C942   C948    1.467   .     S
C942   O999    1.291   .     A
C943   C944    1.417   .     A
C943   C945    1.397   .     A
C944   C947    1.423   .     A
C944   C968    1.430   .     A
C945   H978    1.085   .     S
C945   C946    1.396   .     A
C946   C964    1.489   .     S
C946   C958    1.413   .     A
C947   C963    1.493   .     S
C947   C958    1.416   .     A
C948   C815    1.347   1_655 S
C948   C826    1.499   1_655 S
C950   C959    1.393   .     A
C950   H974    1.083   .     S
C950   C957    1.401   .     A
C951   C954    1.453   .     S
C951   C1153   1.347   .     S
C951   H1182   1.088   .     S
C952   C953    1.432   .     S
C953   O1000   1.270   .     A
C953   O994    1.284   .     A
C954   O1001   1.275   .     A
C954   O995    1.262   .     A
C955   O988    1.273   .     A
C955   O986    1.270   .     A
C955   C958    1.460   .     S
C956   O989    1.289   .     A
C956   O987    1.288   .     A
C956   C957    1.471   .     S
C957   C961    1.399   .     A
C959   H973    1.084   .     S
C959   C966    1.403   .     A
C960   H979    1.085   .     S
C960   O990    1.221   .     D
C961   C965    1.406   .     A
C961   H975    1.077   .     S
C962   O991    1.222   .     D
C962   C1153   1.487   .     S
C962   H1183   1.085   .     S
C963   H983    1.085   .     S
C963   O992    1.221   .     D
C964   O993    1.221   .     D
C964   H984    1.085   .     S
C965   C967    1.424   .     A
C965   C966    1.417   .     A
C966   C367    1.393   1_556 S
C967   C365    1.423   1_556 S
C968   C969    1.413   .     A
C969   C970    1.389   .     A
C969   H976    1.080   .     S
C970   H977    1.084   .     S
H980   C815    1.086   1_655 S
O985   Zn1004  1.936   .     S
O985   Zn1002  1.979   .     S
O985   Zn1005  1.929   .     S
O985   Zn1003  1.935   .     S
O986   Zn1003  1.932   .     S
O987   Zn1005  1.946   .     S
O988   Zn1004  1.932   .     S
O989   Zn1002  1.921   .     S
O994   Zn1002  1.930   .     S
O995   Zn1005  1.941   .     S
O996   Zn1003  1.927   .     S
O997   Zn1004  1.942   .     S
O998   Zn1005  1.930   .     S
O999   Zn1002  1.920   .     S
O1000  Zn1003  1.952   .     S
O1001  Zn1004  1.938   .     S
C1006  O1065   1.267   .     A
C1006  O1063   1.267   .     A
C1006  C1016   1.439   .     S
C1007  C1008   1.385   .     A
C1007  C1034   1.413   .     A
C1007  H1038   1.077   .     S
C1008  H1039   1.084   .     S
C1008  C407    1.393   1_556 S
C1009  O1064   1.286   .     A
C1009  C1015   1.467   .     S
C1009  O1066   1.291   .     A
C1010  C1011   1.417   .     A
C1010  C1012   1.397   .     A
C1011  C1014   1.423   .     A
C1011  C1035   1.430   .     A
C1012  H1045   1.085   .     S
C1012  C1013   1.396   .     A
C1013  C1031   1.489   .     S
C1013  C1025   1.413   .     A
C1014  C1030   1.493   .     S
C1014  C1025   1.416   .     A
C1015  C1083   1.347   .     S
C1015  C1094   1.499   .     S
C1016  C1149   1.347   1_455 S
C1016  H1181   1.086   1_455 S
C1017  C1026   1.393   .     A
C1017  H1041   1.083   .     S
C1017  C1024   1.401   .     A
C1018  C1021   1.453   .     S
C1018  C617    1.347   1_565 S
C1018  H646    1.088   1_565 S
C1019  C1020   1.432   .     S
C1020  O1067   1.270   .     A
C1020  O1061   1.284   .     A
C1021  O1068   1.275   .     A
C1021  O1062   1.262   .     A
C1022  O1055   1.273   .     A
C1022  O1053   1.270   .     A
C1022  C1025   1.460   .     S
C1023  O1056   1.289   .     A
C1023  O1054   1.288   .     A
C1023  C1024   1.471   .     S
C1024  C1028   1.399   .     A
C1026  H1040   1.084   .     S
C1026  C1033   1.403   .     A
C1027  H1046   1.085   .     S
C1027  O1057   1.221   .     D
C1027  C1149   1.499   1_455 S
C1028  C1032   1.406   .     A
C1028  H1042   1.077   .     S
C1029  O1058   1.222   .     D
C1029  C617    1.487   1_565 S
C1029  H647    1.085   1_565 S
C1030  H1050   1.085   .     S
C1030  O1059   1.221   .     D
C1031  O1060   1.221   .     D
C1031  H1051   1.085   .     S
C1032  C1034   1.424   .     A
C1032  C1033   1.417   .     A
C1033  C434    1.393   1_556 S
C1034  C432    1.423   1_556 S
C1035  C1036   1.413   .     A
C1036  C1037   1.389   .     A
C1036  H1043   1.080   .     S
C1037  H1044   1.084   .     S
H1047  C1083   1.086   .     S
O1052  Zn1071  1.936   .     S
O1052  Zn1069  1.979   .     S
O1052  Zn1072  1.929   .     S
O1052  Zn1070  1.935   .     S
O1053  Zn1070  1.932   .     S
O1054  Zn1072  1.946   .     S
O1055  Zn1071  1.932   .     S
O1056  Zn1069  1.921   .     S
O1061  Zn1069  1.930   .     S
O1062  Zn1072  1.941   .     S
O1063  Zn1070  1.927   .     S
O1064  Zn1071  1.942   .     S
O1065  Zn1072  1.930   .     S
O1066  Zn1069  1.920   .     S
O1067  Zn1070  1.952   .     S
O1068  Zn1071  1.938   .     S
C1073  O1132   1.267   .     A
C1073  O1130   1.267   .     A
C1073  C1083   1.439   .     S
C1074  C1075   1.385   .     A
C1074  C1101   1.413   .     A
C1074  H1105   1.077   .     S
C1075  H1106   1.084   .     S
C1075  C474    1.393   1_556 S
C1076  O1131   1.286   .     A
C1076  C1082   1.467   .     S
C1076  O1133   1.291   .     A
C1077  C1078   1.417   .     A
C1077  C1079   1.397   .     A
C1078  C1081   1.423   .     A
C1078  C1102   1.430   .     A
C1079  H1112   1.085   .     S
C1079  C1080   1.396   .     A
C1080  C1098   1.489   .     S
C1080  C1092   1.413   .     A
C1081  C1097   1.493   .     S
C1081  C1092   1.416   .     A
C1082  C1150   1.347   .     S
C1082  C1161   1.499   .     S
C1084  C1093   1.393   .     A
C1084  H1108   1.083   .     S
C1084  C1091   1.401   .     A
C1085  C1088   1.453   .     S
C1085  C684    1.347   1_565 S
C1085  H713    1.088   1_565 S
C1086  C1087   1.432   .     S
C1087  O1134   1.270   .     A
C1087  O1128   1.284   .     A
C1088  O1135   1.275   .     A
C1088  O1129   1.262   .     A
C1089  O1122   1.273   .     A
C1089  O1120   1.270   .     A
C1089  C1092   1.460   .     S
C1090  O1123   1.289   .     A
C1090  O1121   1.288   .     A
C1090  C1091   1.471   .     S
C1091  C1095   1.399   .     A
C1093  H1107   1.084   .     S
C1093  C1100   1.403   .     A
C1094  H1113   1.085   .     S
C1094  O1124   1.221   .     D
C1095  C1099   1.406   .     A
C1095  H1109   1.077   .     S
C1096  O1125   1.222   .     D
C1096  C684    1.487   1_565 S
C1096  H714    1.085   1_565 S
C1097  H1117   1.085   .     S
C1097  O1126   1.221   .     D
C1098  O1127   1.221   .     D
C1098  H1118   1.085   .     S
C1099  C1101   1.424   .     A
C1099  C1100   1.417   .     A
C1100  C501    1.393   1_556 S
C1101  C499    1.423   1_556 S
C1102  C1103   1.413   .     A
C1103  C1104   1.389   .     A
C1103  H1110   1.080   .     S
C1104  H1111   1.084   .     S
H1114  C1150   1.086   .     S
O1119  Zn1138  1.936   .     S
O1119  Zn1136  1.979   .     S
O1119  Zn1139  1.929   .     S
O1119  Zn1137  1.935   .     S
O1120  Zn1137  1.932   .     S
O1121  Zn1139  1.946   .     S
O1122  Zn1138  1.932   .     S
O1123  Zn1136  1.921   .     S
O1128  Zn1136  1.930   .     S
O1129  Zn1139  1.941   .     S
O1130  Zn1137  1.927   .     S
O1131  Zn1138  1.942   .     S
O1132  Zn1139  1.930   .     S
O1133  Zn1136  1.920   .     S
O1134  Zn1137  1.952   .     S
O1135  Zn1138  1.938   .     S
C1140  O1199   1.267   .     A
C1140  O1197   1.267   .     A
C1140  C1150   1.439   .     S
C1141  C1142   1.385   .     A
C1141  C1168   1.413   .     A
C1141  H1172   1.077   .     S
C1142  H1173   1.084   .     S
C1142  C541    1.393   1_556 S
C1143  O1198   1.286   .     A
C1143  C1149   1.467   .     S
C1143  O1200   1.291   .     A
C1144  C1145   1.417   .     A
C1144  C1146   1.397   .     A
C1145  C1148   1.423   .     A
C1145  C1169   1.430   .     A
C1146  H1179   1.085   .     S
C1146  C1147   1.396   .     A
C1147  C1165   1.489   .     S
C1147  C1159   1.413   .     A
C1148  C1164   1.493   .     S
C1148  C1159   1.416   .     A
C1149  C1016   1.347   1_655 S
C1149  C1027   1.499   1_655 S
C1151  C1160   1.393   .     A
C1151  H1175   1.083   .     S
C1151  C1158   1.401   .     A
C1152  C1155   1.453   .     S
C1152  C751    1.347   1_565 S
C1152  H780    1.088   1_565 S
C1153  C1154   1.432   .     S
C1154  O1201   1.270   .     A
C1154  O1195   1.284   .     A
C1155  O1202   1.275   .     A
C1155  O1196   1.262   .     A
C1156  O1189   1.273   .     A
C1156  O1187   1.270   .     A
C1156  C1159   1.460   .     S
C1157  O1190   1.289   .     A
C1157  O1188   1.288   .     A
C1157  C1158   1.471   .     S
C1158  C1162   1.399   .     A
C1160  H1174   1.084   .     S
C1160  C1167   1.403   .     A
C1161  H1180   1.085   .     S
C1161  O1191   1.221   .     D
C1162  C1166   1.406   .     A
C1162  H1176   1.077   .     S
C1163  O1192   1.222   .     D
C1163  C751    1.487   1_565 S
C1163  H781    1.085   1_565 S
C1164  H1184   1.085   .     S
C1164  O1193   1.221   .     D
C1165  O1194   1.221   .     D
C1165  H1185   1.085   .     S
C1166  C1168   1.424   .     A
C1166  C1167   1.417   .     A
C1167  C568    1.393   1_556 S
C1168  C566    1.423   1_556 S
C1169  C1170   1.413   .     A
C1170  C1171   1.389   .     A
C1170  H1177   1.080   .     S
C1171  H1178   1.084   .     S
H1181  C1016   1.086   1_655 S
O1186  Zn1205  1.936   .     S
O1186  Zn1203  1.979   .     S
O1186  Zn1206  1.929   .     S
O1186  Zn1204  1.935   .     S
O1187  Zn1204  1.932   .     S
O1188  Zn1206  1.946   .     S
O1189  Zn1205  1.932   .     S
O1190  Zn1203  1.921   .     S
O1195  Zn1203  1.930   .     S
O1196  Zn1206  1.941   .     S
O1197  Zn1204  1.927   .     S
O1198  Zn1205  1.942   .     S
O1199  Zn1206  1.930   .     S
O1200  Zn1203  1.920   .     S
O1201  Zn1204  1.952   .     S
O1202  Zn1205  1.938   .     S
