data_str_m1_o10_o16_pcu_sym.121
_audit_creation_date              2020-01-03
_audit_creation_method            'Materials Studio'
_symmetry_space_group_name_H-M    'P1'
_symmetry_Int_Tables_number       1
_symmetry_cell_setting            triclinic
loop_
_symmetry_equiv_pos_as_xyz
  x,y,z
_cell_length_a                    32.4770
_cell_length_b                    32.7811
_cell_length_c                    31.0677
_cell_angle_alpha                 96.7843
_cell_angle_beta                  74.5282
_cell_angle_gamma                 98.2835
loop_
_atom_site_label
_atom_site_type_symbol
_atom_site_fract_x
_atom_site_fract_y
_atom_site_fract_z
_atom_site_U_iso_or_equiv
_atom_site_adp_type
_atom_site_occupancy
C1     C     0.05273   0.15968   0.26018   0.00000  Uiso   1.00
C2     C     0.17029   0.16317   0.06095   0.00000  Uiso   1.00
C3     C     0.21597   0.10915   0.05610   0.00000  Uiso   1.00
C4     C     0.28074   0.17380   0.23997   0.00000  Uiso   1.00
C5     C     0.14143   0.19368   0.42024   0.00000  Uiso   1.00
C6     C     0.32671   0.17649   0.23577   0.00000  Uiso   1.00
C7     C     0.00745   0.15764   0.26400   0.00000  Uiso   1.00
C8     C     0.17686   0.32156   0.23452   0.00000  Uiso   1.00
C9     C     0.15218   0.01309   0.26621   0.00000  Uiso   1.00
C10    C     0.15625   0.05626   0.26037   0.00000  Uiso   1.00
C11    C     0.17610   0.27785   0.24014   0.00000  Uiso   1.00
C12    C     0.13332   0.24685   0.48272   0.00000  Uiso   1.00
C13    C     0.18553   0.14793   0.12944   0.00000  Uiso   1.00
C14    C     0.14781   0.18418   0.37118   0.00000  Uiso   1.00
C15    C     0.21211   0.09672   0.01260   0.00000  Uiso   1.00
C16    C     0.19226   0.14066   0.08116   0.00000  Uiso   1.00
C17    C     0.13025   0.23306   0.43934   0.00000  Uiso   1.00
C18    C     0.14796   0.22167   0.00720   0.00000  Uiso   1.00
C19    C     0.15603   0.18074   0.49080   0.00000  Uiso   1.00
C20    C     0.15180   0.16641   0.44705   0.00000  Uiso   1.00
C21    C     0.17148   0.15468   0.01512   0.00000  Uiso   1.00
C22    C     0.18819   0.11791   0.49284   0.00000  Uiso   1.00
C23    C     0.17974   0.10259   0.45171   0.00000  Uiso   1.00
C24    C     0.15916   0.12540   0.43084   0.00000  Uiso   1.00
F25    F     0.19005   0.06489   0.43203   0.00000  Uiso   1.00
F26    F     0.23257   0.06448   0.48927   0.00000  Uiso   1.00
F27    F     0.14407   0.18984   0.08780   0.00000  Uiso   1.00
F28    F     0.11948   0.25943   0.41467   0.00000  Uiso   1.00
F29    F     0.02149   0.19812   0.20310   0.00000  Uiso   1.00
H30    H     0.31895   0.14045   0.29048   0.00000  Uiso   1.00
H31    H     0.15502   0.23578   0.03791   0.00000  Uiso   1.00
H32    H     0.15013   0.11059   0.40124   0.00000  Uiso   1.00
H33    H     0.27354   0.12486   0.12818   0.00000  Uiso   1.00
H34    H     0.26003   0.32049   0.12726   0.00000  Uiso   1.00
H35    H     0.09414   0.03461   0.38325   0.00000  Uiso   1.00
H36    H     0.10053   0.33280   0.46304   0.00000  Uiso   1.00
O37    O     0.16667   0.16667   0.25000   0.00000  Uiso   1.00
O38    O     0.15451   0.12637   0.15458   0.00000  Uiso   1.00
O39    O     0.12940   0.20391   0.34968   0.00000  Uiso   1.00
O40    O     0.20824   0.17759   0.14606   0.00000  Uiso   1.00
O41    O     0.17451   0.15880   0.34968   0.00000  Uiso   1.00
O42    O     0.23700   0.03846   0.07410   0.00000  Uiso   1.00
O43    O     0.29560   0.09199   0.04766   0.00000  Uiso   1.00
O44    O     0.25099   0.10082   0.13030   0.00000  Uiso   1.00
O45    O     0.18263   0.02399   0.15961   0.00000  Uiso   1.00
O46    O     0.24195   0.04282   0.19584   0.00000  Uiso   1.00
O47    O     0.23769   0.30498   0.14977   0.00000  Uiso   1.00
O48    O     0.17930   0.08019   0.28213   0.00000  Uiso   1.00
O49    O     0.08322   0.30382   0.31825   0.00000  Uiso   1.00
O50    O     0.15024   0.31463   0.34291   0.00000  Uiso   1.00
O51    O     0.10629   0.04334   0.35250   0.00000  Uiso   1.00
O52    O     0.10873   0.29915   0.05545   0.00000  Uiso   1.00
O53    O     0.16432   0.32615   0.49214   0.00000  Uiso   1.00
O54    O     0.08505   0.31321   0.48560   0.00000  Uiso   1.00
O55    O     0.14632   0.26085   0.27013   0.00000  Uiso   1.00
O56    O     0.07412   0.13291   0.23413   0.00000  Uiso   1.00
O57    O     0.26693   0.19272   0.21360   0.00000  Uiso   1.00
O58    O     0.07071   0.18878   0.28213   0.00000  Uiso   1.00
O59    O     0.25491   0.15226   0.27013   0.00000  Uiso   1.00
O60    O     0.13760   0.06944   0.23413   0.00000  Uiso   1.00
O61    O     0.20345   0.25620   0.21360   0.00000  Uiso   1.00
S62    S     0.25071   0.08424   0.07703   0.00000  Uiso   1.00
S63    S     0.21038   0.00792   0.18396   0.00000  Uiso   1.00
S64    S     0.12238   0.00031   0.32102   0.00000  Uiso   1.00
S65    S     0.12329   0.29759   0.00519   0.00000  Uiso   1.00
Zn66   Zn    0.19338   0.13994   0.28734   0.00000  Uiso   1.00
Zn67   Zn    0.13379   0.12458   0.21875   0.00000  Uiso   1.00
Zn68   Zn    0.21056   0.19775   0.20657   0.00000  Uiso   1.00
Zn69   Zn    0.12893   0.20439   0.28733   0.00000  Uiso   1.00
C70    C     0.38607   0.15968   0.26018   0.00000  Uiso   1.00
C71    C     0.50362   0.16317   0.06095   0.00000  Uiso   1.00
C72    C     0.54931   0.10915   0.05610   0.00000  Uiso   1.00
C73    C     0.61407   0.17380   0.23997   0.00000  Uiso   1.00
C74    C     0.47477   0.19368   0.42024   0.00000  Uiso   1.00
C75    C     0.66004   0.17649   0.23577   0.00000  Uiso   1.00
C76    C     0.34078   0.15764   0.26400   0.00000  Uiso   1.00
C77    C     0.51019   0.32156   0.23452   0.00000  Uiso   1.00
C78    C     0.48552   0.01309   0.26621   0.00000  Uiso   1.00
C79    C     0.48959   0.05626   0.26037   0.00000  Uiso   1.00
C80    C     0.50943   0.27785   0.24014   0.00000  Uiso   1.00
C81    C     0.46665   0.24685   0.48272   0.00000  Uiso   1.00
C82    C     0.51886   0.14793   0.12944   0.00000  Uiso   1.00
C83    C     0.48115   0.18418   0.37118   0.00000  Uiso   1.00
C84    C     0.54544   0.09672   0.01260   0.00000  Uiso   1.00
C85    C     0.52560   0.14066   0.08116   0.00000  Uiso   1.00
C86    C     0.46358   0.23306   0.43934   0.00000  Uiso   1.00
C87    C     0.48129   0.22167   0.00720   0.00000  Uiso   1.00
C88    C     0.48936   0.18074   0.49080   0.00000  Uiso   1.00
C89    C     0.48513   0.16641   0.44705   0.00000  Uiso   1.00
C90    C     0.50481   0.15468   0.01512   0.00000  Uiso   1.00
C91    C     0.52152   0.11791   0.49284   0.00000  Uiso   1.00
C92    C     0.51307   0.10259   0.45171   0.00000  Uiso   1.00
C93    C     0.49249   0.12540   0.43084   0.00000  Uiso   1.00
F94    F     0.52339   0.06489   0.43203   0.00000  Uiso   1.00
F95    F     0.56591   0.06448   0.48927   0.00000  Uiso   1.00
F96    F     0.47740   0.18984   0.08780   0.00000  Uiso   1.00
F97    F     0.45282   0.25943   0.41467   0.00000  Uiso   1.00
F98    F     0.35482   0.19812   0.20310   0.00000  Uiso   1.00
H99    H     0.65228   0.14045   0.29048   0.00000  Uiso   1.00
H100   H     0.48835   0.23578   0.03791   0.00000  Uiso   1.00
H101   H     0.48346   0.11059   0.40124   0.00000  Uiso   1.00
H102   H     0.60687   0.12486   0.12818   0.00000  Uiso   1.00
H103   H     0.59336   0.32049   0.12726   0.00000  Uiso   1.00
H104   H     0.42748   0.03461   0.38325   0.00000  Uiso   1.00
H105   H     0.43386   0.33280   0.46304   0.00000  Uiso   1.00
O106   O     0.50000   0.16667   0.25000   0.00000  Uiso   1.00
O107   O     0.48784   0.12637   0.15458   0.00000  Uiso   1.00
O108   O     0.46274   0.20391   0.34968   0.00000  Uiso   1.00
O109   O     0.54157   0.17759   0.14606   0.00000  Uiso   1.00
O110   O     0.50785   0.15880   0.34968   0.00000  Uiso   1.00
O111   O     0.57033   0.03846   0.07410   0.00000  Uiso   1.00
O112   O     0.62894   0.09199   0.04766   0.00000  Uiso   1.00
O113   O     0.58433   0.10082   0.13030   0.00000  Uiso   1.00
O114   O     0.51596   0.02399   0.15961   0.00000  Uiso   1.00
O115   O     0.57528   0.04282   0.19584   0.00000  Uiso   1.00
O116   O     0.57103   0.30498   0.14977   0.00000  Uiso   1.00
O117   O     0.51264   0.08019   0.28213   0.00000  Uiso   1.00
O118   O     0.41655   0.30382   0.31825   0.00000  Uiso   1.00
O119   O     0.48357   0.31463   0.34291   0.00000  Uiso   1.00
O120   O     0.43962   0.04334   0.35250   0.00000  Uiso   1.00
O121   O     0.44207   0.29915   0.05545   0.00000  Uiso   1.00
O122   O     0.49766   0.32615   0.49214   0.00000  Uiso   1.00
O123   O     0.41838   0.31321   0.48560   0.00000  Uiso   1.00
O124   O     0.47965   0.26085   0.27013   0.00000  Uiso   1.00
O125   O     0.40745   0.13291   0.23413   0.00000  Uiso   1.00
O126   O     0.60026   0.19272   0.21360   0.00000  Uiso   1.00
O127   O     0.40405   0.18878   0.28213   0.00000  Uiso   1.00
O128   O     0.58824   0.15226   0.27013   0.00000  Uiso   1.00
O129   O     0.47093   0.06944   0.23413   0.00000  Uiso   1.00
O130   O     0.53678   0.25620   0.21360   0.00000  Uiso   1.00
S131   S     0.58405   0.08424   0.07703   0.00000  Uiso   1.00
S132   S     0.54372   0.00792   0.18396   0.00000  Uiso   1.00
S133   S     0.45571   0.00031   0.32102   0.00000  Uiso   1.00
S134   S     0.45662   0.29759   0.00519   0.00000  Uiso   1.00
Zn135  Zn    0.52672   0.13994   0.28734   0.00000  Uiso   1.00
Zn136  Zn    0.46713   0.12458   0.21875   0.00000  Uiso   1.00
Zn137  Zn    0.54389   0.19775   0.20657   0.00000  Uiso   1.00
Zn138  Zn    0.46226   0.20439   0.28733   0.00000  Uiso   1.00
C139   C     0.71940   0.15968   0.26018   0.00000  Uiso   1.00
C140   C     0.83695   0.16317   0.06095   0.00000  Uiso   1.00
C141   C     0.88264   0.10915   0.05610   0.00000  Uiso   1.00
C142   C     0.94741   0.17380   0.23997   0.00000  Uiso   1.00
C143   C     0.80810   0.19368   0.42024   0.00000  Uiso   1.00
C144   C     0.99337   0.17649   0.23577   0.00000  Uiso   1.00
C145   C     0.67412   0.15764   0.26400   0.00000  Uiso   1.00
C146   C     0.84353   0.32156   0.23452   0.00000  Uiso   1.00
C147   C     0.81885   0.01309   0.26621   0.00000  Uiso   1.00
C148   C     0.82292   0.05626   0.26037   0.00000  Uiso   1.00
C149   C     0.84276   0.27785   0.24014   0.00000  Uiso   1.00
C150   C     0.79998   0.24685   0.48272   0.00000  Uiso   1.00
C151   C     0.85220   0.14793   0.12944   0.00000  Uiso   1.00
C152   C     0.81448   0.18418   0.37118   0.00000  Uiso   1.00
C153   C     0.87878   0.09672   0.01260   0.00000  Uiso   1.00
C154   C     0.85893   0.14066   0.08116   0.00000  Uiso   1.00
C155   C     0.79691   0.23306   0.43934   0.00000  Uiso   1.00
C156   C     0.81462   0.22167   0.00720   0.00000  Uiso   1.00
C157   C     0.82269   0.18074   0.49080   0.00000  Uiso   1.00
C158   C     0.81846   0.16641   0.44705   0.00000  Uiso   1.00
C159   C     0.83815   0.15468   0.01512   0.00000  Uiso   1.00
C160   C     0.85485   0.11791   0.49284   0.00000  Uiso   1.00
C161   C     0.84641   0.10259   0.45171   0.00000  Uiso   1.00
C162   C     0.82582   0.12540   0.43084   0.00000  Uiso   1.00
F163   F     0.85672   0.06489   0.43203   0.00000  Uiso   1.00
F164   F     0.89924   0.06448   0.48927   0.00000  Uiso   1.00
F165   F     0.81073   0.18984   0.08780   0.00000  Uiso   1.00
F166   F     0.78615   0.25943   0.41467   0.00000  Uiso   1.00
F167   F     0.68815   0.19812   0.20310   0.00000  Uiso   1.00
H168   H     0.98562   0.14045   0.29048   0.00000  Uiso   1.00
H169   H     0.82168   0.23578   0.03791   0.00000  Uiso   1.00
H170   H     0.81680   0.11059   0.40124   0.00000  Uiso   1.00
H171   H     0.94020   0.12486   0.12818   0.00000  Uiso   1.00
H172   H     0.92670   0.32049   0.12726   0.00000  Uiso   1.00
H173   H     0.76081   0.03461   0.38325   0.00000  Uiso   1.00
H174   H     0.76719   0.33280   0.46304   0.00000  Uiso   1.00
O175   O     0.83333   0.16667   0.25000   0.00000  Uiso   1.00
O176   O     0.82118   0.12637   0.15458   0.00000  Uiso   1.00
O177   O     0.79607   0.20391   0.34968   0.00000  Uiso   1.00
O178   O     0.87491   0.17759   0.14606   0.00000  Uiso   1.00
O179   O     0.84118   0.15880   0.34968   0.00000  Uiso   1.00
O180   O     0.90366   0.03846   0.07410   0.00000  Uiso   1.00
O181   O     0.96227   0.09199   0.04766   0.00000  Uiso   1.00
O182   O     0.91766   0.10082   0.13030   0.00000  Uiso   1.00
O183   O     0.84929   0.02399   0.15961   0.00000  Uiso   1.00
O184   O     0.90862   0.04282   0.19584   0.00000  Uiso   1.00
O185   O     0.90436   0.30498   0.14977   0.00000  Uiso   1.00
O186   O     0.84597   0.08019   0.28213   0.00000  Uiso   1.00
O187   O     0.74988   0.30382   0.31825   0.00000  Uiso   1.00
O188   O     0.81691   0.31463   0.34291   0.00000  Uiso   1.00
O189   O     0.77295   0.04334   0.35250   0.00000  Uiso   1.00
O190   O     0.77540   0.29915   0.05545   0.00000  Uiso   1.00
O191   O     0.83099   0.32615   0.49214   0.00000  Uiso   1.00
O192   O     0.75171   0.31321   0.48560   0.00000  Uiso   1.00
O193   O     0.81298   0.26085   0.27013   0.00000  Uiso   1.00
O194   O     0.74078   0.13291   0.23413   0.00000  Uiso   1.00
O195   O     0.93360   0.19272   0.21360   0.00000  Uiso   1.00
O196   O     0.73738   0.18878   0.28213   0.00000  Uiso   1.00
O197   O     0.92158   0.15226   0.27013   0.00000  Uiso   1.00
O198   O     0.80426   0.06944   0.23413   0.00000  Uiso   1.00
O199   O     0.87012   0.25620   0.21360   0.00000  Uiso   1.00
S200   S     0.91738   0.08424   0.07703   0.00000  Uiso   1.00
S201   S     0.87705   0.00792   0.18396   0.00000  Uiso   1.00
S202   S     0.78904   0.00031   0.32102   0.00000  Uiso   1.00
S203   S     0.78996   0.29759   0.00519   0.00000  Uiso   1.00
Zn204  Zn    0.86005   0.13994   0.28734   0.00000  Uiso   1.00
Zn205  Zn    0.80046   0.12458   0.21875   0.00000  Uiso   1.00
Zn206  Zn    0.87723   0.19775   0.20657   0.00000  Uiso   1.00
Zn207  Zn    0.79560   0.20439   0.28733   0.00000  Uiso   1.00
C208   C     0.05273   0.49301   0.26018   0.00000  Uiso   1.00
C209   C     0.17029   0.49651   0.06095   0.00000  Uiso   1.00
C210   C     0.21597   0.44248   0.05610   0.00000  Uiso   1.00
C211   C     0.28074   0.50713   0.23997   0.00000  Uiso   1.00
C212   C     0.14143   0.52702   0.42024   0.00000  Uiso   1.00
C213   C     0.32671   0.50983   0.23577   0.00000  Uiso   1.00
C214   C     0.00745   0.49097   0.26400   0.00000  Uiso   1.00
C215   C     0.17686   0.65489   0.23452   0.00000  Uiso   1.00
C216   C     0.15218   0.34642   0.26621   0.00000  Uiso   1.00
C217   C     0.15625   0.38960   0.26037   0.00000  Uiso   1.00
C218   C     0.17610   0.61118   0.24014   0.00000  Uiso   1.00
C219   C     0.13332   0.58018   0.48272   0.00000  Uiso   1.00
C220   C     0.18553   0.48127   0.12944   0.00000  Uiso   1.00
C221   C     0.14781   0.51751   0.37118   0.00000  Uiso   1.00
C222   C     0.21211   0.43006   0.01260   0.00000  Uiso   1.00
C223   C     0.19226   0.47399   0.08116   0.00000  Uiso   1.00
C224   C     0.13025   0.56639   0.43934   0.00000  Uiso   1.00
C225   C     0.14796   0.55500   0.00720   0.00000  Uiso   1.00
C226   C     0.15603   0.51408   0.49080   0.00000  Uiso   1.00
C227   C     0.15180   0.49974   0.44705   0.00000  Uiso   1.00
C228   C     0.17148   0.48801   0.01512   0.00000  Uiso   1.00
C229   C     0.18819   0.45125   0.49284   0.00000  Uiso   1.00
C230   C     0.17974   0.43592   0.45171   0.00000  Uiso   1.00
C231   C     0.15916   0.45873   0.43084   0.00000  Uiso   1.00
F232   F     0.19005   0.39822   0.43203   0.00000  Uiso   1.00
F233   F     0.23257   0.39782   0.48927   0.00000  Uiso   1.00
F234   F     0.14407   0.52317   0.08780   0.00000  Uiso   1.00
F235   F     0.11948   0.59276   0.41467   0.00000  Uiso   1.00
F236   F     0.02149   0.53145   0.20310   0.00000  Uiso   1.00
H237   H     0.31895   0.47378   0.29048   0.00000  Uiso   1.00
H238   H     0.15502   0.56911   0.03791   0.00000  Uiso   1.00
H239   H     0.15013   0.44393   0.40124   0.00000  Uiso   1.00
H240   H     0.27354   0.45819   0.12818   0.00000  Uiso   1.00
H241   H     0.26003   0.65382   0.12726   0.00000  Uiso   1.00
H242   H     0.09414   0.36794   0.38325   0.00000  Uiso   1.00
H243   H     0.10053   0.66613   0.46304   0.00000  Uiso   1.00
O244   O     0.16667   0.50000   0.25000   0.00000  Uiso   1.00
O245   O     0.15451   0.45970   0.15458   0.00000  Uiso   1.00
O246   O     0.12940   0.53724   0.34968   0.00000  Uiso   1.00
O247   O     0.20824   0.51092   0.14606   0.00000  Uiso   1.00
O248   O     0.17451   0.49213   0.34968   0.00000  Uiso   1.00
O249   O     0.23700   0.37179   0.07410   0.00000  Uiso   1.00
O250   O     0.29560   0.42532   0.04766   0.00000  Uiso   1.00
O251   O     0.25099   0.43416   0.13030   0.00000  Uiso   1.00
O252   O     0.18263   0.35732   0.15961   0.00000  Uiso   1.00
O253   O     0.24195   0.37615   0.19584   0.00000  Uiso   1.00
O254   O     0.23769   0.63831   0.14977   0.00000  Uiso   1.00
O255   O     0.17930   0.41352   0.28213   0.00000  Uiso   1.00
O256   O     0.08322   0.63715   0.31825   0.00000  Uiso   1.00
O257   O     0.15024   0.64796   0.34291   0.00000  Uiso   1.00
O258   O     0.10629   0.37667   0.35250   0.00000  Uiso   1.00
O259   O     0.10873   0.63248   0.05545   0.00000  Uiso   1.00
O260   O     0.16432   0.65948   0.49214   0.00000  Uiso   1.00
O261   O     0.08505   0.64654   0.48560   0.00000  Uiso   1.00
O262   O     0.14632   0.59418   0.27013   0.00000  Uiso   1.00
O263   O     0.07412   0.46625   0.23413   0.00000  Uiso   1.00
O264   O     0.26693   0.52605   0.21360   0.00000  Uiso   1.00
O265   O     0.07071   0.52211   0.28213   0.00000  Uiso   1.00
O266   O     0.25491   0.48559   0.27013   0.00000  Uiso   1.00
O267   O     0.13760   0.40277   0.23413   0.00000  Uiso   1.00
O268   O     0.20345   0.58953   0.21360   0.00000  Uiso   1.00
S269   S     0.25071   0.41758   0.07703   0.00000  Uiso   1.00
S270   S     0.21038   0.34126   0.18396   0.00000  Uiso   1.00
S271   S     0.12238   0.33364   0.32102   0.00000  Uiso   1.00
S272   S     0.12329   0.63092   0.00519   0.00000  Uiso   1.00
Zn273  Zn    0.19338   0.47327   0.28734   0.00000  Uiso   1.00
Zn274  Zn    0.13379   0.45791   0.21875   0.00000  Uiso   1.00
Zn275  Zn    0.21056   0.53109   0.20657   0.00000  Uiso   1.00
Zn276  Zn    0.12893   0.53773   0.28733   0.00000  Uiso   1.00
C277   C     0.38607   0.49301   0.26018   0.00000  Uiso   1.00
C278   C     0.50362   0.49651   0.06095   0.00000  Uiso   1.00
C279   C     0.54931   0.44248   0.05610   0.00000  Uiso   1.00
C280   C     0.61407   0.50713   0.23997   0.00000  Uiso   1.00
C281   C     0.47477   0.52702   0.42024   0.00000  Uiso   1.00
C282   C     0.66004   0.50983   0.23577   0.00000  Uiso   1.00
C283   C     0.34078   0.49097   0.26400   0.00000  Uiso   1.00
C284   C     0.51019   0.65489   0.23452   0.00000  Uiso   1.00
C285   C     0.48552   0.34642   0.26621   0.00000  Uiso   1.00
C286   C     0.48959   0.38960   0.26037   0.00000  Uiso   1.00
C287   C     0.50943   0.61118   0.24014   0.00000  Uiso   1.00
C288   C     0.46665   0.58018   0.48272   0.00000  Uiso   1.00
C289   C     0.51886   0.48127   0.12944   0.00000  Uiso   1.00
C290   C     0.48115   0.51751   0.37118   0.00000  Uiso   1.00
C291   C     0.54544   0.43006   0.01260   0.00000  Uiso   1.00
C292   C     0.52560   0.47399   0.08116   0.00000  Uiso   1.00
C293   C     0.46358   0.56639   0.43934   0.00000  Uiso   1.00
C294   C     0.48129   0.55500   0.00720   0.00000  Uiso   1.00
C295   C     0.48936   0.51408   0.49080   0.00000  Uiso   1.00
C296   C     0.48513   0.49974   0.44705   0.00000  Uiso   1.00
C297   C     0.50481   0.48801   0.01512   0.00000  Uiso   1.00
C298   C     0.52152   0.45125   0.49284   0.00000  Uiso   1.00
C299   C     0.51307   0.43592   0.45171   0.00000  Uiso   1.00
C300   C     0.49249   0.45873   0.43084   0.00000  Uiso   1.00
F301   F     0.52339   0.39822   0.43203   0.00000  Uiso   1.00
F302   F     0.56591   0.39782   0.48927   0.00000  Uiso   1.00
F303   F     0.47740   0.52317   0.08780   0.00000  Uiso   1.00
F304   F     0.45282   0.59276   0.41467   0.00000  Uiso   1.00
F305   F     0.35482   0.53145   0.20310   0.00000  Uiso   1.00
H306   H     0.65228   0.47378   0.29048   0.00000  Uiso   1.00
H307   H     0.48835   0.56911   0.03791   0.00000  Uiso   1.00
H308   H     0.48346   0.44393   0.40124   0.00000  Uiso   1.00
H309   H     0.60687   0.45819   0.12818   0.00000  Uiso   1.00
H310   H     0.59336   0.65382   0.12726   0.00000  Uiso   1.00
H311   H     0.42748   0.36794   0.38325   0.00000  Uiso   1.00
H312   H     0.43386   0.66613   0.46304   0.00000  Uiso   1.00
O313   O     0.50000   0.50000   0.25000   0.00000  Uiso   1.00
O314   O     0.48784   0.45970   0.15458   0.00000  Uiso   1.00
O315   O     0.46274   0.53724   0.34968   0.00000  Uiso   1.00
O316   O     0.54157   0.51092   0.14606   0.00000  Uiso   1.00
O317   O     0.50785   0.49213   0.34968   0.00000  Uiso   1.00
O318   O     0.57033   0.37179   0.07410   0.00000  Uiso   1.00
O319   O     0.62894   0.42532   0.04766   0.00000  Uiso   1.00
O320   O     0.58433   0.43416   0.13030   0.00000  Uiso   1.00
O321   O     0.51596   0.35732   0.15961   0.00000  Uiso   1.00
O322   O     0.57528   0.37615   0.19584   0.00000  Uiso   1.00
O323   O     0.57103   0.63831   0.14977   0.00000  Uiso   1.00
O324   O     0.51264   0.41352   0.28213   0.00000  Uiso   1.00
O325   O     0.41655   0.63715   0.31825   0.00000  Uiso   1.00
O326   O     0.48357   0.64796   0.34291   0.00000  Uiso   1.00
O327   O     0.43962   0.37667   0.35250   0.00000  Uiso   1.00
O328   O     0.44207   0.63248   0.05545   0.00000  Uiso   1.00
O329   O     0.49766   0.65948   0.49214   0.00000  Uiso   1.00
O330   O     0.41838   0.64654   0.48560   0.00000  Uiso   1.00
O331   O     0.47965   0.59418   0.27013   0.00000  Uiso   1.00
O332   O     0.40745   0.46625   0.23413   0.00000  Uiso   1.00
O333   O     0.60026   0.52605   0.21360   0.00000  Uiso   1.00
O334   O     0.40405   0.52211   0.28213   0.00000  Uiso   1.00
O335   O     0.58824   0.48559   0.27013   0.00000  Uiso   1.00
O336   O     0.47093   0.40277   0.23413   0.00000  Uiso   1.00
O337   O     0.53678   0.58953   0.21360   0.00000  Uiso   1.00
S338   S     0.58405   0.41758   0.07703   0.00000  Uiso   1.00
S339   S     0.54372   0.34126   0.18396   0.00000  Uiso   1.00
S340   S     0.45571   0.33364   0.32102   0.00000  Uiso   1.00
S341   S     0.45662   0.63092   0.00519   0.00000  Uiso   1.00
Zn342  Zn    0.52672   0.47327   0.28734   0.00000  Uiso   1.00
Zn343  Zn    0.46713   0.45791   0.21875   0.00000  Uiso   1.00
Zn344  Zn    0.54389   0.53109   0.20657   0.00000  Uiso   1.00
Zn345  Zn    0.46226   0.53773   0.28733   0.00000  Uiso   1.00
C346   C     0.71940   0.49301   0.26018   0.00000  Uiso   1.00
C347   C     0.83695   0.49651   0.06095   0.00000  Uiso   1.00
C348   C     0.88264   0.44248   0.05610   0.00000  Uiso   1.00
C349   C     0.94741   0.50713   0.23997   0.00000  Uiso   1.00
C350   C     0.80810   0.52702   0.42024   0.00000  Uiso   1.00
C351   C     0.99337   0.50983   0.23577   0.00000  Uiso   1.00
C352   C     0.67412   0.49097   0.26400   0.00000  Uiso   1.00
C353   C     0.84353   0.65489   0.23452   0.00000  Uiso   1.00
C354   C     0.81885   0.34642   0.26621   0.00000  Uiso   1.00
C355   C     0.82292   0.38960   0.26037   0.00000  Uiso   1.00
C356   C     0.84276   0.61118   0.24014   0.00000  Uiso   1.00
C357   C     0.79998   0.58018   0.48272   0.00000  Uiso   1.00
C358   C     0.85220   0.48127   0.12944   0.00000  Uiso   1.00
C359   C     0.81448   0.51751   0.37118   0.00000  Uiso   1.00
C360   C     0.87878   0.43006   0.01260   0.00000  Uiso   1.00
C361   C     0.85893   0.47399   0.08116   0.00000  Uiso   1.00
C362   C     0.79691   0.56639   0.43934   0.00000  Uiso   1.00
C363   C     0.81462   0.55500   0.00720   0.00000  Uiso   1.00
C364   C     0.82269   0.51408   0.49080   0.00000  Uiso   1.00
C365   C     0.81846   0.49974   0.44705   0.00000  Uiso   1.00
C366   C     0.83815   0.48801   0.01512   0.00000  Uiso   1.00
C367   C     0.85485   0.45125   0.49284   0.00000  Uiso   1.00
C368   C     0.84641   0.43592   0.45171   0.00000  Uiso   1.00
C369   C     0.82582   0.45873   0.43084   0.00000  Uiso   1.00
F370   F     0.85672   0.39822   0.43203   0.00000  Uiso   1.00
F371   F     0.89924   0.39782   0.48927   0.00000  Uiso   1.00
F372   F     0.81073   0.52317   0.08780   0.00000  Uiso   1.00
F373   F     0.78615   0.59276   0.41467   0.00000  Uiso   1.00
F374   F     0.68815   0.53145   0.20310   0.00000  Uiso   1.00
H375   H     0.98562   0.47378   0.29048   0.00000  Uiso   1.00
H376   H     0.82168   0.56911   0.03791   0.00000  Uiso   1.00
H377   H     0.81680   0.44393   0.40124   0.00000  Uiso   1.00
H378   H     0.94020   0.45819   0.12818   0.00000  Uiso   1.00
H379   H     0.92670   0.65382   0.12726   0.00000  Uiso   1.00
H380   H     0.76081   0.36794   0.38325   0.00000  Uiso   1.00
H381   H     0.76719   0.66613   0.46304   0.00000  Uiso   1.00
O382   O     0.83333   0.50000   0.25000   0.00000  Uiso   1.00
O383   O     0.82118   0.45970   0.15458   0.00000  Uiso   1.00
O384   O     0.79607   0.53724   0.34968   0.00000  Uiso   1.00
O385   O     0.87491   0.51092   0.14606   0.00000  Uiso   1.00
O386   O     0.84118   0.49213   0.34968   0.00000  Uiso   1.00
O387   O     0.90366   0.37179   0.07410   0.00000  Uiso   1.00
O388   O     0.96227   0.42532   0.04766   0.00000  Uiso   1.00
O389   O     0.91766   0.43416   0.13030   0.00000  Uiso   1.00
O390   O     0.84929   0.35732   0.15961   0.00000  Uiso   1.00
O391   O     0.90862   0.37615   0.19584   0.00000  Uiso   1.00
O392   O     0.90436   0.63831   0.14977   0.00000  Uiso   1.00
O393   O     0.84597   0.41352   0.28213   0.00000  Uiso   1.00
O394   O     0.74988   0.63715   0.31825   0.00000  Uiso   1.00
O395   O     0.81691   0.64796   0.34291   0.00000  Uiso   1.00
O396   O     0.77295   0.37667   0.35250   0.00000  Uiso   1.00
O397   O     0.77540   0.63248   0.05545   0.00000  Uiso   1.00
O398   O     0.83099   0.65948   0.49214   0.00000  Uiso   1.00
O399   O     0.75171   0.64654   0.48560   0.00000  Uiso   1.00
O400   O     0.81298   0.59418   0.27013   0.00000  Uiso   1.00
O401   O     0.74078   0.46625   0.23413   0.00000  Uiso   1.00
O402   O     0.93360   0.52605   0.21360   0.00000  Uiso   1.00
O403   O     0.73738   0.52211   0.28213   0.00000  Uiso   1.00
O404   O     0.92158   0.48559   0.27013   0.00000  Uiso   1.00
O405   O     0.80426   0.40277   0.23413   0.00000  Uiso   1.00
O406   O     0.87012   0.58953   0.21360   0.00000  Uiso   1.00
S407   S     0.91738   0.41758   0.07703   0.00000  Uiso   1.00
S408   S     0.87705   0.34126   0.18396   0.00000  Uiso   1.00
S409   S     0.78904   0.33364   0.32102   0.00000  Uiso   1.00
S410   S     0.78996   0.63092   0.00519   0.00000  Uiso   1.00
Zn411  Zn    0.86005   0.47327   0.28734   0.00000  Uiso   1.00
Zn412  Zn    0.80046   0.45791   0.21875   0.00000  Uiso   1.00
Zn413  Zn    0.87723   0.53109   0.20657   0.00000  Uiso   1.00
Zn414  Zn    0.79560   0.53773   0.28733   0.00000  Uiso   1.00
C415   C     0.05273   0.82634   0.26018   0.00000  Uiso   1.00
C416   C     0.17029   0.82984   0.06095   0.00000  Uiso   1.00
C417   C     0.21597   0.77581   0.05610   0.00000  Uiso   1.00
C418   C     0.28074   0.84047   0.23997   0.00000  Uiso   1.00
C419   C     0.14143   0.86035   0.42024   0.00000  Uiso   1.00
C420   C     0.32671   0.84316   0.23577   0.00000  Uiso   1.00
C421   C     0.00745   0.82430   0.26400   0.00000  Uiso   1.00
C422   C     0.17686   0.98822   0.23452   0.00000  Uiso   1.00
C423   C     0.15218   0.67975   0.26621   0.00000  Uiso   1.00
C424   C     0.15625   0.72293   0.26037   0.00000  Uiso   1.00
C425   C     0.17610   0.94452   0.24014   0.00000  Uiso   1.00
C426   C     0.13332   0.91351   0.48272   0.00000  Uiso   1.00
C427   C     0.18553   0.81460   0.12944   0.00000  Uiso   1.00
C428   C     0.14781   0.85085   0.37118   0.00000  Uiso   1.00
C429   C     0.21211   0.76339   0.01260   0.00000  Uiso   1.00
C430   C     0.19226   0.80732   0.08116   0.00000  Uiso   1.00
C431   C     0.13025   0.89973   0.43934   0.00000  Uiso   1.00
C432   C     0.14796   0.88834   0.00720   0.00000  Uiso   1.00
C433   C     0.15603   0.84741   0.49080   0.00000  Uiso   1.00
C434   C     0.15180   0.83307   0.44705   0.00000  Uiso   1.00
C435   C     0.17148   0.82135   0.01512   0.00000  Uiso   1.00
C436   C     0.18819   0.78458   0.49284   0.00000  Uiso   1.00
C437   C     0.17974   0.76926   0.45171   0.00000  Uiso   1.00
C438   C     0.15916   0.79207   0.43084   0.00000  Uiso   1.00
F439   F     0.19005   0.73156   0.43203   0.00000  Uiso   1.00
F440   F     0.23257   0.73115   0.48927   0.00000  Uiso   1.00
F441   F     0.14407   0.85651   0.08780   0.00000  Uiso   1.00
F442   F     0.11948   0.92609   0.41467   0.00000  Uiso   1.00
F443   F     0.02149   0.86478   0.20310   0.00000  Uiso   1.00
H444   H     0.31895   0.80711   0.29048   0.00000  Uiso   1.00
H445   H     0.15502   0.90244   0.03791   0.00000  Uiso   1.00
H446   H     0.15013   0.77726   0.40124   0.00000  Uiso   1.00
H447   H     0.27354   0.79152   0.12818   0.00000  Uiso   1.00
H448   H     0.26003   0.98715   0.12726   0.00000  Uiso   1.00
H449   H     0.09414   0.70127   0.38325   0.00000  Uiso   1.00
H450   H     0.10053   0.99947   0.46304   0.00000  Uiso   1.00
O451   O     0.16667   0.83333   0.25000   0.00000  Uiso   1.00
O452   O     0.15451   0.79304   0.15458   0.00000  Uiso   1.00
O453   O     0.12940   0.87058   0.34968   0.00000  Uiso   1.00
O454   O     0.20824   0.84425   0.14606   0.00000  Uiso   1.00
O455   O     0.17451   0.82546   0.34968   0.00000  Uiso   1.00
O456   O     0.23700   0.70513   0.07410   0.00000  Uiso   1.00
O457   O     0.29560   0.75866   0.04766   0.00000  Uiso   1.00
O458   O     0.25099   0.76749   0.13030   0.00000  Uiso   1.00
O459   O     0.18263   0.69066   0.15961   0.00000  Uiso   1.00
O460   O     0.24195   0.70948   0.19584   0.00000  Uiso   1.00
O461   O     0.23769   0.97165   0.14977   0.00000  Uiso   1.00
O462   O     0.17930   0.74686   0.28213   0.00000  Uiso   1.00
O463   O     0.08322   0.97049   0.31825   0.00000  Uiso   1.00
O464   O     0.15024   0.98130   0.34291   0.00000  Uiso   1.00
O465   O     0.10629   0.71001   0.35250   0.00000  Uiso   1.00
O466   O     0.10873   0.96582   0.05545   0.00000  Uiso   1.00
O467   O     0.16432   0.99282   0.49214   0.00000  Uiso   1.00
O468   O     0.08505   0.97988   0.48560   0.00000  Uiso   1.00
O469   O     0.14632   0.92751   0.27013   0.00000  Uiso   1.00
O470   O     0.07412   0.79958   0.23413   0.00000  Uiso   1.00
O471   O     0.26693   0.85939   0.21360   0.00000  Uiso   1.00
O472   O     0.07071   0.85544   0.28213   0.00000  Uiso   1.00
O473   O     0.25491   0.81892   0.27013   0.00000  Uiso   1.00
O474   O     0.13760   0.73610   0.23413   0.00000  Uiso   1.00
O475   O     0.20345   0.92286   0.21360   0.00000  Uiso   1.00
S476   S     0.25071   0.75091   0.07703   0.00000  Uiso   1.00
S477   S     0.21038   0.67459   0.18396   0.00000  Uiso   1.00
S478   S     0.12238   0.66697   0.32102   0.00000  Uiso   1.00
S479   S     0.12329   0.96425   0.00519   0.00000  Uiso   1.00
Zn480  Zn    0.19338   0.80661   0.28734   0.00000  Uiso   1.00
Zn481  Zn    0.13379   0.79124   0.21875   0.00000  Uiso   1.00
Zn482  Zn    0.21056   0.86442   0.20657   0.00000  Uiso   1.00
Zn483  Zn    0.12893   0.87106   0.28733   0.00000  Uiso   1.00
C484   C     0.38607   0.82634   0.26018   0.00000  Uiso   1.00
C485   C     0.50362   0.82984   0.06095   0.00000  Uiso   1.00
C486   C     0.54931   0.77581   0.05610   0.00000  Uiso   1.00
C487   C     0.61407   0.84047   0.23997   0.00000  Uiso   1.00
C488   C     0.47477   0.86035   0.42024   0.00000  Uiso   1.00
C489   C     0.66004   0.84316   0.23577   0.00000  Uiso   1.00
C490   C     0.34078   0.82430   0.26400   0.00000  Uiso   1.00
C491   C     0.51019   0.98822   0.23452   0.00000  Uiso   1.00
C492   C     0.48552   0.67975   0.26621   0.00000  Uiso   1.00
C493   C     0.48959   0.72293   0.26037   0.00000  Uiso   1.00
C494   C     0.50943   0.94452   0.24014   0.00000  Uiso   1.00
C495   C     0.46665   0.91351   0.48272   0.00000  Uiso   1.00
C496   C     0.51886   0.81460   0.12944   0.00000  Uiso   1.00
C497   C     0.48115   0.85085   0.37118   0.00000  Uiso   1.00
C498   C     0.54544   0.76339   0.01260   0.00000  Uiso   1.00
C499   C     0.52560   0.80732   0.08116   0.00000  Uiso   1.00
C500   C     0.46358   0.89973   0.43934   0.00000  Uiso   1.00
C501   C     0.48129   0.88834   0.00720   0.00000  Uiso   1.00
C502   C     0.48936   0.84741   0.49080   0.00000  Uiso   1.00
C503   C     0.48513   0.83307   0.44705   0.00000  Uiso   1.00
C504   C     0.50481   0.82135   0.01512   0.00000  Uiso   1.00
C505   C     0.52152   0.78458   0.49284   0.00000  Uiso   1.00
C506   C     0.51307   0.76926   0.45171   0.00000  Uiso   1.00
C507   C     0.49249   0.79207   0.43084   0.00000  Uiso   1.00
F508   F     0.52339   0.73156   0.43203   0.00000  Uiso   1.00
F509   F     0.56591   0.73115   0.48927   0.00000  Uiso   1.00
F510   F     0.47740   0.85651   0.08780   0.00000  Uiso   1.00
F511   F     0.45282   0.92609   0.41467   0.00000  Uiso   1.00
F512   F     0.35482   0.86478   0.20310   0.00000  Uiso   1.00
H513   H     0.65228   0.80711   0.29048   0.00000  Uiso   1.00
H514   H     0.48835   0.90244   0.03791   0.00000  Uiso   1.00
H515   H     0.48346   0.77726   0.40124   0.00000  Uiso   1.00
H516   H     0.60687   0.79152   0.12818   0.00000  Uiso   1.00
H517   H     0.59336   0.98715   0.12726   0.00000  Uiso   1.00
H518   H     0.42748   0.70127   0.38325   0.00000  Uiso   1.00
H519   H     0.43386   0.99947   0.46304   0.00000  Uiso   1.00
O520   O     0.50000   0.83333   0.25000   0.00000  Uiso   1.00
O521   O     0.48784   0.79304   0.15458   0.00000  Uiso   1.00
O522   O     0.46274   0.87058   0.34968   0.00000  Uiso   1.00
O523   O     0.54157   0.84425   0.14606   0.00000  Uiso   1.00
O524   O     0.50785   0.82546   0.34968   0.00000  Uiso   1.00
O525   O     0.57033   0.70513   0.07410   0.00000  Uiso   1.00
O526   O     0.62894   0.75866   0.04766   0.00000  Uiso   1.00
O527   O     0.58433   0.76749   0.13030   0.00000  Uiso   1.00
O528   O     0.51596   0.69066   0.15961   0.00000  Uiso   1.00
O529   O     0.57528   0.70948   0.19584   0.00000  Uiso   1.00
O530   O     0.57103   0.97165   0.14977   0.00000  Uiso   1.00
O531   O     0.51264   0.74686   0.28213   0.00000  Uiso   1.00
O532   O     0.41655   0.97049   0.31825   0.00000  Uiso   1.00
O533   O     0.48357   0.98130   0.34291   0.00000  Uiso   1.00
O534   O     0.43962   0.71001   0.35250   0.00000  Uiso   1.00
O535   O     0.44207   0.96582   0.05545   0.00000  Uiso   1.00
O536   O     0.49766   0.99282   0.49214   0.00000  Uiso   1.00
O537   O     0.41838   0.97988   0.48560   0.00000  Uiso   1.00
O538   O     0.47965   0.92751   0.27013   0.00000  Uiso   1.00
O539   O     0.40745   0.79958   0.23413   0.00000  Uiso   1.00
O540   O     0.60026   0.85939   0.21360   0.00000  Uiso   1.00
O541   O     0.40405   0.85544   0.28213   0.00000  Uiso   1.00
O542   O     0.58824   0.81892   0.27013   0.00000  Uiso   1.00
O543   O     0.47093   0.73610   0.23413   0.00000  Uiso   1.00
O544   O     0.53678   0.92286   0.21360   0.00000  Uiso   1.00
S545   S     0.58405   0.75091   0.07703   0.00000  Uiso   1.00
S546   S     0.54372   0.67459   0.18396   0.00000  Uiso   1.00
S547   S     0.45571   0.66697   0.32102   0.00000  Uiso   1.00
S548   S     0.45662   0.96425   0.00519   0.00000  Uiso   1.00
Zn549  Zn    0.52672   0.80661   0.28734   0.00000  Uiso   1.00
Zn550  Zn    0.46713   0.79124   0.21875   0.00000  Uiso   1.00
Zn551  Zn    0.54389   0.86442   0.20657   0.00000  Uiso   1.00
Zn552  Zn    0.46226   0.87106   0.28733   0.00000  Uiso   1.00
C553   C     0.71940   0.82634   0.26018   0.00000  Uiso   1.00
C554   C     0.83695   0.82984   0.06095   0.00000  Uiso   1.00
C555   C     0.88264   0.77581   0.05610   0.00000  Uiso   1.00
C556   C     0.94741   0.84047   0.23997   0.00000  Uiso   1.00
C557   C     0.80810   0.86035   0.42024   0.00000  Uiso   1.00
C558   C     0.99337   0.84316   0.23577   0.00000  Uiso   1.00
C559   C     0.67412   0.82430   0.26400   0.00000  Uiso   1.00
C560   C     0.84353   0.98822   0.23452   0.00000  Uiso   1.00
C561   C     0.81885   0.67975   0.26621   0.00000  Uiso   1.00
C562   C     0.82292   0.72293   0.26037   0.00000  Uiso   1.00
C563   C     0.84276   0.94452   0.24014   0.00000  Uiso   1.00
C564   C     0.79998   0.91351   0.48272   0.00000  Uiso   1.00
C565   C     0.85220   0.81460   0.12944   0.00000  Uiso   1.00
C566   C     0.81448   0.85085   0.37118   0.00000  Uiso   1.00
C567   C     0.87878   0.76339   0.01260   0.00000  Uiso   1.00
C568   C     0.85893   0.80732   0.08116   0.00000  Uiso   1.00
C569   C     0.79691   0.89973   0.43934   0.00000  Uiso   1.00
C570   C     0.81462   0.88834   0.00720   0.00000  Uiso   1.00
C571   C     0.82269   0.84741   0.49080   0.00000  Uiso   1.00
C572   C     0.81846   0.83307   0.44705   0.00000  Uiso   1.00
C573   C     0.83815   0.82135   0.01512   0.00000  Uiso   1.00
C574   C     0.85485   0.78458   0.49284   0.00000  Uiso   1.00
C575   C     0.84641   0.76926   0.45171   0.00000  Uiso   1.00
C576   C     0.82582   0.79207   0.43084   0.00000  Uiso   1.00
F577   F     0.85672   0.73156   0.43203   0.00000  Uiso   1.00
F578   F     0.89924   0.73115   0.48927   0.00000  Uiso   1.00
F579   F     0.81073   0.85651   0.08780   0.00000  Uiso   1.00
F580   F     0.78615   0.92609   0.41467   0.00000  Uiso   1.00
F581   F     0.68815   0.86478   0.20310   0.00000  Uiso   1.00
H582   H     0.98562   0.80711   0.29048   0.00000  Uiso   1.00
H583   H     0.82168   0.90244   0.03791   0.00000  Uiso   1.00
H584   H     0.81680   0.77726   0.40124   0.00000  Uiso   1.00
H585   H     0.94020   0.79152   0.12818   0.00000  Uiso   1.00
H586   H     0.92670   0.98715   0.12726   0.00000  Uiso   1.00
H587   H     0.76081   0.70127   0.38325   0.00000  Uiso   1.00
H588   H     0.76719   0.99947   0.46304   0.00000  Uiso   1.00
O589   O     0.83333   0.83333   0.25000   0.00000  Uiso   1.00
O590   O     0.82118   0.79304   0.15458   0.00000  Uiso   1.00
O591   O     0.79607   0.87058   0.34968   0.00000  Uiso   1.00
O592   O     0.87491   0.84425   0.14606   0.00000  Uiso   1.00
O593   O     0.84118   0.82546   0.34968   0.00000  Uiso   1.00
O594   O     0.90366   0.70513   0.07410   0.00000  Uiso   1.00
O595   O     0.96227   0.75866   0.04766   0.00000  Uiso   1.00
O596   O     0.91766   0.76749   0.13030   0.00000  Uiso   1.00
O597   O     0.84929   0.69066   0.15961   0.00000  Uiso   1.00
O598   O     0.90862   0.70948   0.19584   0.00000  Uiso   1.00
O599   O     0.90436   0.97165   0.14977   0.00000  Uiso   1.00
O600   O     0.84597   0.74686   0.28213   0.00000  Uiso   1.00
O601   O     0.74988   0.97049   0.31825   0.00000  Uiso   1.00
O602   O     0.81691   0.98130   0.34291   0.00000  Uiso   1.00
O603   O     0.77295   0.71001   0.35250   0.00000  Uiso   1.00
O604   O     0.77540   0.96582   0.05545   0.00000  Uiso   1.00
O605   O     0.83099   0.99282   0.49214   0.00000  Uiso   1.00
O606   O     0.75171   0.97988   0.48560   0.00000  Uiso   1.00
O607   O     0.81298   0.92751   0.27013   0.00000  Uiso   1.00
O608   O     0.74078   0.79958   0.23413   0.00000  Uiso   1.00
O609   O     0.93360   0.85939   0.21360   0.00000  Uiso   1.00
O610   O     0.73738   0.85544   0.28213   0.00000  Uiso   1.00
O611   O     0.92158   0.81892   0.27013   0.00000  Uiso   1.00
O612   O     0.80426   0.73610   0.23413   0.00000  Uiso   1.00
O613   O     0.87012   0.92286   0.21360   0.00000  Uiso   1.00
S614   S     0.91738   0.75091   0.07703   0.00000  Uiso   1.00
S615   S     0.87705   0.67459   0.18396   0.00000  Uiso   1.00
S616   S     0.78904   0.66697   0.32102   0.00000  Uiso   1.00
S617   S     0.78996   0.96425   0.00519   0.00000  Uiso   1.00
Zn618  Zn    0.86005   0.80661   0.28734   0.00000  Uiso   1.00
Zn619  Zn    0.80046   0.79124   0.21875   0.00000  Uiso   1.00
Zn620  Zn    0.87723   0.86442   0.20657   0.00000  Uiso   1.00
Zn621  Zn    0.79560   0.87106   0.28733   0.00000  Uiso   1.00
C622   C     0.05273   0.15968   0.76018   0.00000  Uiso   1.00
C623   C     0.17029   0.16317   0.56095   0.00000  Uiso   1.00
C624   C     0.21597   0.10915   0.55610   0.00000  Uiso   1.00
C625   C     0.28074   0.17380   0.73997   0.00000  Uiso   1.00
C626   C     0.14143   0.19368   0.92024   0.00000  Uiso   1.00
C627   C     0.32671   0.17649   0.73577   0.00000  Uiso   1.00
C628   C     0.00745   0.15764   0.76400   0.00000  Uiso   1.00
C629   C     0.17686   0.32156   0.73452   0.00000  Uiso   1.00
C630   C     0.15218   0.01309   0.76621   0.00000  Uiso   1.00
C631   C     0.15625   0.05626   0.76037   0.00000  Uiso   1.00
C632   C     0.17610   0.27785   0.74014   0.00000  Uiso   1.00
C633   C     0.13332   0.24685   0.98272   0.00000  Uiso   1.00
C634   C     0.18553   0.14793   0.62944   0.00000  Uiso   1.00
C635   C     0.14781   0.18418   0.87118   0.00000  Uiso   1.00
C636   C     0.21211   0.09672   0.51260   0.00000  Uiso   1.00
C637   C     0.19226   0.14066   0.58116   0.00000  Uiso   1.00
C638   C     0.13025   0.23306   0.93934   0.00000  Uiso   1.00
C639   C     0.14796   0.22167   0.50720   0.00000  Uiso   1.00
C640   C     0.15603   0.18074   0.99080   0.00000  Uiso   1.00
C641   C     0.15180   0.16641   0.94705   0.00000  Uiso   1.00
C642   C     0.17148   0.15468   0.51512   0.00000  Uiso   1.00
C643   C     0.18819   0.11791   0.99284   0.00000  Uiso   1.00
C644   C     0.17974   0.10259   0.95171   0.00000  Uiso   1.00
C645   C     0.15916   0.12540   0.93084   0.00000  Uiso   1.00
F646   F     0.19005   0.06489   0.93203   0.00000  Uiso   1.00
F647   F     0.23257   0.06448   0.98927   0.00000  Uiso   1.00
F648   F     0.14407   0.18984   0.58780   0.00000  Uiso   1.00
F649   F     0.11948   0.25943   0.91467   0.00000  Uiso   1.00
F650   F     0.02149   0.19812   0.70310   0.00000  Uiso   1.00
H651   H     0.31895   0.14045   0.79048   0.00000  Uiso   1.00
H652   H     0.15502   0.23578   0.53791   0.00000  Uiso   1.00
H653   H     0.15013   0.11059   0.90124   0.00000  Uiso   1.00
H654   H     0.27354   0.12486   0.62818   0.00000  Uiso   1.00
H655   H     0.26003   0.32049   0.62726   0.00000  Uiso   1.00
H656   H     0.09414   0.03461   0.88325   0.00000  Uiso   1.00
H657   H     0.10053   0.33280   0.96304   0.00000  Uiso   1.00
O658   O     0.16667   0.16667   0.75000   0.00000  Uiso   1.00
O659   O     0.15451   0.12637   0.65458   0.00000  Uiso   1.00
O660   O     0.12940   0.20391   0.84968   0.00000  Uiso   1.00
O661   O     0.20824   0.17759   0.64606   0.00000  Uiso   1.00
O662   O     0.17451   0.15880   0.84968   0.00000  Uiso   1.00
O663   O     0.23700   0.03846   0.57410   0.00000  Uiso   1.00
O664   O     0.29560   0.09199   0.54766   0.00000  Uiso   1.00
O665   O     0.25099   0.10082   0.63030   0.00000  Uiso   1.00
O666   O     0.18263   0.02399   0.65961   0.00000  Uiso   1.00
O667   O     0.24195   0.04282   0.69584   0.00000  Uiso   1.00
O668   O     0.23769   0.30498   0.64977   0.00000  Uiso   1.00
O669   O     0.17930   0.08019   0.78213   0.00000  Uiso   1.00
O670   O     0.08322   0.30382   0.81825   0.00000  Uiso   1.00
O671   O     0.15024   0.31463   0.84291   0.00000  Uiso   1.00
O672   O     0.10629   0.04334   0.85250   0.00000  Uiso   1.00
O673   O     0.10873   0.29915   0.55545   0.00000  Uiso   1.00
O674   O     0.16432   0.32615   0.99214   0.00000  Uiso   1.00
O675   O     0.08505   0.31321   0.98560   0.00000  Uiso   1.00
O676   O     0.14632   0.26085   0.77013   0.00000  Uiso   1.00
O677   O     0.07412   0.13291   0.73413   0.00000  Uiso   1.00
O678   O     0.26693   0.19272   0.71360   0.00000  Uiso   1.00
O679   O     0.07071   0.18878   0.78213   0.00000  Uiso   1.00
O680   O     0.25491   0.15226   0.77013   0.00000  Uiso   1.00
O681   O     0.13760   0.06944   0.73413   0.00000  Uiso   1.00
O682   O     0.20345   0.25620   0.71360   0.00000  Uiso   1.00
S683   S     0.25071   0.08424   0.57703   0.00000  Uiso   1.00
S684   S     0.21038   0.00792   0.68396   0.00000  Uiso   1.00
S685   S     0.12238   0.00031   0.82102   0.00000  Uiso   1.00
S686   S     0.12329   0.29759   0.50519   0.00000  Uiso   1.00
Zn687  Zn    0.19338   0.13994   0.78734   0.00000  Uiso   1.00
Zn688  Zn    0.13379   0.12458   0.71875   0.00000  Uiso   1.00
Zn689  Zn    0.21056   0.19775   0.70657   0.00000  Uiso   1.00
Zn690  Zn    0.12893   0.20439   0.78733   0.00000  Uiso   1.00
C691   C     0.38607   0.15968   0.76018   0.00000  Uiso   1.00
C692   C     0.50362   0.16317   0.56095   0.00000  Uiso   1.00
C693   C     0.54931   0.10915   0.55610   0.00000  Uiso   1.00
C694   C     0.61407   0.17380   0.73997   0.00000  Uiso   1.00
C695   C     0.47477   0.19368   0.92024   0.00000  Uiso   1.00
C696   C     0.66004   0.17649   0.73577   0.00000  Uiso   1.00
C697   C     0.34078   0.15764   0.76400   0.00000  Uiso   1.00
C698   C     0.51019   0.32156   0.73452   0.00000  Uiso   1.00
C699   C     0.48552   0.01309   0.76621   0.00000  Uiso   1.00
C700   C     0.48959   0.05626   0.76037   0.00000  Uiso   1.00
C701   C     0.50943   0.27785   0.74014   0.00000  Uiso   1.00
C702   C     0.46665   0.24685   0.98272   0.00000  Uiso   1.00
C703   C     0.51886   0.14793   0.62944   0.00000  Uiso   1.00
C704   C     0.48115   0.18418   0.87118   0.00000  Uiso   1.00
C705   C     0.54544   0.09672   0.51260   0.00000  Uiso   1.00
C706   C     0.52560   0.14066   0.58116   0.00000  Uiso   1.00
C707   C     0.46358   0.23306   0.93934   0.00000  Uiso   1.00
C708   C     0.48129   0.22167   0.50720   0.00000  Uiso   1.00
C709   C     0.48936   0.18074   0.99080   0.00000  Uiso   1.00
C710   C     0.48513   0.16641   0.94705   0.00000  Uiso   1.00
C711   C     0.50481   0.15468   0.51512   0.00000  Uiso   1.00
C712   C     0.52152   0.11791   0.99284   0.00000  Uiso   1.00
C713   C     0.51307   0.10259   0.95171   0.00000  Uiso   1.00
C714   C     0.49249   0.12540   0.93084   0.00000  Uiso   1.00
F715   F     0.52339   0.06489   0.93203   0.00000  Uiso   1.00
F716   F     0.56591   0.06448   0.98927   0.00000  Uiso   1.00
F717   F     0.47740   0.18984   0.58780   0.00000  Uiso   1.00
F718   F     0.45282   0.25943   0.91467   0.00000  Uiso   1.00
F719   F     0.35482   0.19812   0.70310   0.00000  Uiso   1.00
H720   H     0.65228   0.14045   0.79048   0.00000  Uiso   1.00
H721   H     0.48835   0.23578   0.53791   0.00000  Uiso   1.00
H722   H     0.48346   0.11059   0.90124   0.00000  Uiso   1.00
H723   H     0.60687   0.12486   0.62818   0.00000  Uiso   1.00
H724   H     0.59336   0.32049   0.62726   0.00000  Uiso   1.00
H725   H     0.42748   0.03461   0.88325   0.00000  Uiso   1.00
H726   H     0.43386   0.33280   0.96304   0.00000  Uiso   1.00
O727   O     0.50000   0.16667   0.75000   0.00000  Uiso   1.00
O728   O     0.48784   0.12637   0.65458   0.00000  Uiso   1.00
O729   O     0.46274   0.20391   0.84968   0.00000  Uiso   1.00
O730   O     0.54157   0.17759   0.64606   0.00000  Uiso   1.00
O731   O     0.50785   0.15880   0.84968   0.00000  Uiso   1.00
O732   O     0.57033   0.03846   0.57410   0.00000  Uiso   1.00
O733   O     0.62894   0.09199   0.54766   0.00000  Uiso   1.00
O734   O     0.58433   0.10082   0.63030   0.00000  Uiso   1.00
O735   O     0.51596   0.02399   0.65961   0.00000  Uiso   1.00
O736   O     0.57528   0.04282   0.69584   0.00000  Uiso   1.00
O737   O     0.57103   0.30498   0.64977   0.00000  Uiso   1.00
O738   O     0.51264   0.08019   0.78213   0.00000  Uiso   1.00
O739   O     0.41655   0.30382   0.81825   0.00000  Uiso   1.00
O740   O     0.48357   0.31463   0.84291   0.00000  Uiso   1.00
O741   O     0.43962   0.04334   0.85250   0.00000  Uiso   1.00
O742   O     0.44207   0.29915   0.55545   0.00000  Uiso   1.00
O743   O     0.49766   0.32615   0.99214   0.00000  Uiso   1.00
O744   O     0.41838   0.31321   0.98560   0.00000  Uiso   1.00
O745   O     0.47965   0.26085   0.77013   0.00000  Uiso   1.00
O746   O     0.40745   0.13291   0.73413   0.00000  Uiso   1.00
O747   O     0.60026   0.19272   0.71360   0.00000  Uiso   1.00
O748   O     0.40405   0.18878   0.78213   0.00000  Uiso   1.00
O749   O     0.58824   0.15226   0.77013   0.00000  Uiso   1.00
O750   O     0.47093   0.06944   0.73413   0.00000  Uiso   1.00
O751   O     0.53678   0.25620   0.71360   0.00000  Uiso   1.00
S752   S     0.58405   0.08424   0.57703   0.00000  Uiso   1.00
S753   S     0.54372   0.00792   0.68396   0.00000  Uiso   1.00
S754   S     0.45571   0.00031   0.82102   0.00000  Uiso   1.00
S755   S     0.45662   0.29759   0.50519   0.00000  Uiso   1.00
Zn756  Zn    0.52672   0.13994   0.78734   0.00000  Uiso   1.00
Zn757  Zn    0.46713   0.12458   0.71875   0.00000  Uiso   1.00
Zn758  Zn    0.54389   0.19775   0.70657   0.00000  Uiso   1.00
Zn759  Zn    0.46226   0.20439   0.78733   0.00000  Uiso   1.00
C760   C     0.71940   0.15968   0.76018   0.00000  Uiso   1.00
C761   C     0.83695   0.16317   0.56095   0.00000  Uiso   1.00
C762   C     0.88264   0.10915   0.55610   0.00000  Uiso   1.00
C763   C     0.94741   0.17380   0.73997   0.00000  Uiso   1.00
C764   C     0.80810   0.19368   0.92024   0.00000  Uiso   1.00
C765   C     0.99337   0.17649   0.73577   0.00000  Uiso   1.00
C766   C     0.67412   0.15764   0.76400   0.00000  Uiso   1.00
C767   C     0.84353   0.32156   0.73452   0.00000  Uiso   1.00
C768   C     0.81885   0.01309   0.76621   0.00000  Uiso   1.00
C769   C     0.82292   0.05626   0.76037   0.00000  Uiso   1.00
C770   C     0.84276   0.27785   0.74014   0.00000  Uiso   1.00
C771   C     0.79998   0.24685   0.98272   0.00000  Uiso   1.00
C772   C     0.85220   0.14793   0.62944   0.00000  Uiso   1.00
C773   C     0.81448   0.18418   0.87118   0.00000  Uiso   1.00
C774   C     0.87878   0.09672   0.51260   0.00000  Uiso   1.00
C775   C     0.85893   0.14066   0.58116   0.00000  Uiso   1.00
C776   C     0.79691   0.23306   0.93934   0.00000  Uiso   1.00
C777   C     0.81462   0.22167   0.50720   0.00000  Uiso   1.00
C778   C     0.82269   0.18074   0.99080   0.00000  Uiso   1.00
C779   C     0.81846   0.16641   0.94705   0.00000  Uiso   1.00
C780   C     0.83815   0.15468   0.51512   0.00000  Uiso   1.00
C781   C     0.85485   0.11791   0.99284   0.00000  Uiso   1.00
C782   C     0.84641   0.10259   0.95171   0.00000  Uiso   1.00
C783   C     0.82582   0.12540   0.93084   0.00000  Uiso   1.00
F784   F     0.85672   0.06489   0.93203   0.00000  Uiso   1.00
F785   F     0.89924   0.06448   0.98927   0.00000  Uiso   1.00
F786   F     0.81073   0.18984   0.58780   0.00000  Uiso   1.00
F787   F     0.78615   0.25943   0.91467   0.00000  Uiso   1.00
F788   F     0.68815   0.19812   0.70310   0.00000  Uiso   1.00
H789   H     0.98562   0.14045   0.79048   0.00000  Uiso   1.00
H790   H     0.82168   0.23578   0.53791   0.00000  Uiso   1.00
H791   H     0.81680   0.11059   0.90124   0.00000  Uiso   1.00
H792   H     0.94020   0.12486   0.62818   0.00000  Uiso   1.00
H793   H     0.92670   0.32049   0.62726   0.00000  Uiso   1.00
H794   H     0.76081   0.03461   0.88325   0.00000  Uiso   1.00
H795   H     0.76719   0.33280   0.96304   0.00000  Uiso   1.00
O796   O     0.83333   0.16667   0.75000   0.00000  Uiso   1.00
O797   O     0.82118   0.12637   0.65458   0.00000  Uiso   1.00
O798   O     0.79607   0.20391   0.84968   0.00000  Uiso   1.00
O799   O     0.87491   0.17759   0.64606   0.00000  Uiso   1.00
O800   O     0.84118   0.15880   0.84968   0.00000  Uiso   1.00
O801   O     0.90366   0.03846   0.57410   0.00000  Uiso   1.00
O802   O     0.96227   0.09199   0.54766   0.00000  Uiso   1.00
O803   O     0.91766   0.10082   0.63030   0.00000  Uiso   1.00
O804   O     0.84929   0.02399   0.65961   0.00000  Uiso   1.00
O805   O     0.90862   0.04282   0.69584   0.00000  Uiso   1.00
O806   O     0.90436   0.30498   0.64977   0.00000  Uiso   1.00
O807   O     0.84597   0.08019   0.78213   0.00000  Uiso   1.00
O808   O     0.74988   0.30382   0.81825   0.00000  Uiso   1.00
O809   O     0.81691   0.31463   0.84291   0.00000  Uiso   1.00
O810   O     0.77295   0.04334   0.85250   0.00000  Uiso   1.00
O811   O     0.77540   0.29915   0.55545   0.00000  Uiso   1.00
O812   O     0.83099   0.32615   0.99214   0.00000  Uiso   1.00
O813   O     0.75171   0.31321   0.98560   0.00000  Uiso   1.00
O814   O     0.81298   0.26085   0.77013   0.00000  Uiso   1.00
O815   O     0.74078   0.13291   0.73413   0.00000  Uiso   1.00
O816   O     0.93360   0.19272   0.71360   0.00000  Uiso   1.00
O817   O     0.73738   0.18878   0.78213   0.00000  Uiso   1.00
O818   O     0.92158   0.15226   0.77013   0.00000  Uiso   1.00
O819   O     0.80426   0.06944   0.73413   0.00000  Uiso   1.00
O820   O     0.87012   0.25620   0.71360   0.00000  Uiso   1.00
S821   S     0.91738   0.08424   0.57703   0.00000  Uiso   1.00
S822   S     0.87705   0.00792   0.68396   0.00000  Uiso   1.00
S823   S     0.78904   0.00031   0.82102   0.00000  Uiso   1.00
S824   S     0.78996   0.29759   0.50519   0.00000  Uiso   1.00
Zn825  Zn    0.86005   0.13994   0.78734   0.00000  Uiso   1.00
Zn826  Zn    0.80046   0.12458   0.71875   0.00000  Uiso   1.00
Zn827  Zn    0.87723   0.19775   0.70657   0.00000  Uiso   1.00
Zn828  Zn    0.79560   0.20439   0.78733   0.00000  Uiso   1.00
C829   C     0.05273   0.49301   0.76018   0.00000  Uiso   1.00
C830   C     0.17029   0.49651   0.56095   0.00000  Uiso   1.00
C831   C     0.21597   0.44248   0.55610   0.00000  Uiso   1.00
C832   C     0.28074   0.50713   0.73997   0.00000  Uiso   1.00
C833   C     0.14143   0.52702   0.92024   0.00000  Uiso   1.00
C834   C     0.32671   0.50983   0.73577   0.00000  Uiso   1.00
C835   C     0.00745   0.49097   0.76400   0.00000  Uiso   1.00
C836   C     0.17686   0.65489   0.73452   0.00000  Uiso   1.00
C837   C     0.15218   0.34642   0.76621   0.00000  Uiso   1.00
C838   C     0.15625   0.38960   0.76037   0.00000  Uiso   1.00
C839   C     0.17610   0.61118   0.74014   0.00000  Uiso   1.00
C840   C     0.13332   0.58018   0.98272   0.00000  Uiso   1.00
C841   C     0.18553   0.48127   0.62944   0.00000  Uiso   1.00
C842   C     0.14781   0.51751   0.87118   0.00000  Uiso   1.00
C843   C     0.21211   0.43006   0.51260   0.00000  Uiso   1.00
C844   C     0.19226   0.47399   0.58116   0.00000  Uiso   1.00
C845   C     0.13025   0.56639   0.93934   0.00000  Uiso   1.00
C846   C     0.14796   0.55500   0.50720   0.00000  Uiso   1.00
C847   C     0.15603   0.51408   0.99080   0.00000  Uiso   1.00
C848   C     0.15180   0.49974   0.94705   0.00000  Uiso   1.00
C849   C     0.17148   0.48801   0.51512   0.00000  Uiso   1.00
C850   C     0.18819   0.45125   0.99284   0.00000  Uiso   1.00
C851   C     0.17974   0.43592   0.95171   0.00000  Uiso   1.00
C852   C     0.15916   0.45873   0.93084   0.00000  Uiso   1.00
F853   F     0.19005   0.39822   0.93203   0.00000  Uiso   1.00
F854   F     0.23257   0.39782   0.98927   0.00000  Uiso   1.00
F855   F     0.14407   0.52317   0.58780   0.00000  Uiso   1.00
F856   F     0.11948   0.59276   0.91467   0.00000  Uiso   1.00
F857   F     0.02149   0.53145   0.70310   0.00000  Uiso   1.00
H858   H     0.31895   0.47378   0.79048   0.00000  Uiso   1.00
H859   H     0.15502   0.56911   0.53791   0.00000  Uiso   1.00
H860   H     0.15013   0.44393   0.90124   0.00000  Uiso   1.00
H861   H     0.27354   0.45819   0.62818   0.00000  Uiso   1.00
H862   H     0.26003   0.65382   0.62726   0.00000  Uiso   1.00
H863   H     0.09414   0.36794   0.88325   0.00000  Uiso   1.00
H864   H     0.10053   0.66613   0.96304   0.00000  Uiso   1.00
O865   O     0.16667   0.50000   0.75000   0.00000  Uiso   1.00
O866   O     0.15451   0.45970   0.65458   0.00000  Uiso   1.00
O867   O     0.12940   0.53724   0.84968   0.00000  Uiso   1.00
O868   O     0.20824   0.51092   0.64606   0.00000  Uiso   1.00
O869   O     0.17451   0.49213   0.84968   0.00000  Uiso   1.00
O870   O     0.23700   0.37179   0.57410   0.00000  Uiso   1.00
O871   O     0.29560   0.42532   0.54766   0.00000  Uiso   1.00
O872   O     0.25099   0.43416   0.63030   0.00000  Uiso   1.00
O873   O     0.18263   0.35732   0.65961   0.00000  Uiso   1.00
O874   O     0.24195   0.37615   0.69584   0.00000  Uiso   1.00
O875   O     0.23769   0.63831   0.64977   0.00000  Uiso   1.00
O876   O     0.17930   0.41352   0.78213   0.00000  Uiso   1.00
O877   O     0.08322   0.63715   0.81825   0.00000  Uiso   1.00
O878   O     0.15024   0.64796   0.84291   0.00000  Uiso   1.00
O879   O     0.10629   0.37667   0.85250   0.00000  Uiso   1.00
O880   O     0.10873   0.63248   0.55545   0.00000  Uiso   1.00
O881   O     0.16432   0.65948   0.99214   0.00000  Uiso   1.00
O882   O     0.08505   0.64654   0.98560   0.00000  Uiso   1.00
O883   O     0.14632   0.59418   0.77013   0.00000  Uiso   1.00
O884   O     0.07412   0.46625   0.73413   0.00000  Uiso   1.00
O885   O     0.26693   0.52605   0.71360   0.00000  Uiso   1.00
O886   O     0.07071   0.52211   0.78213   0.00000  Uiso   1.00
O887   O     0.25491   0.48559   0.77013   0.00000  Uiso   1.00
O888   O     0.13760   0.40277   0.73413   0.00000  Uiso   1.00
O889   O     0.20345   0.58953   0.71360   0.00000  Uiso   1.00
S890   S     0.25071   0.41758   0.57703   0.00000  Uiso   1.00
S891   S     0.21038   0.34126   0.68396   0.00000  Uiso   1.00
S892   S     0.12238   0.33364   0.82102   0.00000  Uiso   1.00
S893   S     0.12329   0.63092   0.50519   0.00000  Uiso   1.00
Zn894  Zn    0.19338   0.47327   0.78734   0.00000  Uiso   1.00
Zn895  Zn    0.13379   0.45791   0.71875   0.00000  Uiso   1.00
Zn896  Zn    0.21056   0.53109   0.70657   0.00000  Uiso   1.00
Zn897  Zn    0.12893   0.53773   0.78733   0.00000  Uiso   1.00
C898   C     0.38607   0.49301   0.76018   0.00000  Uiso   1.00
C899   C     0.50362   0.49651   0.56095   0.00000  Uiso   1.00
C900   C     0.54931   0.44248   0.55610   0.00000  Uiso   1.00
C901   C     0.61407   0.50713   0.73997   0.00000  Uiso   1.00
C902   C     0.47477   0.52702   0.92024   0.00000  Uiso   1.00
C903   C     0.66004   0.50983   0.73577   0.00000  Uiso   1.00
C904   C     0.34078   0.49097   0.76400   0.00000  Uiso   1.00
C905   C     0.51019   0.65489   0.73452   0.00000  Uiso   1.00
C906   C     0.48552   0.34642   0.76621   0.00000  Uiso   1.00
C907   C     0.48959   0.38960   0.76037   0.00000  Uiso   1.00
C908   C     0.50943   0.61118   0.74014   0.00000  Uiso   1.00
C909   C     0.46665   0.58018   0.98272   0.00000  Uiso   1.00
C910   C     0.51886   0.48127   0.62944   0.00000  Uiso   1.00
C911   C     0.48115   0.51751   0.87118   0.00000  Uiso   1.00
C912   C     0.54544   0.43006   0.51260   0.00000  Uiso   1.00
C913   C     0.52560   0.47399   0.58116   0.00000  Uiso   1.00
C914   C     0.46358   0.56639   0.93934   0.00000  Uiso   1.00
C915   C     0.48129   0.55500   0.50720   0.00000  Uiso   1.00
C916   C     0.48936   0.51408   0.99080   0.00000  Uiso   1.00
C917   C     0.48513   0.49974   0.94705   0.00000  Uiso   1.00
C918   C     0.50481   0.48801   0.51512   0.00000  Uiso   1.00
C919   C     0.52152   0.45125   0.99284   0.00000  Uiso   1.00
C920   C     0.51307   0.43592   0.95171   0.00000  Uiso   1.00
C921   C     0.49249   0.45873   0.93084   0.00000  Uiso   1.00
F922   F     0.52339   0.39822   0.93203   0.00000  Uiso   1.00
F923   F     0.56591   0.39782   0.98927   0.00000  Uiso   1.00
F924   F     0.47740   0.52317   0.58780   0.00000  Uiso   1.00
F925   F     0.45282   0.59276   0.91467   0.00000  Uiso   1.00
F926   F     0.35482   0.53145   0.70310   0.00000  Uiso   1.00
H927   H     0.65228   0.47378   0.79048   0.00000  Uiso   1.00
H928   H     0.48835   0.56911   0.53791   0.00000  Uiso   1.00
H929   H     0.48346   0.44393   0.90124   0.00000  Uiso   1.00
H930   H     0.60687   0.45819   0.62818   0.00000  Uiso   1.00
H931   H     0.59336   0.65382   0.62726   0.00000  Uiso   1.00
H932   H     0.42748   0.36794   0.88325   0.00000  Uiso   1.00
H933   H     0.43386   0.66613   0.96304   0.00000  Uiso   1.00
O934   O     0.50000   0.50000   0.75000   0.00000  Uiso   1.00
O935   O     0.48784   0.45970   0.65458   0.00000  Uiso   1.00
O936   O     0.46274   0.53724   0.84968   0.00000  Uiso   1.00
O937   O     0.54157   0.51092   0.64606   0.00000  Uiso   1.00
O938   O     0.50785   0.49213   0.84968   0.00000  Uiso   1.00
O939   O     0.57033   0.37179   0.57410   0.00000  Uiso   1.00
O940   O     0.62894   0.42532   0.54766   0.00000  Uiso   1.00
O941   O     0.58433   0.43416   0.63030   0.00000  Uiso   1.00
O942   O     0.51596   0.35732   0.65961   0.00000  Uiso   1.00
O943   O     0.57528   0.37615   0.69584   0.00000  Uiso   1.00
O944   O     0.57103   0.63831   0.64977   0.00000  Uiso   1.00
O945   O     0.51264   0.41352   0.78213   0.00000  Uiso   1.00
O946   O     0.41655   0.63715   0.81825   0.00000  Uiso   1.00
O947   O     0.48357   0.64796   0.84291   0.00000  Uiso   1.00
O948   O     0.43962   0.37667   0.85250   0.00000  Uiso   1.00
O949   O     0.44207   0.63248   0.55545   0.00000  Uiso   1.00
O950   O     0.49766   0.65948   0.99214   0.00000  Uiso   1.00
O951   O     0.41838   0.64654   0.98560   0.00000  Uiso   1.00
O952   O     0.47965   0.59418   0.77013   0.00000  Uiso   1.00
O953   O     0.40745   0.46625   0.73413   0.00000  Uiso   1.00
O954   O     0.60026   0.52605   0.71360   0.00000  Uiso   1.00
O955   O     0.40405   0.52211   0.78213   0.00000  Uiso   1.00
O956   O     0.58824   0.48559   0.77013   0.00000  Uiso   1.00
O957   O     0.47093   0.40277   0.73413   0.00000  Uiso   1.00
O958   O     0.53678   0.58953   0.71360   0.00000  Uiso   1.00
S959   S     0.58405   0.41758   0.57703   0.00000  Uiso   1.00
S960   S     0.54372   0.34126   0.68396   0.00000  Uiso   1.00
S961   S     0.45571   0.33364   0.82102   0.00000  Uiso   1.00
S962   S     0.45662   0.63092   0.50519   0.00000  Uiso   1.00
Zn963  Zn    0.52672   0.47327   0.78734   0.00000  Uiso   1.00
Zn964  Zn    0.46713   0.45791   0.71875   0.00000  Uiso   1.00
Zn965  Zn    0.54389   0.53109   0.70657   0.00000  Uiso   1.00
Zn966  Zn    0.46226   0.53773   0.78733   0.00000  Uiso   1.00
C967   C     0.71940   0.49301   0.76018   0.00000  Uiso   1.00
C968   C     0.83695   0.49651   0.56095   0.00000  Uiso   1.00
C969   C     0.88264   0.44248   0.55610   0.00000  Uiso   1.00
C970   C     0.94741   0.50713   0.73997   0.00000  Uiso   1.00
C971   C     0.80810   0.52702   0.92024   0.00000  Uiso   1.00
C972   C     0.99337   0.50983   0.73577   0.00000  Uiso   1.00
C973   C     0.67412   0.49097   0.76400   0.00000  Uiso   1.00
C974   C     0.84353   0.65489   0.73452   0.00000  Uiso   1.00
C975   C     0.81885   0.34642   0.76621   0.00000  Uiso   1.00
C976   C     0.82292   0.38960   0.76037   0.00000  Uiso   1.00
C977   C     0.84276   0.61118   0.74014   0.00000  Uiso   1.00
C978   C     0.79998   0.58018   0.98272   0.00000  Uiso   1.00
C979   C     0.85220   0.48127   0.62944   0.00000  Uiso   1.00
C980   C     0.81448   0.51751   0.87118   0.00000  Uiso   1.00
C981   C     0.87878   0.43006   0.51260   0.00000  Uiso   1.00
C982   C     0.85893   0.47399   0.58116   0.00000  Uiso   1.00
C983   C     0.79691   0.56639   0.93934   0.00000  Uiso   1.00
C984   C     0.81462   0.55500   0.50720   0.00000  Uiso   1.00
C985   C     0.82269   0.51408   0.99080   0.00000  Uiso   1.00
C986   C     0.81846   0.49974   0.94705   0.00000  Uiso   1.00
C987   C     0.83815   0.48801   0.51512   0.00000  Uiso   1.00
C988   C     0.85485   0.45125   0.99284   0.00000  Uiso   1.00
C989   C     0.84641   0.43592   0.95171   0.00000  Uiso   1.00
C990   C     0.82582   0.45873   0.93084   0.00000  Uiso   1.00
F991   F     0.85672   0.39822   0.93203   0.00000  Uiso   1.00
F992   F     0.89924   0.39782   0.98927   0.00000  Uiso   1.00
F993   F     0.81073   0.52317   0.58780   0.00000  Uiso   1.00
F994   F     0.78615   0.59276   0.91467   0.00000  Uiso   1.00
F995   F     0.68815   0.53145   0.70310   0.00000  Uiso   1.00
H996   H     0.98562   0.47378   0.79048   0.00000  Uiso   1.00
H997   H     0.82168   0.56911   0.53791   0.00000  Uiso   1.00
H998   H     0.81680   0.44393   0.90124   0.00000  Uiso   1.00
H999   H     0.94020   0.45819   0.62818   0.00000  Uiso   1.00
H1000  H     0.92670   0.65382   0.62726   0.00000  Uiso   1.00
H1001  H     0.76081   0.36794   0.88325   0.00000  Uiso   1.00
H1002  H     0.76719   0.66613   0.96304   0.00000  Uiso   1.00
O1003  O     0.83333   0.50000   0.75000   0.00000  Uiso   1.00
O1004  O     0.82118   0.45970   0.65458   0.00000  Uiso   1.00
O1005  O     0.79607   0.53724   0.84968   0.00000  Uiso   1.00
O1006  O     0.87491   0.51092   0.64606   0.00000  Uiso   1.00
O1007  O     0.84118   0.49213   0.84968   0.00000  Uiso   1.00
O1008  O     0.90366   0.37179   0.57410   0.00000  Uiso   1.00
O1009  O     0.96227   0.42532   0.54766   0.00000  Uiso   1.00
O1010  O     0.91766   0.43416   0.63030   0.00000  Uiso   1.00
O1011  O     0.84929   0.35732   0.65961   0.00000  Uiso   1.00
O1012  O     0.90862   0.37615   0.69584   0.00000  Uiso   1.00
O1013  O     0.90436   0.63831   0.64977   0.00000  Uiso   1.00
O1014  O     0.84597   0.41352   0.78213   0.00000  Uiso   1.00
O1015  O     0.74988   0.63715   0.81825   0.00000  Uiso   1.00
O1016  O     0.81691   0.64796   0.84291   0.00000  Uiso   1.00
O1017  O     0.77295   0.37667   0.85250   0.00000  Uiso   1.00
O1018  O     0.77540   0.63248   0.55545   0.00000  Uiso   1.00
O1019  O     0.83099   0.65948   0.99214   0.00000  Uiso   1.00
O1020  O     0.75171   0.64654   0.98560   0.00000  Uiso   1.00
O1021  O     0.81298   0.59418   0.77013   0.00000  Uiso   1.00
O1022  O     0.74078   0.46625   0.73413   0.00000  Uiso   1.00
O1023  O     0.93360   0.52605   0.71360   0.00000  Uiso   1.00
O1024  O     0.73738   0.52211   0.78213   0.00000  Uiso   1.00
O1025  O     0.92158   0.48559   0.77013   0.00000  Uiso   1.00
O1026  O     0.80426   0.40277   0.73413   0.00000  Uiso   1.00
O1027  O     0.87012   0.58953   0.71360   0.00000  Uiso   1.00
S1028  S     0.91738   0.41758   0.57703   0.00000  Uiso   1.00
S1029  S     0.87705   0.34126   0.68396   0.00000  Uiso   1.00
S1030  S     0.78904   0.33364   0.82102   0.00000  Uiso   1.00
S1031  S     0.78996   0.63092   0.50519   0.00000  Uiso   1.00
Zn1032 Zn    0.86005   0.47327   0.78734   0.00000  Uiso   1.00
Zn1033 Zn    0.80046   0.45791   0.71875   0.00000  Uiso   1.00
Zn1034 Zn    0.87723   0.53109   0.70657   0.00000  Uiso   1.00
Zn1035 Zn    0.79560   0.53773   0.78733   0.00000  Uiso   1.00
C1036  C     0.05273   0.82634   0.76018   0.00000  Uiso   1.00
C1037  C     0.17029   0.82984   0.56095   0.00000  Uiso   1.00
C1038  C     0.21597   0.77581   0.55610   0.00000  Uiso   1.00
C1039  C     0.28074   0.84047   0.73997   0.00000  Uiso   1.00
C1040  C     0.14143   0.86035   0.92024   0.00000  Uiso   1.00
C1041  C     0.32671   0.84316   0.73577   0.00000  Uiso   1.00
C1042  C     0.00745   0.82430   0.76400   0.00000  Uiso   1.00
C1043  C     0.17686   0.98822   0.73452   0.00000  Uiso   1.00
C1044  C     0.15218   0.67975   0.76621   0.00000  Uiso   1.00
C1045  C     0.15625   0.72293   0.76037   0.00000  Uiso   1.00
C1046  C     0.17610   0.94452   0.74014   0.00000  Uiso   1.00
C1047  C     0.13332   0.91351   0.98272   0.00000  Uiso   1.00
C1048  C     0.18553   0.81460   0.62944   0.00000  Uiso   1.00
C1049  C     0.14781   0.85085   0.87118   0.00000  Uiso   1.00
C1050  C     0.21211   0.76339   0.51260   0.00000  Uiso   1.00
C1051  C     0.19226   0.80732   0.58116   0.00000  Uiso   1.00
C1052  C     0.13025   0.89973   0.93934   0.00000  Uiso   1.00
C1053  C     0.14796   0.88834   0.50720   0.00000  Uiso   1.00
C1054  C     0.15603   0.84741   0.99080   0.00000  Uiso   1.00
C1055  C     0.15180   0.83307   0.94705   0.00000  Uiso   1.00
C1056  C     0.17148   0.82135   0.51512   0.00000  Uiso   1.00
C1057  C     0.18819   0.78458   0.99284   0.00000  Uiso   1.00
C1058  C     0.17974   0.76926   0.95171   0.00000  Uiso   1.00
C1059  C     0.15916   0.79207   0.93084   0.00000  Uiso   1.00
F1060  F     0.19005   0.73156   0.93203   0.00000  Uiso   1.00
F1061  F     0.23257   0.73115   0.98927   0.00000  Uiso   1.00
F1062  F     0.14407   0.85651   0.58780   0.00000  Uiso   1.00
F1063  F     0.11948   0.92609   0.91467   0.00000  Uiso   1.00
F1064  F     0.02149   0.86478   0.70310   0.00000  Uiso   1.00
H1065  H     0.31895   0.80711   0.79048   0.00000  Uiso   1.00
H1066  H     0.15502   0.90244   0.53791   0.00000  Uiso   1.00
H1067  H     0.15013   0.77726   0.90124   0.00000  Uiso   1.00
H1068  H     0.27354   0.79152   0.62818   0.00000  Uiso   1.00
H1069  H     0.26003   0.98715   0.62726   0.00000  Uiso   1.00
H1070  H     0.09414   0.70127   0.88325   0.00000  Uiso   1.00
H1071  H     0.10053   0.99947   0.96304   0.00000  Uiso   1.00
O1072  O     0.16667   0.83333   0.75000   0.00000  Uiso   1.00
O1073  O     0.15451   0.79304   0.65458   0.00000  Uiso   1.00
O1074  O     0.12940   0.87058   0.84968   0.00000  Uiso   1.00
O1075  O     0.20824   0.84425   0.64606   0.00000  Uiso   1.00
O1076  O     0.17451   0.82546   0.84968   0.00000  Uiso   1.00
O1077  O     0.23700   0.70513   0.57410   0.00000  Uiso   1.00
O1078  O     0.29560   0.75866   0.54766   0.00000  Uiso   1.00
O1079  O     0.25099   0.76749   0.63030   0.00000  Uiso   1.00
O1080  O     0.18263   0.69066   0.65961   0.00000  Uiso   1.00
O1081  O     0.24195   0.70948   0.69584   0.00000  Uiso   1.00
O1082  O     0.23769   0.97165   0.64977   0.00000  Uiso   1.00
O1083  O     0.17930   0.74686   0.78213   0.00000  Uiso   1.00
O1084  O     0.08322   0.97049   0.81825   0.00000  Uiso   1.00
O1085  O     0.15024   0.98130   0.84291   0.00000  Uiso   1.00
O1086  O     0.10629   0.71001   0.85250   0.00000  Uiso   1.00
O1087  O     0.10873   0.96582   0.55545   0.00000  Uiso   1.00
O1088  O     0.16432   0.99282   0.99214   0.00000  Uiso   1.00
O1089  O     0.08505   0.97988   0.98560   0.00000  Uiso   1.00
O1090  O     0.14632   0.92751   0.77013   0.00000  Uiso   1.00
O1091  O     0.07412   0.79958   0.73413   0.00000  Uiso   1.00
O1092  O     0.26693   0.85939   0.71360   0.00000  Uiso   1.00
O1093  O     0.07071   0.85544   0.78213   0.00000  Uiso   1.00
O1094  O     0.25491   0.81892   0.77013   0.00000  Uiso   1.00
O1095  O     0.13760   0.73610   0.73413   0.00000  Uiso   1.00
O1096  O     0.20345   0.92286   0.71360   0.00000  Uiso   1.00
S1097  S     0.25071   0.75091   0.57703   0.00000  Uiso   1.00
S1098  S     0.21038   0.67459   0.68396   0.00000  Uiso   1.00
S1099  S     0.12238   0.66697   0.82102   0.00000  Uiso   1.00
S1100  S     0.12329   0.96425   0.50519   0.00000  Uiso   1.00
Zn1101 Zn    0.19338   0.80661   0.78734   0.00000  Uiso   1.00
Zn1102 Zn    0.13379   0.79124   0.71875   0.00000  Uiso   1.00
Zn1103 Zn    0.21056   0.86442   0.70657   0.00000  Uiso   1.00
Zn1104 Zn    0.12893   0.87106   0.78733   0.00000  Uiso   1.00
C1105  C     0.38607   0.82634   0.76018   0.00000  Uiso   1.00
C1106  C     0.50362   0.82984   0.56095   0.00000  Uiso   1.00
C1107  C     0.54931   0.77581   0.55610   0.00000  Uiso   1.00
C1108  C     0.61407   0.84047   0.73997   0.00000  Uiso   1.00
C1109  C     0.47477   0.86035   0.92024   0.00000  Uiso   1.00
C1110  C     0.66004   0.84316   0.73577   0.00000  Uiso   1.00
C1111  C     0.34078   0.82430   0.76400   0.00000  Uiso   1.00
C1112  C     0.51019   0.98822   0.73452   0.00000  Uiso   1.00
C1113  C     0.48552   0.67975   0.76621   0.00000  Uiso   1.00
C1114  C     0.48959   0.72293   0.76037   0.00000  Uiso   1.00
C1115  C     0.50943   0.94452   0.74014   0.00000  Uiso   1.00
C1116  C     0.46665   0.91351   0.98272   0.00000  Uiso   1.00
C1117  C     0.51886   0.81460   0.62944   0.00000  Uiso   1.00
C1118  C     0.48115   0.85085   0.87118   0.00000  Uiso   1.00
C1119  C     0.54544   0.76339   0.51260   0.00000  Uiso   1.00
C1120  C     0.52560   0.80732   0.58116   0.00000  Uiso   1.00
C1121  C     0.46358   0.89973   0.93934   0.00000  Uiso   1.00
C1122  C     0.48129   0.88834   0.50720   0.00000  Uiso   1.00
C1123  C     0.48936   0.84741   0.99080   0.00000  Uiso   1.00
C1124  C     0.48513   0.83307   0.94705   0.00000  Uiso   1.00
C1125  C     0.50481   0.82135   0.51512   0.00000  Uiso   1.00
C1126  C     0.52152   0.78458   0.99284   0.00000  Uiso   1.00
C1127  C     0.51307   0.76926   0.95171   0.00000  Uiso   1.00
C1128  C     0.49249   0.79207   0.93084   0.00000  Uiso   1.00
F1129  F     0.52339   0.73156   0.93203   0.00000  Uiso   1.00
F1130  F     0.56591   0.73115   0.98927   0.00000  Uiso   1.00
F1131  F     0.47740   0.85651   0.58780   0.00000  Uiso   1.00
F1132  F     0.45282   0.92609   0.91467   0.00000  Uiso   1.00
F1133  F     0.35482   0.86478   0.70310   0.00000  Uiso   1.00
H1134  H     0.65228   0.80711   0.79048   0.00000  Uiso   1.00
H1135  H     0.48835   0.90244   0.53791   0.00000  Uiso   1.00
H1136  H     0.48346   0.77726   0.90124   0.00000  Uiso   1.00
H1137  H     0.60687   0.79152   0.62818   0.00000  Uiso   1.00
H1138  H     0.59336   0.98715   0.62726   0.00000  Uiso   1.00
H1139  H     0.42748   0.70127   0.88325   0.00000  Uiso   1.00
H1140  H     0.43386   0.99947   0.96304   0.00000  Uiso   1.00
O1141  O     0.50000   0.83333   0.75000   0.00000  Uiso   1.00
O1142  O     0.48784   0.79304   0.65458   0.00000  Uiso   1.00
O1143  O     0.46274   0.87058   0.84968   0.00000  Uiso   1.00
O1144  O     0.54157   0.84425   0.64606   0.00000  Uiso   1.00
O1145  O     0.50785   0.82546   0.84968   0.00000  Uiso   1.00
O1146  O     0.57033   0.70513   0.57410   0.00000  Uiso   1.00
O1147  O     0.62894   0.75866   0.54766   0.00000  Uiso   1.00
O1148  O     0.58433   0.76749   0.63030   0.00000  Uiso   1.00
O1149  O     0.51596   0.69066   0.65961   0.00000  Uiso   1.00
O1150  O     0.57528   0.70948   0.69584   0.00000  Uiso   1.00
O1151  O     0.57103   0.97165   0.64977   0.00000  Uiso   1.00
O1152  O     0.51264   0.74686   0.78213   0.00000  Uiso   1.00
O1153  O     0.41655   0.97049   0.81825   0.00000  Uiso   1.00
O1154  O     0.48357   0.98130   0.84291   0.00000  Uiso   1.00
O1155  O     0.43962   0.71001   0.85250   0.00000  Uiso   1.00
O1156  O     0.44207   0.96582   0.55545   0.00000  Uiso   1.00
O1157  O     0.49766   0.99282   0.99214   0.00000  Uiso   1.00
O1158  O     0.41838   0.97988   0.98560   0.00000  Uiso   1.00
O1159  O     0.47965   0.92751   0.77013   0.00000  Uiso   1.00
O1160  O     0.40745   0.79958   0.73413   0.00000  Uiso   1.00
O1161  O     0.60026   0.85939   0.71360   0.00000  Uiso   1.00
O1162  O     0.40405   0.85544   0.78213   0.00000  Uiso   1.00
O1163  O     0.58824   0.81892   0.77013   0.00000  Uiso   1.00
O1164  O     0.47093   0.73610   0.73413   0.00000  Uiso   1.00
O1165  O     0.53678   0.92286   0.71360   0.00000  Uiso   1.00
S1166  S     0.58405   0.75091   0.57703   0.00000  Uiso   1.00
S1167  S     0.54372   0.67459   0.68396   0.00000  Uiso   1.00
S1168  S     0.45571   0.66697   0.82102   0.00000  Uiso   1.00
S1169  S     0.45662   0.96425   0.50519   0.00000  Uiso   1.00
Zn1170 Zn    0.52672   0.80661   0.78734   0.00000  Uiso   1.00
Zn1171 Zn    0.46713   0.79124   0.71875   0.00000  Uiso   1.00
Zn1172 Zn    0.54389   0.86442   0.70657   0.00000  Uiso   1.00
Zn1173 Zn    0.46226   0.87106   0.78733   0.00000  Uiso   1.00
C1174  C     0.71940   0.82634   0.76018   0.00000  Uiso   1.00
C1175  C     0.83695   0.82984   0.56095   0.00000  Uiso   1.00
C1176  C     0.88264   0.77581   0.55610   0.00000  Uiso   1.00
C1177  C     0.94741   0.84047   0.73997   0.00000  Uiso   1.00
C1178  C     0.80810   0.86035   0.92024   0.00000  Uiso   1.00
C1179  C     0.99337   0.84316   0.73577   0.00000  Uiso   1.00
C1180  C     0.67412   0.82430   0.76400   0.00000  Uiso   1.00
C1181  C     0.84353   0.98822   0.73452   0.00000  Uiso   1.00
C1182  C     0.81885   0.67975   0.76621   0.00000  Uiso   1.00
C1183  C     0.82292   0.72293   0.76037   0.00000  Uiso   1.00
C1184  C     0.84276   0.94452   0.74014   0.00000  Uiso   1.00
C1185  C     0.79998   0.91351   0.98272   0.00000  Uiso   1.00
C1186  C     0.85220   0.81460   0.62944   0.00000  Uiso   1.00
C1187  C     0.81448   0.85085   0.87118   0.00000  Uiso   1.00
C1188  C     0.87878   0.76339   0.51260   0.00000  Uiso   1.00
C1189  C     0.85893   0.80732   0.58116   0.00000  Uiso   1.00
C1190  C     0.79691   0.89973   0.93934   0.00000  Uiso   1.00
C1191  C     0.81462   0.88834   0.50720   0.00000  Uiso   1.00
C1192  C     0.82269   0.84741   0.99080   0.00000  Uiso   1.00
C1193  C     0.81846   0.83307   0.94705   0.00000  Uiso   1.00
C1194  C     0.83815   0.82135   0.51512   0.00000  Uiso   1.00
C1195  C     0.85485   0.78458   0.99284   0.00000  Uiso   1.00
C1196  C     0.84641   0.76926   0.95171   0.00000  Uiso   1.00
C1197  C     0.82582   0.79207   0.93084   0.00000  Uiso   1.00
F1198  F     0.85672   0.73156   0.93203   0.00000  Uiso   1.00
F1199  F     0.89924   0.73115   0.98927   0.00000  Uiso   1.00
F1200  F     0.81073   0.85651   0.58780   0.00000  Uiso   1.00
F1201  F     0.78615   0.92609   0.91467   0.00000  Uiso   1.00
F1202  F     0.68815   0.86478   0.70310   0.00000  Uiso   1.00
H1203  H     0.98562   0.80711   0.79048   0.00000  Uiso   1.00
H1204  H     0.82168   0.90244   0.53791   0.00000  Uiso   1.00
H1205  H     0.81680   0.77726   0.90124   0.00000  Uiso   1.00
H1206  H     0.94020   0.79152   0.62818   0.00000  Uiso   1.00
H1207  H     0.92670   0.98715   0.62726   0.00000  Uiso   1.00
H1208  H     0.76081   0.70127   0.88325   0.00000  Uiso   1.00
H1209  H     0.76719   0.99947   0.96304   0.00000  Uiso   1.00
O1210  O     0.83333   0.83333   0.75000   0.00000  Uiso   1.00
O1211  O     0.82118   0.79304   0.65458   0.00000  Uiso   1.00
O1212  O     0.79607   0.87058   0.84968   0.00000  Uiso   1.00
O1213  O     0.87491   0.84425   0.64606   0.00000  Uiso   1.00
O1214  O     0.84118   0.82546   0.84968   0.00000  Uiso   1.00
O1215  O     0.90366   0.70513   0.57410   0.00000  Uiso   1.00
O1216  O     0.96227   0.75866   0.54766   0.00000  Uiso   1.00
O1217  O     0.91766   0.76749   0.63030   0.00000  Uiso   1.00
O1218  O     0.84929   0.69066   0.65961   0.00000  Uiso   1.00
O1219  O     0.90862   0.70948   0.69584   0.00000  Uiso   1.00
O1220  O     0.90436   0.97165   0.64977   0.00000  Uiso   1.00
O1221  O     0.84597   0.74686   0.78213   0.00000  Uiso   1.00
O1222  O     0.74988   0.97049   0.81825   0.00000  Uiso   1.00
O1223  O     0.81691   0.98130   0.84291   0.00000  Uiso   1.00
O1224  O     0.77295   0.71001   0.85250   0.00000  Uiso   1.00
O1225  O     0.77540   0.96582   0.55545   0.00000  Uiso   1.00
O1226  O     0.83099   0.99282   0.99214   0.00000  Uiso   1.00
O1227  O     0.75171   0.97988   0.98560   0.00000  Uiso   1.00
O1228  O     0.81298   0.92751   0.77013   0.00000  Uiso   1.00
O1229  O     0.74078   0.79958   0.73413   0.00000  Uiso   1.00
O1230  O     0.93360   0.85939   0.71360   0.00000  Uiso   1.00
O1231  O     0.73738   0.85544   0.78213   0.00000  Uiso   1.00
O1232  O     0.92158   0.81892   0.77013   0.00000  Uiso   1.00
O1233  O     0.80426   0.73610   0.73413   0.00000  Uiso   1.00
O1234  O     0.87012   0.92286   0.71360   0.00000  Uiso   1.00
S1235  S     0.91738   0.75091   0.57703   0.00000  Uiso   1.00
S1236  S     0.87705   0.67459   0.68396   0.00000  Uiso   1.00
S1237  S     0.78904   0.66697   0.82102   0.00000  Uiso   1.00
S1238  S     0.78996   0.96425   0.50519   0.00000  Uiso   1.00
Zn1239 Zn    0.86005   0.80661   0.78734   0.00000  Uiso   1.00
Zn1240 Zn    0.80046   0.79124   0.71875   0.00000  Uiso   1.00
Zn1241 Zn    0.87723   0.86442   0.70657   0.00000  Uiso   1.00
Zn1242 Zn    0.79560   0.87106   0.78733   0.00000  Uiso   1.00
loop_
_geom_bond_atom_site_label_1
_geom_bond_atom_site_label_2
_geom_bond_distance
_geom_bond_site_symmetry_2
_ccdc_geom_bond_type
C1     O58     1.271   .     A
C1     O56     1.271   .     A
C1     C7      1.436   .     S
C2     F27     1.359   .     S
C2     C16     1.396   .     A
C2     C21     1.409   .     A
C3     C16     1.409   .     A
C3     C15     1.398   .     A
C3     S62     1.773   .     S
C4     O57     1.286   .     A
C4     O59     1.283   .     A
C4     C6      1.454   .     S
C5     C17     1.411   .     A
C5     C14     1.483   .     S
C5     C20     1.421   .     A
C6     C76     1.336   .     S
C6     F98     1.362   .     S
C7     C144    1.336   1_455 S
C7     H168    1.086   1_455 S
C8     C11     1.460   .     S
C8     C216    1.362   .     S
C8     S270    1.787   .     S
C9     S64     1.785   .     S
C9     C10     1.431   .     S
C9     C422    1.362   1_545 S
C10    O60     1.281   .     A
C10    O48     1.268   .     A
C11    O61     1.275   .     A
C11    O55     1.265   .     A
C12    C17     1.395   .     A
C12    C639    1.393   .     S
C12    S686    1.766   .     S
C13    O38     1.277   .     A
C13    C16     1.452   .     S
C13    O40     1.278   .     A
C14    O41     1.288   .     A
C14    O39     1.284   .     A
C15    C643    1.405   1_554 S
C15    F647    1.360   1_554 S
C17    F28     1.358   .     S
C18    H31     1.076   .     S
C18    C633    1.393   1_554 S
C18    C640    1.413   1_554 S
C19    C20     1.420   .     A
C19    C639    1.413   .     S
C19    C642    1.425   .     S
C20    C24     1.409   .     A
C21    C640    1.425   1_554 S
C21    C643    1.420   1_554 S
C22    C23     1.398   .     A
C22    C642    1.420   .     S
C22    C636    1.405   .     S
C23    C24     1.384   .     A
C23    F25     1.358   .     S
C24    H32     1.079   .     S
F26    C636    1.360   .     S
F29    C144    1.362   1_455 S
H30    C76     1.086   .     S
H33    O44     0.991   .     S
H34    O47     0.990   .     S
H35    O51     0.991   .     S
H36    O54     0.991   .     S
O37    Zn69    1.928   .     S
O37    Zn66    1.965   .     S
O37    Zn67    1.949   .     S
O37    Zn68    1.942   .     S
O38    Zn67    1.932   .     S
O39    Zn69    1.943   .     S
O40    Zn68    1.935   .     S
O41    Zn66    1.924   .     S
O42    S62     1.502   .     D
O43    S62     1.504   .     D
O44    S62     1.682   .     S
O45    S63     1.502   .     D
O46    S63     1.503   .     D
O47    S270    1.683   .     S
O48    Zn66    1.944   .     S
O49    S271    1.504   .     S
O50    S271    1.504   .     S
O51    S64     1.683   .     S
O52    S65     1.503   .     D
O53    S686    1.503   .     S
O54    S686    1.684   .     S
O55    Zn69    1.950   .     S
O56    Zn67    1.920   .     S
O57    Zn68    1.933   .     S
O58    Zn69    1.931   .     S
O59    Zn66    1.921   .     S
O60    Zn67    1.952   .     S
O61    Zn68    1.942   .     S
S63    O461    1.683   1_545 S
S63    C422    1.787   1_545 S
S64    O463    1.504   1_545 S
S64    O464    1.504   1_545 S
S65    O674    1.503   1_554 S
S65    O675    1.684   1_554 S
S65    C633    1.766   1_554 S
C70    O127    1.271   .     A
C70    O125    1.271   .     A
C70    C76     1.436   .     S
C71    F96     1.359   .     S
C71    C85     1.396   .     A
C71    C90     1.409   .     A
C72    C85     1.409   .     A
C72    C84     1.398   .     A
C72    S131    1.773   .     S
C73    O126    1.286   .     A
C73    O128    1.283   .     A
C73    C75     1.454   .     S
C74    C86     1.411   .     A
C74    C83     1.483   .     S
C74    C89     1.421   .     A
C75    C145    1.336   .     S
C75    F167    1.362   .     S
C77    C80     1.460   .     S
C77    C285    1.362   .     S
C77    S339    1.787   .     S
C78    S133    1.785   .     S
C78    C79     1.431   .     S
C78    C491    1.362   1_545 S
C79    O129    1.281   .     A
C79    O117    1.268   .     A
C80    O130    1.275   .     A
C80    O124    1.265   .     A
C81    C86     1.395   .     A
C81    C708    1.393   .     S
C81    S755    1.766   .     S
C82    O107    1.277   .     A
C82    C85     1.452   .     S
C82    O109    1.278   .     A
C83    O110    1.288   .     A
C83    O108    1.284   .     A
C84    C712    1.405   1_554 S
C84    F716    1.360   1_554 S
C86    F97     1.358   .     S
C87    H100    1.076   .     S
C87    C702    1.393   1_554 S
C87    C709    1.413   1_554 S
C88    C89     1.420   .     A
C88    C708    1.413   .     S
C88    C711    1.425   .     S
C89    C93     1.409   .     A
C90    C709    1.425   1_554 S
C90    C712    1.420   1_554 S
C91    C92     1.398   .     A
C91    C711    1.420   .     S
C91    C705    1.405   .     S
C92    C93     1.384   .     A
C92    F94     1.358   .     S
C93    H101    1.079   .     S
F95    C705    1.360   .     S
H99    C145    1.086   .     S
H102   O113    0.991   .     S
H103   O116    0.990   .     S
H104   O120    0.991   .     S
H105   O123    0.991   .     S
O106   Zn138   1.928   .     S
O106   Zn135   1.965   .     S
O106   Zn136   1.949   .     S
O106   Zn137   1.942   .     S
O107   Zn136   1.932   .     S
O108   Zn138   1.943   .     S
O109   Zn137   1.935   .     S
O110   Zn135   1.924   .     S
O111   S131    1.502   .     D
O112   S131    1.504   .     D
O113   S131    1.682   .     S
O114   S132    1.502   .     D
O115   S132    1.503   .     D
O116   S339    1.683   .     S
O117   Zn135   1.944   .     S
O118   S340    1.504   .     S
O119   S340    1.504   .     S
O120   S133    1.683   .     S
O121   S134    1.503   .     D
O122   S755    1.503   .     S
O123   S755    1.684   .     S
O124   Zn138   1.950   .     S
O125   Zn136   1.920   .     S
O126   Zn137   1.933   .     S
O127   Zn138   1.931   .     S
O128   Zn135   1.921   .     S
O129   Zn136   1.952   .     S
O130   Zn137   1.942   .     S
S132   O530    1.683   1_545 S
S132   C491    1.787   1_545 S
S133   O532    1.504   1_545 S
S133   O533    1.504   1_545 S
S134   O743    1.503   1_554 S
S134   O744    1.684   1_554 S
S134   C702    1.766   1_554 S
C139   O196    1.271   .     A
C139   O194    1.271   .     A
C139   C145    1.436   .     S
C140   F165    1.359   .     S
C140   C154    1.396   .     A
C140   C159    1.409   .     A
C141   C154    1.409   .     A
C141   C153    1.398   .     A
C141   S200    1.773   .     S
C142   O195    1.286   .     A
C142   O197    1.283   .     A
C142   C144    1.454   .     S
C143   C155    1.411   .     A
C143   C152    1.483   .     S
C143   C158    1.421   .     A
C144   C7      1.336   1_655 S
C144   F29     1.362   1_655 S
C146   C149    1.460   .     S
C146   C354    1.362   .     S
C146   S408    1.787   .     S
C147   S202    1.785   .     S
C147   C148    1.431   .     S
C147   C560    1.362   1_545 S
C148   O198    1.281   .     A
C148   O186    1.268   .     A
C149   O199    1.275   .     A
C149   O193    1.265   .     A
C150   C155    1.395   .     A
C150   C777    1.393   .     S
C150   S824    1.766   .     S
C151   O176    1.277   .     A
C151   C154    1.452   .     S
C151   O178    1.278   .     A
C152   O179    1.288   .     A
C152   O177    1.284   .     A
C153   C781    1.405   1_554 S
C153   F785    1.360   1_554 S
C155   F166    1.358   .     S
C156   H169    1.076   .     S
C156   C771    1.393   1_554 S
C156   C778    1.413   1_554 S
C157   C158    1.420   .     A
C157   C777    1.413   .     S
C157   C780    1.425   .     S
C158   C162    1.409   .     A
C159   C778    1.425   1_554 S
C159   C781    1.420   1_554 S
C160   C161    1.398   .     A
C160   C780    1.420   .     S
C160   C774    1.405   .     S
C161   C162    1.384   .     A
C161   F163    1.358   .     S
C162   H170    1.079   .     S
F164   C774    1.360   .     S
H168   C7      1.086   1_655 S
H171   O182    0.991   .     S
H172   O185    0.990   .     S
H173   O189    0.991   .     S
H174   O192    0.991   .     S
O175   Zn207   1.928   .     S
O175   Zn204   1.965   .     S
O175   Zn205   1.949   .     S
O175   Zn206   1.942   .     S
O176   Zn205   1.932   .     S
O177   Zn207   1.943   .     S
O178   Zn206   1.935   .     S
O179   Zn204   1.924   .     S
O180   S200    1.502   .     D
O181   S200    1.504   .     D
O182   S200    1.682   .     S
O183   S201    1.502   .     D
O184   S201    1.503   .     D
O185   S408    1.683   .     S
O186   Zn204   1.944   .     S
O187   S409    1.504   .     S
O188   S409    1.504   .     S
O189   S202    1.683   .     S
O190   S203    1.503   .     D
O191   S824    1.503   .     S
O192   S824    1.684   .     S
O193   Zn207   1.950   .     S
O194   Zn205   1.920   .     S
O195   Zn206   1.933   .     S
O196   Zn207   1.931   .     S
O197   Zn204   1.921   .     S
O198   Zn205   1.952   .     S
O199   Zn206   1.942   .     S
S201   O599    1.683   1_545 S
S201   C560    1.787   1_545 S
S202   O601    1.504   1_545 S
S202   O602    1.504   1_545 S
S203   O812    1.503   1_554 S
S203   O813    1.684   1_554 S
S203   C771    1.766   1_554 S
C208   O265    1.271   .     A
C208   O263    1.271   .     A
C208   C214    1.436   .     S
C209   F234    1.359   .     S
C209   C223    1.396   .     A
C209   C228    1.409   .     A
C210   C223    1.409   .     A
C210   C222    1.398   .     A
C210   S269    1.773   .     S
C211   O264    1.286   .     A
C211   O266    1.283   .     A
C211   C213    1.454   .     S
C212   C224    1.411   .     A
C212   C221    1.483   .     S
C212   C227    1.421   .     A
C213   C283    1.336   .     S
C213   F305    1.362   .     S
C214   C351    1.336   1_455 S
C214   H375    1.086   1_455 S
C215   C218    1.460   .     S
C215   C423    1.362   .     S
C215   S477    1.787   .     S
C216   S271    1.785   .     S
C216   C217    1.431   .     S
C217   O267    1.281   .     A
C217   O255    1.268   .     A
C218   O268    1.275   .     A
C218   O262    1.265   .     A
C219   C224    1.395   .     A
C219   C846    1.393   .     S
C219   S893    1.766   .     S
C220   O245    1.277   .     A
C220   C223    1.452   .     S
C220   O247    1.278   .     A
C221   O248    1.288   .     A
C221   O246    1.284   .     A
C222   C850    1.405   1_554 S
C222   F854    1.360   1_554 S
C224   F235    1.358   .     S
C225   H238    1.076   .     S
C225   C840    1.393   1_554 S
C225   C847    1.413   1_554 S
C226   C227    1.420   .     A
C226   C846    1.413   .     S
C226   C849    1.425   .     S
C227   C231    1.409   .     A
C228   C847    1.425   1_554 S
C228   C850    1.420   1_554 S
C229   C230    1.398   .     A
C229   C849    1.420   .     S
C229   C843    1.405   .     S
C230   C231    1.384   .     A
C230   F232    1.358   .     S
C231   H239    1.079   .     S
F233   C843    1.360   .     S
F236   C351    1.362   1_455 S
H237   C283    1.086   .     S
H240   O251    0.991   .     S
H241   O254    0.990   .     S
H242   O258    0.991   .     S
H243   O261    0.991   .     S
O244   Zn276   1.928   .     S
O244   Zn273   1.965   .     S
O244   Zn274   1.949   .     S
O244   Zn275   1.942   .     S
O245   Zn274   1.932   .     S
O246   Zn276   1.943   .     S
O247   Zn275   1.935   .     S
O248   Zn273   1.924   .     S
O249   S269    1.502   .     D
O250   S269    1.504   .     D
O251   S269    1.682   .     S
O252   S270    1.502   .     D
O253   S270    1.503   .     D
O254   S477    1.683   .     S
O255   Zn273   1.944   .     S
O256   S478    1.504   .     S
O257   S478    1.504   .     S
O258   S271    1.683   .     S
O259   S272    1.503   .     D
O260   S893    1.503   .     S
O261   S893    1.684   .     S
O262   Zn276   1.950   .     S
O263   Zn274   1.920   .     S
O264   Zn275   1.933   .     S
O265   Zn276   1.931   .     S
O266   Zn273   1.921   .     S
O267   Zn274   1.952   .     S
O268   Zn275   1.942   .     S
S272   O881    1.503   1_554 S
S272   O882    1.684   1_554 S
S272   C840    1.766   1_554 S
C277   O334    1.271   .     A
C277   O332    1.271   .     A
C277   C283    1.436   .     S
C278   F303    1.359   .     S
C278   C292    1.396   .     A
C278   C297    1.409   .     A
C279   C292    1.409   .     A
C279   C291    1.398   .     A
C279   S338    1.773   .     S
C280   O333    1.286   .     A
C280   O335    1.283   .     A
C280   C282    1.454   .     S
C281   C293    1.411   .     A
C281   C290    1.483   .     S
C281   C296    1.421   .     A
C282   C352    1.336   .     S
C282   F374    1.362   .     S
C284   C287    1.460   .     S
C284   C492    1.362   .     S
C284   S546    1.787   .     S
C285   S340    1.785   .     S
C285   C286    1.431   .     S
C286   O336    1.281   .     A
C286   O324    1.268   .     A
C287   O337    1.275   .     A
C287   O331    1.265   .     A
C288   C293    1.395   .     A
C288   C915    1.393   .     S
C288   S962    1.766   .     S
C289   O314    1.277   .     A
C289   C292    1.452   .     S
C289   O316    1.278   .     A
C290   O317    1.288   .     A
C290   O315    1.284   .     A
C291   C919    1.405   1_554 S
C291   F923    1.360   1_554 S
C293   F304    1.358   .     S
C294   H307    1.076   .     S
C294   C909    1.393   1_554 S
C294   C916    1.413   1_554 S
C295   C296    1.420   .     A
C295   C915    1.413   .     S
C295   C918    1.425   .     S
C296   C300    1.409   .     A
C297   C916    1.425   1_554 S
C297   C919    1.420   1_554 S
C298   C299    1.398   .     A
C298   C918    1.420   .     S
C298   C912    1.405   .     S
C299   C300    1.384   .     A
C299   F301    1.358   .     S
C300   H308    1.079   .     S
F302   C912    1.360   .     S
H306   C352    1.086   .     S
H309   O320    0.991   .     S
H310   O323    0.990   .     S
H311   O327    0.991   .     S
H312   O330    0.991   .     S
O313   Zn345   1.928   .     S
O313   Zn342   1.965   .     S
O313   Zn343   1.949   .     S
O313   Zn344   1.942   .     S
O314   Zn343   1.932   .     S
O315   Zn345   1.943   .     S
O316   Zn344   1.935   .     S
O317   Zn342   1.924   .     S
O318   S338    1.502   .     D
O319   S338    1.504   .     D
O320   S338    1.682   .     S
O321   S339    1.502   .     D
O322   S339    1.503   .     D
O323   S546    1.683   .     S
O324   Zn342   1.944   .     S
O325   S547    1.504   .     S
O326   S547    1.504   .     S
O327   S340    1.683   .     S
O328   S341    1.503   .     D
O329   S962    1.503   .     S
O330   S962    1.684   .     S
O331   Zn345   1.950   .     S
O332   Zn343   1.920   .     S
O333   Zn344   1.933   .     S
O334   Zn345   1.931   .     S
O335   Zn342   1.921   .     S
O336   Zn343   1.952   .     S
O337   Zn344   1.942   .     S
S341   O950    1.503   1_554 S
S341   O951    1.684   1_554 S
S341   C909    1.766   1_554 S
C346   O403    1.271   .     A
C346   O401    1.271   .     A
C346   C352    1.436   .     S
C347   F372    1.359   .     S
C347   C361    1.396   .     A
C347   C366    1.409   .     A
C348   C361    1.409   .     A
C348   C360    1.398   .     A
C348   S407    1.773   .     S
C349   O402    1.286   .     A
C349   O404    1.283   .     A
C349   C351    1.454   .     S
C350   C362    1.411   .     A
C350   C359    1.483   .     S
C350   C365    1.421   .     A
C351   C214    1.336   1_655 S
C351   F236    1.362   1_655 S
C353   C356    1.460   .     S
C353   C561    1.362   .     S
C353   S615    1.787   .     S
C354   S409    1.785   .     S
C354   C355    1.431   .     S
C355   O405    1.281   .     A
C355   O393    1.268   .     A
C356   O406    1.275   .     A
C356   O400    1.265   .     A
C357   C362    1.395   .     A
C357   C984    1.393   .     S
C357   S1031   1.766   .     S
C358   O383    1.277   .     A
C358   C361    1.452   .     S
C358   O385    1.278   .     A
C359   O386    1.288   .     A
C359   O384    1.284   .     A
C360   C988    1.405   1_554 S
C360   F992    1.360   1_554 S
C362   F373    1.358   .     S
C363   H376    1.076   .     S
C363   C978    1.393   1_554 S
C363   C985    1.413   1_554 S
C364   C365    1.420   .     A
C364   C984    1.413   .     S
C364   C987    1.425   .     S
C365   C369    1.409   .     A
C366   C985    1.425   1_554 S
C366   C988    1.420   1_554 S
C367   C368    1.398   .     A
C367   C987    1.420   .     S
C367   C981    1.405   .     S
C368   C369    1.384   .     A
C368   F370    1.358   .     S
C369   H377    1.079   .     S
F371   C981    1.360   .     S
H375   C214    1.086   1_655 S
H378   O389    0.991   .     S
H379   O392    0.990   .     S
H380   O396    0.991   .     S
H381   O399    0.991   .     S
O382   Zn414   1.928   .     S
O382   Zn411   1.965   .     S
O382   Zn412   1.949   .     S
O382   Zn413   1.942   .     S
O383   Zn412   1.932   .     S
O384   Zn414   1.943   .     S
O385   Zn413   1.935   .     S
O386   Zn411   1.924   .     S
O387   S407    1.502   .     D
O388   S407    1.504   .     D
O389   S407    1.682   .     S
O390   S408    1.502   .     D
O391   S408    1.503   .     D
O392   S615    1.683   .     S
O393   Zn411   1.944   .     S
O394   S616    1.504   .     S
O395   S616    1.504   .     S
O396   S409    1.683   .     S
O397   S410    1.503   .     D
O398   S1031   1.503   .     S
O399   S1031   1.684   .     S
O400   Zn414   1.950   .     S
O401   Zn412   1.920   .     S
O402   Zn413   1.933   .     S
O403   Zn414   1.931   .     S
O404   Zn411   1.921   .     S
O405   Zn412   1.952   .     S
O406   Zn413   1.942   .     S
S410   O1019   1.503   1_554 S
S410   O1020   1.684   1_554 S
S410   C978    1.766   1_554 S
C415   O472    1.271   .     A
C415   O470    1.271   .     A
C415   C421    1.436   .     S
C416   F441    1.359   .     S
C416   C430    1.396   .     A
C416   C435    1.409   .     A
C417   C430    1.409   .     A
C417   C429    1.398   .     A
C417   S476    1.773   .     S
C418   O471    1.286   .     A
C418   O473    1.283   .     A
C418   C420    1.454   .     S
C419   C431    1.411   .     A
C419   C428    1.483   .     S
C419   C434    1.421   .     A
C420   C490    1.336   .     S
C420   F512    1.362   .     S
C421   C558    1.336   1_455 S
C421   H582    1.086   1_455 S
C422   C425    1.460   .     S
C422   C9      1.362   1_565 S
C422   S63     1.787   1_565 S
C423   S478    1.785   .     S
C423   C424    1.431   .     S
C424   O474    1.281   .     A
C424   O462    1.268   .     A
C425   O475    1.275   .     A
C425   O469    1.265   .     A
C426   C431    1.395   .     A
C426   C1053   1.393   .     S
C426   S1100   1.766   .     S
C427   O452    1.277   .     A
C427   C430    1.452   .     S
C427   O454    1.278   .     A
C428   O455    1.288   .     A
C428   O453    1.284   .     A
C429   C1057   1.405   1_554 S
C429   F1061   1.360   1_554 S
C431   F442    1.358   .     S
C432   H445    1.076   .     S
C432   C1047   1.393   1_554 S
C432   C1054   1.413   1_554 S
C433   C434    1.420   .     A
C433   C1053   1.413   .     S
C433   C1056   1.425   .     S
C434   C438    1.409   .     A
C435   C1054   1.425   1_554 S
C435   C1057   1.420   1_554 S
C436   C437    1.398   .     A
C436   C1056   1.420   .     S
C436   C1050   1.405   .     S
C437   C438    1.384   .     A
C437   F439    1.358   .     S
C438   H446    1.079   .     S
F440   C1050   1.360   .     S
F443   C558    1.362   1_455 S
H444   C490    1.086   .     S
H447   O458    0.991   .     S
H448   O461    0.990   .     S
H449   O465    0.991   .     S
H450   O468    0.991   .     S
O451   Zn483   1.928   .     S
O451   Zn480   1.965   .     S
O451   Zn481   1.949   .     S
O451   Zn482   1.942   .     S
O452   Zn481   1.932   .     S
O453   Zn483   1.943   .     S
O454   Zn482   1.935   .     S
O455   Zn480   1.924   .     S
O456   S476    1.502   .     D
O457   S476    1.504   .     D
O458   S476    1.682   .     S
O459   S477    1.502   .     D
O460   S477    1.503   .     D
O461   S63     1.683   1_565 S
O462   Zn480   1.944   .     S
O463   S64     1.504   1_565 S
O464   S64     1.504   1_565 S
O465   S478    1.683   .     S
O466   S479    1.503   .     D
O467   S1100   1.503   .     S
O468   S1100   1.684   .     S
O469   Zn483   1.950   .     S
O470   Zn481   1.920   .     S
O471   Zn482   1.933   .     S
O472   Zn483   1.931   .     S
O473   Zn480   1.921   .     S
O474   Zn481   1.952   .     S
O475   Zn482   1.942   .     S
S479   O1088   1.503   1_554 S
S479   O1089   1.684   1_554 S
S479   C1047   1.766   1_554 S
C484   O541    1.271   .     A
C484   O539    1.271   .     A
C484   C490    1.436   .     S
C485   F510    1.359   .     S
C485   C499    1.396   .     A
C485   C504    1.409   .     A
C486   C499    1.409   .     A
C486   C498    1.398   .     A
C486   S545    1.773   .     S
C487   O540    1.286   .     A
C487   O542    1.283   .     A
C487   C489    1.454   .     S
C488   C500    1.411   .     A
C488   C497    1.483   .     S
C488   C503    1.421   .     A
C489   C559    1.336   .     S
C489   F581    1.362   .     S
C491   C494    1.460   .     S
C491   C78     1.362   1_565 S
C491   S132    1.787   1_565 S
C492   S547    1.785   .     S
C492   C493    1.431   .     S
C493   O543    1.281   .     A
C493   O531    1.268   .     A
C494   O544    1.275   .     A
C494   O538    1.265   .     A
C495   C500    1.395   .     A
C495   C1122   1.393   .     S
C495   S1169   1.766   .     S
C496   O521    1.277   .     A
C496   C499    1.452   .     S
C496   O523    1.278   .     A
C497   O524    1.288   .     A
C497   O522    1.284   .     A
C498   C1126   1.405   1_554 S
C498   F1130   1.360   1_554 S
C500   F511    1.358   .     S
C501   H514    1.076   .     S
C501   C1116   1.393   1_554 S
C501   C1123   1.413   1_554 S
C502   C503    1.420   .     A
C502   C1122   1.413   .     S
C502   C1125   1.425   .     S
C503   C507    1.409   .     A
C504   C1123   1.425   1_554 S
C504   C1126   1.420   1_554 S
C505   C506    1.398   .     A
C505   C1125   1.420   .     S
C505   C1119   1.405   .     S
C506   C507    1.384   .     A
C506   F508    1.358   .     S
C507   H515    1.079   .     S
F509   C1119   1.360   .     S
H513   C559    1.086   .     S
H516   O527    0.991   .     S
H517   O530    0.990   .     S
H518   O534    0.991   .     S
H519   O537    0.991   .     S
O520   Zn552   1.928   .     S
O520   Zn549   1.965   .     S
O520   Zn550   1.949   .     S
O520   Zn551   1.942   .     S
O521   Zn550   1.932   .     S
O522   Zn552   1.943   .     S
O523   Zn551   1.935   .     S
O524   Zn549   1.924   .     S
O525   S545    1.502   .     D
O526   S545    1.504   .     D
O527   S545    1.682   .     S
O528   S546    1.502   .     D
O529   S546    1.503   .     D
O530   S132    1.683   1_565 S
O531   Zn549   1.944   .     S
O532   S133    1.504   1_565 S
O533   S133    1.504   1_565 S
O534   S547    1.683   .     S
O535   S548    1.503   .     D
O536   S1169   1.503   .     S
O537   S1169   1.684   .     S
O538   Zn552   1.950   .     S
O539   Zn550   1.920   .     S
O540   Zn551   1.933   .     S
O541   Zn552   1.931   .     S
O542   Zn549   1.921   .     S
O543   Zn550   1.952   .     S
O544   Zn551   1.942   .     S
S548   O1157   1.503   1_554 S
S548   O1158   1.684   1_554 S
S548   C1116   1.766   1_554 S
C553   O610    1.271   .     A
C553   O608    1.271   .     A
C553   C559    1.436   .     S
C554   F579    1.359   .     S
C554   C568    1.396   .     A
C554   C573    1.409   .     A
C555   C568    1.409   .     A
C555   C567    1.398   .     A
C555   S614    1.773   .     S
C556   O609    1.286   .     A
C556   O611    1.283   .     A
C556   C558    1.454   .     S
C557   C569    1.411   .     A
C557   C566    1.483   .     S
C557   C572    1.421   .     A
C558   C421    1.336   1_655 S
C558   F443    1.362   1_655 S
C560   C563    1.460   .     S
C560   C147    1.362   1_565 S
C560   S201    1.787   1_565 S
C561   S616    1.785   .     S
C561   C562    1.431   .     S
C562   O612    1.281   .     A
C562   O600    1.268   .     A
C563   O613    1.275   .     A
C563   O607    1.265   .     A
C564   C569    1.395   .     A
C564   C1191   1.393   .     S
C564   S1238   1.766   .     S
C565   O590    1.277   .     A
C565   C568    1.452   .     S
C565   O592    1.278   .     A
C566   O593    1.288   .     A
C566   O591    1.284   .     A
C567   C1195   1.405   1_554 S
C567   F1199   1.360   1_554 S
C569   F580    1.358   .     S
C570   H583    1.076   .     S
C570   C1185   1.393   1_554 S
C570   C1192   1.413   1_554 S
C571   C572    1.420   .     A
C571   C1191   1.413   .     S
C571   C1194   1.425   .     S
C572   C576    1.409   .     A
C573   C1192   1.425   1_554 S
C573   C1195   1.420   1_554 S
C574   C575    1.398   .     A
C574   C1194   1.420   .     S
C574   C1188   1.405   .     S
C575   C576    1.384   .     A
C575   F577    1.358   .     S
C576   H584    1.079   .     S
F578   C1188   1.360   .     S
H582   C421    1.086   1_655 S
H585   O596    0.991   .     S
H586   O599    0.990   .     S
H587   O603    0.991   .     S
H588   O606    0.991   .     S
O589   Zn621   1.928   .     S
O589   Zn618   1.965   .     S
O589   Zn619   1.949   .     S
O589   Zn620   1.942   .     S
O590   Zn619   1.932   .     S
O591   Zn621   1.943   .     S
O592   Zn620   1.935   .     S
O593   Zn618   1.924   .     S
O594   S614    1.502   .     D
O595   S614    1.504   .     D
O596   S614    1.682   .     S
O597   S615    1.502   .     D
O598   S615    1.503   .     D
O599   S201    1.683   1_565 S
O600   Zn618   1.944   .     S
O601   S202    1.504   1_565 S
O602   S202    1.504   1_565 S
O603   S616    1.683   .     S
O604   S617    1.503   .     D
O605   S1238   1.503   .     S
O606   S1238   1.684   .     S
O607   Zn621   1.950   .     S
O608   Zn619   1.920   .     S
O609   Zn620   1.933   .     S
O610   Zn621   1.931   .     S
O611   Zn618   1.921   .     S
O612   Zn619   1.952   .     S
O613   Zn620   1.942   .     S
S617   O1226   1.503   1_554 S
S617   O1227   1.684   1_554 S
S617   C1185   1.766   1_554 S
C622   O679    1.271   .     A
C622   O677    1.271   .     A
C622   C628    1.436   .     S
C623   F648    1.359   .     S
C623   C637    1.396   .     A
C623   C642    1.409   .     A
C624   C637    1.409   .     A
C624   C636    1.398   .     A
C624   S683    1.773   .     S
C625   O678    1.286   .     A
C625   O680    1.283   .     A
C625   C627    1.454   .     S
C626   C638    1.411   .     A
C626   C635    1.483   .     S
C626   C641    1.421   .     A
C627   C697    1.336   .     S
C627   F719    1.362   .     S
C628   C765    1.336   1_455 S
C628   H789    1.086   1_455 S
C629   C632    1.460   .     S
C629   C837    1.362   .     S
C629   S891    1.787   .     S
C630   S685    1.785   .     S
C630   C631    1.431   .     S
C630   C1043   1.362   1_545 S
C631   O681    1.281   .     A
C631   O669    1.268   .     A
C632   O682    1.275   .     A
C632   O676    1.265   .     A
C633   C638    1.395   .     A
C633   C18     1.393   1_556 S
C633   S65     1.766   1_556 S
C634   O659    1.277   .     A
C634   C637    1.452   .     S
C634   O661    1.278   .     A
C635   O662    1.288   .     A
C635   O660    1.284   .     A
C638   F649    1.358   .     S
C639   H652    1.076   .     S
C640   C641    1.420   .     A
C640   C18     1.413   1_556 S
C640   C21     1.425   1_556 S
C641   C645    1.409   .     A
C643   C644    1.398   .     A
C643   C21     1.420   1_556 S
C643   C15     1.405   1_556 S
C644   C645    1.384   .     A
C644   F646    1.358   .     S
C645   H653    1.079   .     S
F647   C15     1.360   1_556 S
F650   C765    1.362   1_455 S
H651   C697    1.086   .     S
H654   O665    0.991   .     S
H655   O668    0.990   .     S
H656   O672    0.991   .     S
H657   O675    0.991   .     S
O658   Zn690   1.928   .     S
O658   Zn687   1.965   .     S
O658   Zn688   1.949   .     S
O658   Zn689   1.942   .     S
O659   Zn688   1.932   .     S
O660   Zn690   1.943   .     S
O661   Zn689   1.935   .     S
O662   Zn687   1.924   .     S
O663   S683    1.502   .     D
O664   S683    1.504   .     D
O665   S683    1.682   .     S
O666   S684    1.502   .     D
O667   S684    1.503   .     D
O668   S891    1.683   .     S
O669   Zn687   1.944   .     S
O670   S892    1.504   .     S
O671   S892    1.504   .     S
O672   S685    1.683   .     S
O673   S686    1.503   .     D
O674   S65     1.503   1_556 S
O675   S65     1.684   1_556 S
O676   Zn690   1.950   .     S
O677   Zn688   1.920   .     S
O678   Zn689   1.933   .     S
O679   Zn690   1.931   .     S
O680   Zn687   1.921   .     S
O681   Zn688   1.952   .     S
O682   Zn689   1.942   .     S
S684   O1082   1.683   1_545 S
S684   C1043   1.787   1_545 S
S685   O1084   1.504   1_545 S
S685   O1085   1.504   1_545 S
C691   O748    1.271   .     A
C691   O746    1.271   .     A
C691   C697    1.436   .     S
C692   F717    1.359   .     S
C692   C706    1.396   .     A
C692   C711    1.409   .     A
C693   C706    1.409   .     A
C693   C705    1.398   .     A
C693   S752    1.773   .     S
C694   O747    1.286   .     A
C694   O749    1.283   .     A
C694   C696    1.454   .     S
C695   C707    1.411   .     A
C695   C704    1.483   .     S
C695   C710    1.421   .     A
C696   C766    1.336   .     S
C696   F788    1.362   .     S
C698   C701    1.460   .     S
C698   C906    1.362   .     S
C698   S960    1.787   .     S
C699   S754    1.785   .     S
C699   C700    1.431   .     S
C699   C1112   1.362   1_545 S
C700   O750    1.281   .     A
C700   O738    1.268   .     A
C701   O751    1.275   .     A
C701   O745    1.265   .     A
C702   C707    1.395   .     A
C702   C87     1.393   1_556 S
C702   S134    1.766   1_556 S
C703   O728    1.277   .     A
C703   C706    1.452   .     S
C703   O730    1.278   .     A
C704   O731    1.288   .     A
C704   O729    1.284   .     A
C707   F718    1.358   .     S
C708   H721    1.076   .     S
C709   C710    1.420   .     A
C709   C87     1.413   1_556 S
C709   C90     1.425   1_556 S
C710   C714    1.409   .     A
C712   C713    1.398   .     A
C712   C90     1.420   1_556 S
C712   C84     1.405   1_556 S
C713   C714    1.384   .     A
C713   F715    1.358   .     S
C714   H722    1.079   .     S
F716   C84     1.360   1_556 S
H720   C766    1.086   .     S
H723   O734    0.991   .     S
H724   O737    0.990   .     S
H725   O741    0.991   .     S
H726   O744    0.991   .     S
O727   Zn759   1.928   .     S
O727   Zn756   1.965   .     S
O727   Zn757   1.949   .     S
O727   Zn758   1.942   .     S
O728   Zn757   1.932   .     S
O729   Zn759   1.943   .     S
O730   Zn758   1.935   .     S
O731   Zn756   1.924   .     S
O732   S752    1.502   .     D
O733   S752    1.504   .     D
O734   S752    1.682   .     S
O735   S753    1.502   .     D
O736   S753    1.503   .     D
O737   S960    1.683   .     S
O738   Zn756   1.944   .     S
O739   S961    1.504   .     S
O740   S961    1.504   .     S
O741   S754    1.683   .     S
O742   S755    1.503   .     D
O743   S134    1.503   1_556 S
O744   S134    1.684   1_556 S
O745   Zn759   1.950   .     S
O746   Zn757   1.920   .     S
O747   Zn758   1.933   .     S
O748   Zn759   1.931   .     S
O749   Zn756   1.921   .     S
O750   Zn757   1.952   .     S
O751   Zn758   1.942   .     S
S753   O1151   1.683   1_545 S
S753   C1112   1.787   1_545 S
S754   O1153   1.504   1_545 S
S754   O1154   1.504   1_545 S
C760   O817    1.271   .     A
C760   O815    1.271   .     A
C760   C766    1.436   .     S
C761   F786    1.359   .     S
C761   C775    1.396   .     A
C761   C780    1.409   .     A
C762   C775    1.409   .     A
C762   C774    1.398   .     A
C762   S821    1.773   .     S
C763   O816    1.286   .     A
C763   O818    1.283   .     A
C763   C765    1.454   .     S
C764   C776    1.411   .     A
C764   C773    1.483   .     S
C764   C779    1.421   .     A
C765   C628    1.336   1_655 S
C765   F650    1.362   1_655 S
C767   C770    1.460   .     S
C767   C975    1.362   .     S
C767   S1029   1.787   .     S
C768   S823    1.785   .     S
C768   C769    1.431   .     S
C768   C1181   1.362   1_545 S
C769   O819    1.281   .     A
C769   O807    1.268   .     A
C770   O820    1.275   .     A
C770   O814    1.265   .     A
C771   C776    1.395   .     A
C771   C156    1.393   1_556 S
C771   S203    1.766   1_556 S
C772   O797    1.277   .     A
C772   C775    1.452   .     S
C772   O799    1.278   .     A
C773   O800    1.288   .     A
C773   O798    1.284   .     A
C776   F787    1.358   .     S
C777   H790    1.076   .     S
C778   C779    1.420   .     A
C778   C156    1.413   1_556 S
C778   C159    1.425   1_556 S
C779   C783    1.409   .     A
C781   C782    1.398   .     A
C781   C159    1.420   1_556 S
C781   C153    1.405   1_556 S
C782   C783    1.384   .     A
C782   F784    1.358   .     S
C783   H791    1.079   .     S
F785   C153    1.360   1_556 S
H789   C628    1.086   1_655 S
H792   O803    0.991   .     S
H793   O806    0.990   .     S
H794   O810    0.991   .     S
H795   O813    0.991   .     S
O796   Zn828   1.928   .     S
O796   Zn825   1.965   .     S
O796   Zn826   1.949   .     S
O796   Zn827   1.942   .     S
O797   Zn826   1.932   .     S
O798   Zn828   1.943   .     S
O799   Zn827   1.935   .     S
O800   Zn825   1.924   .     S
O801   S821    1.502   .     D
O802   S821    1.504   .     D
O803   S821    1.682   .     S
O804   S822    1.502   .     D
O805   S822    1.503   .     D
O806   S1029   1.683   .     S
O807   Zn825   1.944   .     S
O808   S1030   1.504   .     S
O809   S1030   1.504   .     S
O810   S823    1.683   .     S
O811   S824    1.503   .     D
O812   S203    1.503   1_556 S
O813   S203    1.684   1_556 S
O814   Zn828   1.950   .     S
O815   Zn826   1.920   .     S
O816   Zn827   1.933   .     S
O817   Zn828   1.931   .     S
O818   Zn825   1.921   .     S
O819   Zn826   1.952   .     S
O820   Zn827   1.942   .     S
S822   O1220   1.683   1_545 S
S822   C1181   1.787   1_545 S
S823   O1222   1.504   1_545 S
S823   O1223   1.504   1_545 S
C829   O886    1.271   .     A
C829   O884    1.271   .     A
C829   C835    1.436   .     S
C830   F855    1.359   .     S
C830   C844    1.396   .     A
C830   C849    1.409   .     A
C831   C844    1.409   .     A
C831   C843    1.398   .     A
C831   S890    1.773   .     S
C832   O885    1.286   .     A
C832   O887    1.283   .     A
C832   C834    1.454   .     S
C833   C845    1.411   .     A
C833   C842    1.483   .     S
C833   C848    1.421   .     A
C834   C904    1.336   .     S
C834   F926    1.362   .     S
C835   C972    1.336   1_455 S
C835   H996    1.086   1_455 S
C836   C839    1.460   .     S
C836   C1044   1.362   .     S
C836   S1098   1.787   .     S
C837   S892    1.785   .     S
C837   C838    1.431   .     S
C838   O888    1.281   .     A
C838   O876    1.268   .     A
C839   O889    1.275   .     A
C839   O883    1.265   .     A
C840   C845    1.395   .     A
C840   C225    1.393   1_556 S
C840   S272    1.766   1_556 S
C841   O866    1.277   .     A
C841   C844    1.452   .     S
C841   O868    1.278   .     A
C842   O869    1.288   .     A
C842   O867    1.284   .     A
C845   F856    1.358   .     S
C846   H859    1.076   .     S
C847   C848    1.420   .     A
C847   C225    1.413   1_556 S
C847   C228    1.425   1_556 S
C848   C852    1.409   .     A
C850   C851    1.398   .     A
C850   C228    1.420   1_556 S
C850   C222    1.405   1_556 S
C851   C852    1.384   .     A
C851   F853    1.358   .     S
C852   H860    1.079   .     S
F854   C222    1.360   1_556 S
F857   C972    1.362   1_455 S
H858   C904    1.086   .     S
H861   O872    0.991   .     S
H862   O875    0.990   .     S
H863   O879    0.991   .     S
H864   O882    0.991   .     S
O865   Zn897   1.928   .     S
O865   Zn894   1.965   .     S
O865   Zn895   1.949   .     S
O865   Zn896   1.942   .     S
O866   Zn895   1.932   .     S
O867   Zn897   1.943   .     S
O868   Zn896   1.935   .     S
O869   Zn894   1.924   .     S
O870   S890    1.502   .     D
O871   S890    1.504   .     D
O872   S890    1.682   .     S
O873   S891    1.502   .     D
O874   S891    1.503   .     D
O875   S1098   1.683   .     S
O876   Zn894   1.944   .     S
O877   S1099   1.504   .     S
O878   S1099   1.504   .     S
O879   S892    1.683   .     S
O880   S893    1.503   .     D
O881   S272    1.503   1_556 S
O882   S272    1.684   1_556 S
O883   Zn897   1.950   .     S
O884   Zn895   1.920   .     S
O885   Zn896   1.933   .     S
O886   Zn897   1.931   .     S
O887   Zn894   1.921   .     S
O888   Zn895   1.952   .     S
O889   Zn896   1.942   .     S
C898   O955    1.271   .     A
C898   O953    1.271   .     A
C898   C904    1.436   .     S
C899   F924    1.359   .     S
C899   C913    1.396   .     A
C899   C918    1.409   .     A
C900   C913    1.409   .     A
C900   C912    1.398   .     A
C900   S959    1.773   .     S
C901   O954    1.286   .     A
C901   O956    1.283   .     A
C901   C903    1.454   .     S
C902   C914    1.411   .     A
C902   C911    1.483   .     S
C902   C917    1.421   .     A
C903   C973    1.336   .     S
C903   F995    1.362   .     S
C905   C908    1.460   .     S
C905   C1113   1.362   .     S
C905   S1167   1.787   .     S
C906   S961    1.785   .     S
C906   C907    1.431   .     S
C907   O957    1.281   .     A
C907   O945    1.268   .     A
C908   O958    1.275   .     A
C908   O952    1.265   .     A
C909   C914    1.395   .     A
C909   C294    1.393   1_556 S
C909   S341    1.766   1_556 S
C910   O935    1.277   .     A
C910   C913    1.452   .     S
C910   O937    1.278   .     A
C911   O938    1.288   .     A
C911   O936    1.284   .     A
C914   F925    1.358   .     S
C915   H928    1.076   .     S
C916   C917    1.420   .     A
C916   C294    1.413   1_556 S
C916   C297    1.425   1_556 S
C917   C921    1.409   .     A
C919   C920    1.398   .     A
C919   C297    1.420   1_556 S
C919   C291    1.405   1_556 S
C920   C921    1.384   .     A
C920   F922    1.358   .     S
C921   H929    1.079   .     S
F923   C291    1.360   1_556 S
H927   C973    1.086   .     S
H930   O941    0.991   .     S
H931   O944    0.990   .     S
H932   O948    0.991   .     S
H933   O951    0.991   .     S
O934   Zn966   1.928   .     S
O934   Zn963   1.965   .     S
O934   Zn964   1.949   .     S
O934   Zn965   1.942   .     S
O935   Zn964   1.932   .     S
O936   Zn966   1.943   .     S
O937   Zn965   1.935   .     S
O938   Zn963   1.924   .     S
O939   S959    1.502   .     D
O940   S959    1.504   .     D
O941   S959    1.682   .     S
O942   S960    1.502   .     D
O943   S960    1.503   .     D
O944   S1167   1.683   .     S
O945   Zn963   1.944   .     S
O946   S1168   1.504   .     S
O947   S1168   1.504   .     S
O948   S961    1.683   .     S
O949   S962    1.503   .     D
O950   S341    1.503   1_556 S
O951   S341    1.684   1_556 S
O952   Zn966   1.950   .     S
O953   Zn964   1.920   .     S
O954   Zn965   1.933   .     S
O955   Zn966   1.931   .     S
O956   Zn963   1.921   .     S
O957   Zn964   1.952   .     S
O958   Zn965   1.942   .     S
C967   O1024   1.271   .     A
C967   O1022   1.271   .     A
C967   C973    1.436   .     S
C968   F993    1.359   .     S
C968   C982    1.396   .     A
C968   C987    1.409   .     A
C969   C982    1.409   .     A
C969   C981    1.398   .     A
C969   S1028   1.773   .     S
C970   O1023   1.286   .     A
C970   O1025   1.283   .     A
C970   C972    1.454   .     S
C971   C983    1.411   .     A
C971   C980    1.483   .     S
C971   C986    1.421   .     A
C972   C835    1.336   1_655 S
C972   F857    1.362   1_655 S
C974   C977    1.460   .     S
C974   C1182   1.362   .     S
C974   S1236   1.787   .     S
C975   S1030   1.785   .     S
C975   C976    1.431   .     S
C976   O1026   1.281   .     A
C976   O1014   1.268   .     A
C977   O1027   1.275   .     A
C977   O1021   1.265   .     A
C978   C983    1.395   .     A
C978   C363    1.393   1_556 S
C978   S410    1.766   1_556 S
C979   O1004   1.277   .     A
C979   C982    1.452   .     S
C979   O1006   1.278   .     A
C980   O1007   1.288   .     A
C980   O1005   1.284   .     A
C983   F994    1.358   .     S
C984   H997    1.076   .     S
C985   C986    1.420   .     A
C985   C363    1.413   1_556 S
C985   C366    1.425   1_556 S
C986   C990    1.409   .     A
C988   C989    1.398   .     A
C988   C366    1.420   1_556 S
C988   C360    1.405   1_556 S
C989   C990    1.384   .     A
C989   F991    1.358   .     S
C990   H998    1.079   .     S
F992   C360    1.360   1_556 S
H996   C835    1.086   1_655 S
H999   O1010   0.991   .     S
H1000  O1013   0.990   .     S
H1001  O1017   0.991   .     S
H1002  O1020   0.991   .     S
O1003  Zn1035  1.928   .     S
O1003  Zn1032  1.965   .     S
O1003  Zn1033  1.949   .     S
O1003  Zn1034  1.942   .     S
O1004  Zn1033  1.932   .     S
O1005  Zn1035  1.943   .     S
O1006  Zn1034  1.935   .     S
O1007  Zn1032  1.924   .     S
O1008  S1028   1.502   .     D
O1009  S1028   1.504   .     D
O1010  S1028   1.682   .     S
O1011  S1029   1.502   .     D
O1012  S1029   1.503   .     D
O1013  S1236   1.683   .     S
O1014  Zn1032  1.944   .     S
O1015  S1237   1.504   .     S
O1016  S1237   1.504   .     S
O1017  S1030   1.683   .     S
O1018  S1031   1.503   .     D
O1019  S410    1.503   1_556 S
O1020  S410    1.684   1_556 S
O1021  Zn1035  1.950   .     S
O1022  Zn1033  1.920   .     S
O1023  Zn1034  1.933   .     S
O1024  Zn1035  1.931   .     S
O1025  Zn1032  1.921   .     S
O1026  Zn1033  1.952   .     S
O1027  Zn1034  1.942   .     S
C1036  O1093   1.271   .     A
C1036  O1091   1.271   .     A
C1036  C1042   1.436   .     S
C1037  F1062   1.359   .     S
C1037  C1051   1.396   .     A
C1037  C1056   1.409   .     A
C1038  C1051   1.409   .     A
C1038  C1050   1.398   .     A
C1038  S1097   1.773   .     S
C1039  O1092   1.286   .     A
C1039  O1094   1.283   .     A
C1039  C1041   1.454   .     S
C1040  C1052   1.411   .     A
C1040  C1049   1.483   .     S
C1040  C1055   1.421   .     A
C1041  C1111   1.336   .     S
C1041  F1133   1.362   .     S
C1042  C1179   1.336   1_455 S
C1042  H1203   1.086   1_455 S
C1043  C1046   1.460   .     S
C1043  C630    1.362   1_565 S
C1043  S684    1.787   1_565 S
C1044  S1099   1.785   .     S
C1044  C1045   1.431   .     S
C1045  O1095   1.281   .     A
C1045  O1083   1.268   .     A
C1046  O1096   1.275   .     A
C1046  O1090   1.265   .     A
C1047  C1052   1.395   .     A
C1047  C432    1.393   1_556 S
C1047  S479    1.766   1_556 S
C1048  O1073   1.277   .     A
C1048  C1051   1.452   .     S
C1048  O1075   1.278   .     A
C1049  O1076   1.288   .     A
C1049  O1074   1.284   .     A
C1052  F1063   1.358   .     S
C1053  H1066   1.076   .     S
C1054  C1055   1.420   .     A
C1054  C432    1.413   1_556 S
C1054  C435    1.425   1_556 S
C1055  C1059   1.409   .     A
C1057  C1058   1.398   .     A
C1057  C435    1.420   1_556 S
C1057  C429    1.405   1_556 S
C1058  C1059   1.384   .     A
C1058  F1060   1.358   .     S
C1059  H1067   1.079   .     S
F1061  C429    1.360   1_556 S
F1064  C1179   1.362   1_455 S
H1065  C1111   1.086   .     S
H1068  O1079   0.991   .     S
H1069  O1082   0.990   .     S
H1070  O1086   0.991   .     S
H1071  O1089   0.991   .     S
O1072  Zn1104  1.928   .     S
O1072  Zn1101  1.965   .     S
O1072  Zn1102  1.949   .     S
O1072  Zn1103  1.942   .     S
O1073  Zn1102  1.932   .     S
O1074  Zn1104  1.943   .     S
O1075  Zn1103  1.935   .     S
O1076  Zn1101  1.924   .     S
O1077  S1097   1.502   .     D
O1078  S1097   1.504   .     D
O1079  S1097   1.682   .     S
O1080  S1098   1.502   .     D
O1081  S1098   1.503   .     D
O1082  S684    1.683   1_565 S
O1083  Zn1101  1.944   .     S
O1084  S685    1.504   1_565 S
O1085  S685    1.504   1_565 S
O1086  S1099   1.683   .     S
O1087  S1100   1.503   .     D
O1088  S479    1.503   1_556 S
O1089  S479    1.684   1_556 S
O1090  Zn1104  1.950   .     S
O1091  Zn1102  1.920   .     S
O1092  Zn1103  1.933   .     S
O1093  Zn1104  1.931   .     S
O1094  Zn1101  1.921   .     S
O1095  Zn1102  1.952   .     S
O1096  Zn1103  1.942   .     S
C1105  O1162   1.271   .     A
C1105  O1160   1.271   .     A
C1105  C1111   1.436   .     S
C1106  F1131   1.359   .     S
C1106  C1120   1.396   .     A
C1106  C1125   1.409   .     A
C1107  C1120   1.409   .     A
C1107  C1119   1.398   .     A
C1107  S1166   1.773   .     S
C1108  O1161   1.286   .     A
C1108  O1163   1.283   .     A
C1108  C1110   1.454   .     S
C1109  C1121   1.411   .     A
C1109  C1118   1.483   .     S
C1109  C1124   1.421   .     A
C1110  C1180   1.336   .     S
C1110  F1202   1.362   .     S
C1112  C1115   1.460   .     S
C1112  C699    1.362   1_565 S
C1112  S753    1.787   1_565 S
C1113  S1168   1.785   .     S
C1113  C1114   1.431   .     S
C1114  O1164   1.281   .     A
C1114  O1152   1.268   .     A
C1115  O1165   1.275   .     A
C1115  O1159   1.265   .     A
C1116  C1121   1.395   .     A
C1116  C501    1.393   1_556 S
C1116  S548    1.766   1_556 S
C1117  O1142   1.277   .     A
C1117  C1120   1.452   .     S
C1117  O1144   1.278   .     A
C1118  O1145   1.288   .     A
C1118  O1143   1.284   .     A
C1121  F1132   1.358   .     S
C1122  H1135   1.076   .     S
C1123  C1124   1.420   .     A
C1123  C501    1.413   1_556 S
C1123  C504    1.425   1_556 S
C1124  C1128   1.409   .     A
C1126  C1127   1.398   .     A
C1126  C504    1.420   1_556 S
C1126  C498    1.405   1_556 S
C1127  C1128   1.384   .     A
C1127  F1129   1.358   .     S
C1128  H1136   1.079   .     S
F1130  C498    1.360   1_556 S
H1134  C1180   1.086   .     S
H1137  O1148   0.991   .     S
H1138  O1151   0.990   .     S
H1139  O1155   0.991   .     S
H1140  O1158   0.991   .     S
O1141  Zn1173  1.928   .     S
O1141  Zn1170  1.965   .     S
O1141  Zn1171  1.949   .     S
O1141  Zn1172  1.942   .     S
O1142  Zn1171  1.932   .     S
O1143  Zn1173  1.943   .     S
O1144  Zn1172  1.935   .     S
O1145  Zn1170  1.924   .     S
O1146  S1166   1.502   .     D
O1147  S1166   1.504   .     D
O1148  S1166   1.682   .     S
O1149  S1167   1.502   .     D
O1150  S1167   1.503   .     D
O1151  S753    1.683   1_565 S
O1152  Zn1170  1.944   .     S
O1153  S754    1.504   1_565 S
O1154  S754    1.504   1_565 S
O1155  S1168   1.683   .     S
O1156  S1169   1.503   .     D
O1157  S548    1.503   1_556 S
O1158  S548    1.684   1_556 S
O1159  Zn1173  1.950   .     S
O1160  Zn1171  1.920   .     S
O1161  Zn1172  1.933   .     S
O1162  Zn1173  1.931   .     S
O1163  Zn1170  1.921   .     S
O1164  Zn1171  1.952   .     S
O1165  Zn1172  1.942   .     S
C1174  O1231   1.271   .     A
C1174  O1229   1.271   .     A
C1174  C1180   1.436   .     S
C1175  F1200   1.359   .     S
C1175  C1189   1.396   .     A
C1175  C1194   1.409   .     A
C1176  C1189   1.409   .     A
C1176  C1188   1.398   .     A
C1176  S1235   1.773   .     S
C1177  O1230   1.286   .     A
C1177  O1232   1.283   .     A
C1177  C1179   1.454   .     S
C1178  C1190   1.411   .     A
C1178  C1187   1.483   .     S
C1178  C1193   1.421   .     A
C1179  C1042   1.336   1_655 S
C1179  F1064   1.362   1_655 S
C1181  C1184   1.460   .     S
C1181  C768    1.362   1_565 S
C1181  S822    1.787   1_565 S
C1182  S1237   1.785   .     S
C1182  C1183   1.431   .     S
C1183  O1233   1.281   .     A
C1183  O1221   1.268   .     A
C1184  O1234   1.275   .     A
C1184  O1228   1.265   .     A
C1185  C1190   1.395   .     A
C1185  C570    1.393   1_556 S
C1185  S617    1.766   1_556 S
C1186  O1211   1.277   .     A
C1186  C1189   1.452   .     S
C1186  O1213   1.278   .     A
C1187  O1214   1.288   .     A
C1187  O1212   1.284   .     A
C1190  F1201   1.358   .     S
C1191  H1204   1.076   .     S
C1192  C1193   1.420   .     A
C1192  C570    1.413   1_556 S
C1192  C573    1.425   1_556 S
C1193  C1197   1.409   .     A
C1195  C1196   1.398   .     A
C1195  C573    1.420   1_556 S
C1195  C567    1.405   1_556 S
C1196  C1197   1.384   .     A
C1196  F1198   1.358   .     S
C1197  H1205   1.079   .     S
F1199  C567    1.360   1_556 S
H1203  C1042   1.086   1_655 S
H1206  O1217   0.991   .     S
H1207  O1220   0.990   .     S
H1208  O1224   0.991   .     S
H1209  O1227   0.991   .     S
O1210  Zn1242  1.928   .     S
O1210  Zn1239  1.965   .     S
O1210  Zn1240  1.949   .     S
O1210  Zn1241  1.942   .     S
O1211  Zn1240  1.932   .     S
O1212  Zn1242  1.943   .     S
O1213  Zn1241  1.935   .     S
O1214  Zn1239  1.924   .     S
O1215  S1235   1.502   .     D
O1216  S1235   1.504   .     D
O1217  S1235   1.682   .     S
O1218  S1236   1.502   .     D
O1219  S1236   1.503   .     D
O1220  S822    1.683   1_565 S
O1221  Zn1239  1.944   .     S
O1222  S823    1.504   1_565 S
O1223  S823    1.504   1_565 S
O1224  S1237   1.683   .     S
O1225  S1238   1.503   .     D
O1226  S617    1.503   1_556 S
O1227  S617    1.684   1_556 S
O1228  Zn1242  1.950   .     S
O1229  Zn1240  1.920   .     S
O1230  Zn1241  1.933   .     S
O1231  Zn1242  1.931   .     S
O1232  Zn1239  1.921   .     S
O1233  Zn1240  1.952   .     S
O1234  Zn1241  1.942   .     S
