data_str_m1_o1_o2_pcu_sym.37
_audit_creation_date              2020-01-03
_audit_creation_method            'Materials Studio'
_symmetry_space_group_name_H-M    'P1'
_symmetry_Int_Tables_number       1
_symmetry_cell_setting            triclinic
loop_
_symmetry_equiv_pos_as_xyz
  x,y,z
_cell_length_a                    36.5004
_cell_length_b                    36.5829
_cell_length_c                    34.5454
_cell_angle_alpha                 89.9995
_cell_angle_beta                  89.9544
_cell_angle_gamma                 89.9958
loop_
_atom_site_label
_atom_site_type_symbol
_atom_site_fract_x
_atom_site_fract_y
_atom_site_fract_z
_atom_site_U_iso_or_equiv
_atom_site_adp_type
_atom_site_occupancy
C1     C     0.22103   0.01469   0.04093   0.00000  Uiso   1.00
C2     C     0.02945   0.26348   0.45912   0.00000  Uiso   1.00
C3     C     0.34722   0.40087   0.74962   0.00000  Uiso   1.00
C4     C     0.40202   0.15192   0.25018   0.00000  Uiso   1.00
C5     C     0.09893   0.34751   0.74944   0.00000  Uiso   1.00
C6     C     0.34803   0.40177   0.24988   0.00000  Uiso   1.00
C7     C     0.15185   0.09803   0.75005   0.00000  Uiso   1.00
C8     C     0.09812   0.15196   0.74997   0.00000  Uiso   1.00
C9     C     0.40154   0.34758   0.24987   0.00000  Uiso   1.00
C10    C     0.15181   0.40220   0.75057   0.00000  Uiso   1.00
C11    C     0.34800   0.09829   0.25040   0.00000  Uiso   1.00
C12    C     0.40182   0.34790   0.75053   0.00000  Uiso   1.00
C13    C     0.23817   0.46997   0.54069   0.00000  Uiso   1.00
C14    C     0.09840   0.15206   0.24963   0.00000  Uiso   1.00
C15    C     0.34809   0.09816   0.75009   0.00000  Uiso   1.00
C16    C     0.15180   0.40214   0.24999   0.00000  Uiso   1.00
C17    C     0.24993   0.49911   0.10218   0.00000  Uiso   1.00
C18    C     0.25004   0.49926   0.89781   0.00000  Uiso   1.00
C19    C     0.00016   0.25000   0.10216   0.00000  Uiso   1.00
C20    C     0.00013   0.24993   0.89774   0.00000  Uiso   1.00
C21    C     0.49994   0.24892   0.60223   0.00000  Uiso   1.00
C22    C     0.00009   0.24888   0.39784   0.00000  Uiso   1.00
C23    C     0.25139   0.49991   0.60205   0.00000  Uiso   1.00
C24    C     0.23254   0.02679   0.45904   0.00000  Uiso   1.00
C25    C     0.25101   0.00001   0.39764   0.00000  Uiso   1.00
C26    C     0.19909   0.06714   0.01377   0.00000  Uiso   1.00
C27    C     0.16387   0.08553   0.00063   0.00000  Uiso   1.00
C28    C     0.30088   0.06718   0.98641   0.00000  Uiso   1.00
C29    C     0.33622   0.08571   0.99898   0.00000  Uiso   1.00
C30    C     0.42781   0.19722   0.02391   0.00000  Uiso   1.00
C31    C     0.40980   0.18016   0.98857   0.00000  Uiso   1.00
C32    C     0.42529   0.29919   0.97605   0.00000  Uiso   1.00
C33    C     0.40640   0.31564   0.01124   0.00000  Uiso   1.00
C34    C     0.30065   0.42346   0.02584   0.00000  Uiso   1.00
C35    C     0.02770   0.22887   0.54180   0.00000  Uiso   1.00
C36    C     0.31898   0.40411   0.99201   0.00000  Uiso   1.00
C37    C     0.19929   0.42359   0.97414   0.00000  Uiso   1.00
C38    C     0.18060   0.40425   0.00776   0.00000  Uiso   1.00
C39    C     0.07307   0.30619   0.02759   0.00000  Uiso   1.00
C40    C     0.09284   0.32017   0.99174   0.00000  Uiso   1.00
C41    C     0.07535   0.20267   0.97814   0.00000  Uiso   1.00
C42    C     0.09465   0.17708   0.00619   0.00000  Uiso   1.00
C43    C     0.45056   0.31743   0.51325   0.00000  Uiso   1.00
C44    C     0.41591   0.33640   0.49935   0.00000  Uiso   1.00
C45    C     0.05268   0.31550   0.48602   0.00000  Uiso   1.00
C46    C     0.47167   0.22993   0.45836   0.00000  Uiso   1.00
C47    C     0.08857   0.33324   0.49811   0.00000  Uiso   1.00
C48    C     0.18527   0.44158   0.52192   0.00000  Uiso   1.00
C49    C     0.16972   0.42222   0.48659   0.00000  Uiso   1.00
C50    C     0.17506   0.04542   0.47708   0.00000  Uiso   1.00
C51    C     0.15605   0.05907   0.51352   0.00000  Uiso   1.00
C52    C     0.04907   0.17202   0.52608   0.00000  Uiso   1.00
C53    C     0.06685   0.15229   0.49217   0.00000  Uiso   1.00
C54    C     0.44789   0.17406   0.47402   0.00000  Uiso   1.00
C55    C     0.42858   0.15500   0.50743   0.00000  Uiso   1.00
C56    C     0.32231   0.05829   0.52696   0.00000  Uiso   1.00
C57    C     0.26833   0.02943   0.54139   0.00000  Uiso   1.00
C58    C     0.34066   0.07678   0.49261   0.00000  Uiso   1.00
C59    C     0.33111   0.45684   0.47452   0.00000  Uiso   1.00
C60    C     0.35230   0.43641   0.50563   0.00000  Uiso   1.00
C61    C     0.17257   0.38531   0.18157   0.00000  Uiso   1.00
C62    C     0.15743   0.41161   0.15100   0.00000  Uiso   1.00
C63    C     0.32205   0.11974   0.81480   0.00000  Uiso   1.00
C64    C     0.28652   0.13948   0.80442   0.00000  Uiso   1.00
C65    C     0.11966   0.17608   0.18363   0.00000  Uiso   1.00
C66    C     0.15088   0.20387   0.18393   0.00000  Uiso   1.00
C67    C     0.38356   0.32595   0.81804   0.00000  Uiso   1.00
C68    C     0.27307   0.47376   0.45794   0.00000  Uiso   1.00
C69    C     0.36333   0.29011   0.81053   0.00000  Uiso   1.00
C70    C     0.35839   0.08417   0.32223   0.00000  Uiso   1.00
C71    C     0.36700   0.04333   0.32026   0.00000  Uiso   1.00
C72    C     0.17355   0.38409   0.81820   0.00000  Uiso   1.00
C73    C     0.20968   0.36419   0.81089   0.00000  Uiso   1.00
C74    C     0.42356   0.36531   0.31759   0.00000  Uiso   1.00
C75    C     0.40541   0.34146   0.34848   0.00000  Uiso   1.00
C76    C     0.12015   0.17812   0.81440   0.00000  Uiso   1.00
C77    C     0.13981   0.21355   0.80363   0.00000  Uiso   1.00
C78    C     0.17799   0.12016   0.81449   0.00000  Uiso   1.00
C79    C     0.22014   0.01412   0.08150   0.00000  Uiso   1.00
C80    C     0.16362   0.09704   0.84814   0.00000  Uiso   1.00
C81    C     0.37080   0.42715   0.31446   0.00000  Uiso   1.00
C82    C     0.39824   0.45759   0.30602   0.00000  Uiso   1.00
C83    C     0.11367   0.32826   0.81892   0.00000  Uiso   1.00
C84    C     0.08932   0.34661   0.84931   0.00000  Uiso   1.00
C85    C     0.42302   0.13527   0.31889   0.00000  Uiso   1.00
C86    C     0.44900   0.10279   0.32350   0.00000  Uiso   1.00
C87    C     0.32815   0.38627   0.81919   0.00000  Uiso   1.00
C88    C     0.34696   0.41028   0.84947   0.00000  Uiso   1.00
C89    C     0.17602   0.11595   0.18331   0.00000  Uiso   1.00
C90    C     0.27978   0.01439   0.91848   0.00000  Uiso   1.00
C91    C     0.21587   0.12538   0.19333   0.00000  Uiso   1.00
C92    C     0.37994   0.17764   0.81501   0.00000  Uiso   1.00
C93    C     0.40333   0.16321   0.84842   0.00000  Uiso   1.00
C94    C     0.11060   0.33224   0.17896   0.00000  Uiso   1.00
C95    C     0.12571   0.29355   0.18161   0.00000  Uiso   1.00
C96    C     0.42660   0.13169   0.68443   0.00000  Uiso   1.00
C97    C     0.41075   0.15506   0.65176   0.00000  Uiso   1.00
C98    C     0.07710   0.36497   0.31845   0.00000  Uiso   1.00
C99    C     0.04029   0.38382   0.31175   0.00000  Uiso   1.00
C100   C     0.35473   0.40912   0.67612   0.00000  Uiso   1.00
C101   C     0.48493   0.22022   0.08172   0.00000  Uiso   1.00
C102   C     0.36899   0.44783   0.66994   0.00000  Uiso   1.00
C103   C     0.13040   0.07300   0.31523   0.00000  Uiso   1.00
C104   C     0.11031   0.03762   0.30518   0.00000  Uiso   1.00
C105   C     0.08957   0.35610   0.67634   0.00000  Uiso   1.00
C106   C     0.05111   0.37138   0.67095   0.00000  Uiso   1.00
C107   C     0.38469   0.17303   0.18199   0.00000  Uiso   1.00
C108   C     0.36462   0.20908   0.18897   0.00000  Uiso   1.00
C109   C     0.12955   0.07189   0.68569   0.00000  Uiso   1.00
C110   C     0.15276   0.08605   0.65200   0.00000  Uiso   1.00
C111   C     0.32318   0.38143   0.18423   0.00000  Uiso   1.00
C112   C     0.27899   0.01480   0.95905   0.00000  Uiso   1.00
C113   C     0.48342   0.27888   0.91824   0.00000  Uiso   1.00
C114   C     0.28722   0.36207   0.19379   0.00000  Uiso   1.00
C115   C     0.38124   0.32366   0.18382   0.00000  Uiso   1.00
C116   C     0.40498   0.33902   0.15113   0.00000  Uiso   1.00
C117   C     0.07176   0.12986   0.68566   0.00000  Uiso   1.00
C118   C     0.03626   0.11023   0.69646   0.00000  Uiso   1.00
C119   C     0.32867   0.11366   0.18111   0.00000  Uiso   1.00
C120   C     0.34702   0.08927   0.15079   0.00000  Uiso   1.00
C121   C     0.13057   0.42735   0.68541   0.00000  Uiso   1.00
C122   C     0.11200   0.46259   0.69896   0.00000  Uiso   1.00
C123   C     0.07307   0.13130   0.31508   0.00000  Uiso   1.00
C124   C     0.27935   0.48263   0.08215   0.00000  Uiso   1.00
C125   C     0.08807   0.15473   0.34815   0.00000  Uiso   1.00
C126   C     0.42728   0.37055   0.68617   0.00000  Uiso   1.00
C127   C     0.45956   0.39347   0.70028   0.00000  Uiso   1.00
C128   C     0.13483   0.42289   0.31838   0.00000  Uiso   1.00
C129   C     0.15971   0.40602   0.34925   0.00000  Uiso   1.00
C130   C     0.37125   0.07180   0.68615   0.00000  Uiso   1.00
C131   C     0.39535   0.03911   0.69633   0.00000  Uiso   1.00
C132   C     0.16013   0.00920   0.09955   0.00000  Uiso   1.00
C133   C     0.13302   0.02213   0.13007   0.00000  Uiso   1.00
C134   C     0.33950   0.01038   0.89931   0.00000  Uiso   1.00
C135   C     0.22063   0.48280   0.91786   0.00000  Uiso   1.00
C136   C     0.36714   0.02599   0.87078   0.00000  Uiso   1.00
C137   C     0.49099   0.16068   0.10004   0.00000  Uiso   1.00
C138   C     0.47527   0.13139   0.12653   0.00000  Uiso   1.00
C139   C     0.48712   0.33884   0.90072   0.00000  Uiso   1.00
C140   C     0.47194   0.36700   0.87260   0.00000  Uiso   1.00
C141   C     0.33929   0.48834   0.09959   0.00000  Uiso   1.00
C142   C     0.36783   0.47458   0.12816   0.00000  Uiso   1.00
C143   C     0.16084   0.48922   0.90024   0.00000  Uiso   1.00
C144   C     0.13180   0.47511   0.87245   0.00000  Uiso   1.00
C145   C     0.00614   0.33920   0.09876   0.00000  Uiso   1.00
C146   C     0.01554   0.27979   0.08179   0.00000  Uiso   1.00
C147   C     0.01768   0.36851   0.12749   0.00000  Uiso   1.00
C148   C     0.01313   0.16117   0.89976   0.00000  Uiso   1.00
C149   C     0.02922   0.13275   0.87248   0.00000  Uiso   1.00
C150   C     0.41082   0.26060   0.60089   0.00000  Uiso   1.00
C151   C     0.38277   0.27726   0.62828   0.00000  Uiso   1.00
C152   C     0.08977   0.25679   0.39945   0.00000  Uiso   1.00
C153   C     0.11785   0.27106   0.37062   0.00000  Uiso   1.00
C154   C     0.25255   0.41087   0.60026   0.00000  Uiso   1.00
C155   C     0.24088   0.38049   0.62769   0.00000  Uiso   1.00
C156   C     0.23308   0.08807   0.40045   0.00000  Uiso   1.00
C157   C     0.01701   0.22093   0.91795   0.00000  Uiso   1.00
C158   C     0.21419   0.11587   0.37451   0.00000  Uiso   1.00
C159   C     0.08892   0.23644   0.60028   0.00000  Uiso   1.00
C160   C     0.11795   0.22034   0.62686   0.00000  Uiso   1.00
C161   C     0.41070   0.24098   0.40047   0.00000  Uiso   1.00
C162   C     0.38155   0.22824   0.37207   0.00000  Uiso   1.00
C163   C     0.25221   0.08940   0.59891   0.00000  Uiso   1.00
C164   C     0.26171   0.11904   0.62810   0.00000  Uiso   1.00
C165   C     0.26891   0.41216   0.39975   0.00000  Uiso   1.00
C166   C     0.28678   0.38396   0.37347   0.00000  Uiso   1.00
C167   C     0.47043   0.26437   0.58147   0.00000  Uiso   1.00
C168   C     0.03026   0.26308   0.41856   0.00000  Uiso   1.00
C169   C     0.23924   0.46891   0.58127   0.00000  Uiso   1.00
C170   C     0.23326   0.02812   0.41840   0.00000  Uiso   1.00
C171   C     0.02905   0.23182   0.58229   0.00000  Uiso   1.00
C172   C     0.48333   0.22137   0.04112   0.00000  Uiso   1.00
C173   C     0.47034   0.23300   0.41788   0.00000  Uiso   1.00
C174   C     0.26510   0.03064   0.58190   0.00000  Uiso   1.00
C175   C     0.27001   0.47213   0.41747   0.00000  Uiso   1.00
C176   C     0.24976   0.49713   0.02120   0.00000  Uiso   1.00
C177   C     0.25033   0.49714   0.97878   0.00000  Uiso   1.00
C178   C     0.00085   0.24981   0.02115   0.00000  Uiso   1.00
C179   C     0.00074   0.24992   0.97871   0.00000  Uiso   1.00
C180   C     0.49973   0.24661   0.52126   0.00000  Uiso   1.00
C181   C     0.00037   0.24652   0.47884   0.00000  Uiso   1.00
C182   C     0.25350   0.49979   0.52099   0.00000  Uiso   1.00
C183   C     0.48186   0.27755   0.95885   0.00000  Uiso   1.00
C184   C     0.25329   0.00028   0.47854   0.00000  Uiso   1.00
C185   C     0.25010  -0.00000   0.35522   0.00000  Uiso   1.00
C186   C     0.25021   0.49999   0.64467   0.00000  Uiso   1.00
C187   C     0.00000   0.24992   0.35531   0.00000  Uiso   1.00
C188   C    -0.00000   0.24994   0.64471   0.00000  Uiso   1.00
C189   C     0.00000   0.24999   0.85525   0.00000  Uiso   1.00
C190   C     0.49996   0.25001   0.14471   0.00000  Uiso   1.00
C191   C     0.25000   0.00002   0.85530   0.00000  Uiso   1.00
C192   C     0.25000   0.49996   0.14470   0.00000  Uiso   1.00
C193   C     0.17979   0.06968   0.25035   0.00000  Uiso   1.00
C194   C     0.27805   0.47982   0.04164   0.00000  Uiso   1.00
C195   C     0.32011   0.43006   0.74957   0.00000  Uiso   1.00
C196   C     0.42995   0.18012   0.24987   0.00000  Uiso   1.00
C197   C     0.06986   0.32023   0.74940   0.00000  Uiso   1.00
C198   C     0.32003   0.43003   0.24999   0.00000  Uiso   1.00
C199   C     0.18000   0.06995   0.75001   0.00000  Uiso   1.00
C200   C     0.06992   0.32008   0.25001   0.00000  Uiso   1.00
C201   C     0.42991   0.18018   0.75016   0.00000  Uiso   1.00
C202   C     0.18015   0.42995   0.75033   0.00000  Uiso   1.00
C203   C     0.32006   0.06996   0.25018   0.00000  Uiso   1.00
C204   C     0.42992   0.31985   0.75025   0.00000  Uiso   1.00
C205   C     0.22199   0.47989   0.95834   0.00000  Uiso   1.00
C206   C     0.07026   0.18024   0.24967   0.00000  Uiso   1.00
C207   C     0.32001   0.06997   0.75001   0.00000  Uiso   1.00
C208   C     0.18002   0.43006   0.24999   0.00000  Uiso   1.00
C209   C     0.07000   0.18004   0.74999   0.00000  Uiso   1.00
C210   C     0.42982   0.31973   0.24977   0.00000  Uiso   1.00
C211   C     0.14657   0.38100   0.21611   0.00000  Uiso   1.00
C212   C     0.35009   0.12250   0.78193   0.00000  Uiso   1.00
C213   C     0.12257   0.14920   0.21750   0.00000  Uiso   1.00
C214   C     0.37945   0.35222   0.78375   0.00000  Uiso   1.00
C215   C     0.36838   0.10456   0.28481   0.00000  Uiso   1.00
C216   C     0.01803   0.27839   0.04120   0.00000  Uiso   1.00
C217   C     0.14743   0.37984   0.78376   0.00000  Uiso   1.00
C218   C     0.39834   0.37066   0.28255   0.00000  Uiso   1.00
C219   C     0.12265   0.14998   0.78166   0.00000  Uiso   1.00
C220   C     0.15000   0.12265   0.78164   0.00000  Uiso   1.00
C221   C     0.37171   0.39862   0.28218   0.00000  Uiso   1.00
C222   C     0.11958   0.35300   0.78372   0.00000  Uiso   1.00
C223   C     0.39705   0.13062   0.28413   0.00000  Uiso   1.00
C224   C     0.35273   0.38021   0.78387   0.00000  Uiso   1.00
C225   C     0.14967   0.12147   0.21763   0.00000  Uiso   1.00
C226   C     0.37738   0.14990   0.78195   0.00000  Uiso   1.00
C227   C     0.01917   0.22222   0.95848   0.00000  Uiso   1.00
C228   C     0.11850   0.35447   0.21564   0.00000  Uiso   1.00
C229   C     0.39957   0.12807   0.71817   0.00000  Uiso   1.00
C230   C     0.10274   0.36998   0.28365   0.00000  Uiso   1.00
C231   C     0.36682   0.39319   0.71504   0.00000  Uiso   1.00
C232   C     0.12789   0.10074   0.28209   0.00000  Uiso   1.00
C233   C     0.10619   0.36762   0.71508   0.00000  Uiso   1.00
C234   C     0.38027   0.14705   0.21658   0.00000  Uiso   1.00
C235   C     0.12719   0.09992   0.71847   0.00000  Uiso   1.00
C236   C     0.35063   0.37804   0.21757   0.00000  Uiso   1.00
C237   C     0.37797   0.35068   0.21746   0.00000  Uiso   1.00
C238   C     0.47133   0.26477   0.54091   0.00000  Uiso   1.00
C239   C     0.09997   0.12737   0.71837   0.00000  Uiso   1.00
C240   C     0.35336   0.11936   0.21644   0.00000  Uiso   1.00
C241   C     0.12990   0.39796   0.71716   0.00000  Uiso   1.00
C242   C     0.10065   0.12814   0.28183   0.00000  Uiso   1.00
C243   C     0.39715   0.36954   0.71704   0.00000  Uiso   1.00
C244   C     0.12996   0.39743   0.28357   0.00000  Uiso   1.00
C245   C     0.37253   0.10047   0.71831   0.00000  Uiso   1.00
C246   C     0.09778   0.34851   0.24987   0.00000  Uiso   1.00
C247   C     0.40175   0.15219   0.75011   0.00000  Uiso   1.00
C248   C     0.15193   0.09791   0.25006   0.00000  Uiso   1.00
H249   H     0.21961   0.07009   0.99021   0.00000  Uiso   1.00
H250   H     0.34694   0.07250   0.02563   0.00000  Uiso   1.00
H251   H     0.37353   0.33753   0.84560   0.00000  Uiso   1.00
H252   H     0.39326   0.03859   0.30485   0.00000  Uiso   1.00
H253   H     0.34494   0.02796   0.30543   0.00000  Uiso   1.00
H254   H     0.36921   0.03219   0.35008   0.00000  Uiso   1.00
H255   H     0.37239   0.09503   0.34803   0.00000  Uiso   1.00
H256   H     0.32900   0.08822   0.32917   0.00000  Uiso   1.00
H257   H     0.20462   0.33461   0.80599   0.00000  Uiso   1.00
H258   H     0.22397   0.37571   0.78528   0.00000  Uiso   1.00
H259   H     0.22784   0.36730   0.83646   0.00000  Uiso   1.00
H260   H     0.17914   0.41321   0.82458   0.00000  Uiso   1.00
H261   H     0.41850   0.22622   0.02587   0.00000  Uiso   1.00
H262   H     0.16186   0.37397   0.84568   0.00000  Uiso   1.00
H263   H     0.42419   0.33842   0.37355   0.00000  Uiso   1.00
H264   H     0.39922   0.31389   0.33684   0.00000  Uiso   1.00
H265   H     0.37946   0.35388   0.35880   0.00000  Uiso   1.00
H266   H     0.45010   0.35272   0.30934   0.00000  Uiso   1.00
H267   H     0.43192   0.39164   0.33063   0.00000  Uiso   1.00
H268   H     0.16913   0.20808   0.79724   0.00000  Uiso   1.00
H269   H     0.12694   0.22641   0.77793   0.00000  Uiso   1.00
H270   H     0.13814   0.23310   0.82816   0.00000  Uiso   1.00
H271   H     0.09126   0.18427   0.82184   0.00000  Uiso   1.00
H272   H     0.41826   0.18231   0.05007   0.00000  Uiso   1.00
H273   H     0.13153   0.16788   0.84198   0.00000  Uiso   1.00
H274   H     0.13759   0.10823   0.85973   0.00000  Uiso   1.00
H275   H     0.15865   0.06851   0.83869   0.00000  Uiso   1.00
H276   H     0.18420   0.09663   0.87178   0.00000  Uiso   1.00
H277   H     0.20428   0.10824   0.80443   0.00000  Uiso   1.00
H278   H     0.18603   0.14766   0.82494   0.00000  Uiso   1.00
H279   H     0.42568   0.44645   0.29879   0.00000  Uiso   1.00
H280   H     0.38857   0.47423   0.28116   0.00000  Uiso   1.00
H281   H     0.40108   0.47521   0.33195   0.00000  Uiso   1.00
H282   H     0.34337   0.43955   0.31836   0.00000  Uiso   1.00
H283   H     0.41746   0.15085   0.98634   0.00000  Uiso   1.00
H284   H     0.37662   0.41490   0.34310   0.00000  Uiso   1.00
H285   H     0.10099   0.37308   0.85893   0.00000  Uiso   1.00
H286   H     0.06158   0.35178   0.83745   0.00000  Uiso   1.00
H287   H     0.08665   0.32841   0.87489   0.00000  Uiso   1.00
H288   H     0.10108   0.30174   0.81087   0.00000  Uiso   1.00
H289   H     0.14016   0.31995   0.83191   0.00000  Uiso   1.00
H290   H     0.43444   0.07831   0.33422   0.00000  Uiso   1.00
H291   H     0.46248   0.09640   0.29546   0.00000  Uiso   1.00
H292   H     0.47058   0.10965   0.34496   0.00000  Uiso   1.00
H293   H     0.44100   0.15943   0.31661   0.00000  Uiso   1.00
H294   H     0.37954   0.18231   0.99106   0.00000  Uiso   1.00
H295   H     0.40765   0.14066   0.34597   0.00000  Uiso   1.00
H296   H     0.37336   0.39828   0.85896   0.00000  Uiso   1.00
H297   H     0.35248   0.43787   0.83749   0.00000  Uiso   1.00
H298   H     0.32884   0.41317   0.87513   0.00000  Uiso   1.00
H299   H     0.30168   0.39917   0.81131   0.00000  Uiso   1.00
H300   H     0.31960   0.35990   0.83218   0.00000  Uiso   1.00
H301   H     0.23108   0.13245   0.16649   0.00000  Uiso   1.00
H302   H     0.21734   0.14897   0.21349   0.00000  Uiso   1.00
H303   H     0.23006   0.10172   0.20660   0.00000  Uiso   1.00
H304   H     0.17450   0.08731   0.17289   0.00000  Uiso   1.00
H305   H     0.41886   0.19463   0.96195   0.00000  Uiso   1.00
H306   H     0.16858   0.13208   0.15753   0.00000  Uiso   1.00
H307   H     0.39231   0.13710   0.85985   0.00000  Uiso   1.00
H308   H     0.43192   0.15848   0.83877   0.00000  Uiso   1.00
H309   H     0.40371   0.18359   0.87223   0.00000  Uiso   1.00
H310   H     0.39171   0.20399   0.80507   0.00000  Uiso   1.00
H311   H     0.35240   0.18549   0.82571   0.00000  Uiso   1.00
H312   H     0.15573   0.29419   0.18678   0.00000  Uiso   1.00
H313   H     0.11224   0.27794   0.20514   0.00000  Uiso   1.00
H314   H     0.12034   0.27927   0.15384   0.00000  Uiso   1.00
H315   H     0.08090   0.33137   0.17269   0.00000  Uiso   1.00
H316   H     0.41725   0.26981   0.97423   0.00000  Uiso   1.00
H317   H     0.12196   0.34469   0.15247   0.00000  Uiso   1.00
H318   H     0.38508   0.14301   0.64028   0.00000  Uiso   1.00
H319   H     0.40464   0.18307   0.66219   0.00000  Uiso   1.00
H320   H     0.43094   0.15701   0.62778   0.00000  Uiso   1.00
H321   H     0.45295   0.14394   0.69379   0.00000  Uiso   1.00
H322   H     0.43491   0.10466   0.67295   0.00000  Uiso   1.00
H323   H     0.04442   0.41350   0.30658   0.00000  Uiso   1.00
H324   H     0.02585   0.37180   0.28653   0.00000  Uiso   1.00
H325   H     0.02266   0.38036   0.33771   0.00000  Uiso   1.00
H326   H     0.07253   0.33571   0.32497   0.00000  Uiso   1.00
H327   H     0.41523   0.31355   0.94978   0.00000  Uiso   1.00
H328   H     0.08877   0.37548   0.34574   0.00000  Uiso   1.00
H329   H     0.35767   0.46648   0.69224   0.00000  Uiso   1.00
H330   H     0.36027   0.45785   0.64103   0.00000  Uiso   1.00
H331   H     0.39935   0.44835   0.67133   0.00000  Uiso   1.00
H332   H     0.36285   0.39149   0.65153   0.00000  Uiso   1.00
H333   H     0.32462   0.40877   0.67300   0.00000  Uiso   1.00
H334   H     0.08101   0.04327   0.29901   0.00000  Uiso   1.00
H335   H     0.12287   0.02432   0.27953   0.00000  Uiso   1.00
H336   H     0.11200   0.01836   0.32997   0.00000  Uiso   1.00
H337   H     0.15926   0.06660   0.32243   0.00000  Uiso   1.00
H338   H     0.41281   0.34526   0.01334   0.00000  Uiso   1.00
H339   H     0.11938   0.08365   0.34281   0.00000  Uiso   1.00
H340   H     0.04062   0.36370   0.64191   0.00000  Uiso   1.00
H341   H     0.05127   0.40164   0.67338   0.00000  Uiso   1.00
H342   H     0.03247   0.35982   0.69316   0.00000  Uiso   1.00
H343   H     0.10720   0.36381   0.65157   0.00000  Uiso   1.00
H344   H     0.08895   0.32608   0.67306   0.00000  Uiso   1.00
H345   H     0.33497   0.20399   0.19379   0.00000  Uiso   1.00
H346   H     0.37601   0.22351   0.21452   0.00000  Uiso   1.00
H347   H     0.36780   0.22706   0.16328   0.00000  Uiso   1.00
H348   H     0.41385   0.17863   0.17560   0.00000  Uiso   1.00
H349   H     0.37627   0.31220   0.00866   0.00000  Uiso   1.00
H350   H     0.37475   0.16127   0.15449   0.00000  Uiso   1.00
H351   H     0.15329   0.06535   0.62849   0.00000  Uiso   1.00
H352   H     0.18130   0.09115   0.66153   0.00000  Uiso   1.00
H353   H     0.14155   0.11192   0.64019   0.00000  Uiso   1.00
H354   H     0.14140   0.04565   0.69580   0.00000  Uiso   1.00
H355   H     0.10195   0.06396   0.67527   0.00000  Uiso   1.00
H356   H     0.29223   0.33266   0.19971   0.00000  Uiso   1.00
H357   H     0.27393   0.37463   0.21945   0.00000  Uiso   1.00
H358   H     0.26818   0.36439   0.16885   0.00000  Uiso   1.00
H359   H     0.31755   0.41042   0.17714   0.00000  Uiso   1.00
H360   H     0.20896   0.08152   0.04027   0.00000  Uiso   1.00
H361   H     0.41594   0.30170   0.03797   0.00000  Uiso   1.00
H362   H     0.33382   0.37036   0.15667   0.00000  Uiso   1.00
H363   H     0.39383   0.36520   0.14003   0.00000  Uiso   1.00
H364   H     0.43332   0.34396   0.16142   0.00000  Uiso   1.00
H365   H     0.40606   0.31909   0.12692   0.00000  Uiso   1.00
H366   H     0.39311   0.29720   0.19326   0.00000  Uiso   1.00
H367   H     0.35391   0.31580   0.17258   0.00000  Uiso   1.00
H368   H     0.04176   0.08104   0.70306   0.00000  Uiso   1.00
H369   H     0.02328   0.12321   0.72205   0.00000  Uiso   1.00
H370   H     0.01676   0.11170   0.67186   0.00000  Uiso   1.00
H371   H     0.06558   0.15868   0.67824   0.00000  Uiso   1.00
H372   H     0.27126   0.41509   0.02636   0.00000  Uiso   1.00
H373   H     0.08202   0.11849   0.65807   0.00000  Uiso   1.00
H374   H     0.37376   0.10063   0.14141   0.00000  Uiso   1.00
H375   H     0.35182   0.06149   0.16262   0.00000  Uiso   1.00
H376   H     0.32895   0.08689   0.12507   0.00000  Uiso   1.00
H377   H     0.30196   0.10128   0.18901   0.00000  Uiso   1.00
H378   H     0.32050   0.14013   0.16809   0.00000  Uiso   1.00
H379   H     0.08350   0.45681   0.70845   0.00000  Uiso   1.00
H380   H     0.12712   0.47548   0.72316   0.00000  Uiso   1.00
H381   H     0.11103   0.48245   0.67467   0.00000  Uiso   1.00
H382   H     0.15907   0.43318   0.67608   0.00000  Uiso   1.00
H383   H     0.31395   0.41418   0.05304   0.00000  Uiso   1.00
H384   H     0.11614   0.41948   0.65867   0.00000  Uiso   1.00
H385   H     0.11387   0.14320   0.35989   0.00000  Uiso   1.00
H386   H     0.09372   0.18292   0.33800   0.00000  Uiso   1.00
H387   H     0.06757   0.15609   0.37187   0.00000  Uiso   1.00
H388   H     0.04670   0.14324   0.30532   0.00000  Uiso   1.00
H389   H     0.06494   0.10401   0.32608   0.00000  Uiso   1.00
H390   H     0.44999   0.42069   0.71033   0.00000  Uiso   1.00
H391   H     0.47399   0.37961   0.72442   0.00000  Uiso   1.00
H392   H     0.47905   0.39776   0.67607   0.00000  Uiso   1.00
H393   H     0.43673   0.34266   0.67849   0.00000  Uiso   1.00
H394   H     0.34862   0.41093   0.99120   0.00000  Uiso   1.00
H395   H     0.41863   0.38259   0.65840   0.00000  Uiso   1.00
H396   H     0.14909   0.37925   0.35928   0.00000  Uiso   1.00
H397   H     0.18774   0.40177   0.33773   0.00000  Uiso   1.00
H398   H     0.16148   0.42471   0.37451   0.00000  Uiso   1.00
H399   H     0.14646   0.44971   0.30978   0.00000  Uiso   1.00
H400   H     0.10800   0.43043   0.33116   0.00000  Uiso   1.00
H401   H     0.42357   0.04800   0.70371   0.00000  Uiso   1.00
H402   H     0.38366   0.02412   0.72142   0.00000  Uiso   1.00
H403   H     0.39691   0.02041   0.67111   0.00000  Uiso   1.00
H404   H     0.34302   0.06207   0.68048   0.00000  Uiso   1.00
H405   H     0.31588   0.37406   0.99521   0.00000  Uiso   1.00
H406   H     0.37990   0.08306   0.65786   0.00000  Uiso   1.00
H407   H     0.16648   0.47990   0.10535   0.00000  Uiso   1.00
H408   H     0.14671   0.01149   0.07081   0.00000  Uiso   1.00
H409   H     0.12592   0.05128   0.12511   0.00000  Uiso   1.00
H410   H     0.10764   0.00545   0.12853   0.00000  Uiso   1.00
H411   H     0.14509   0.01912   0.15938   0.00000  Uiso   1.00
H412   H     0.33341   0.48169   0.89059   0.00000  Uiso   1.00
H413   H     0.35230   0.01027   0.92848   0.00000  Uiso   1.00
H414   H     0.37392   0.05464   0.87867   0.00000  Uiso   1.00
H415   H     0.39259   0.00937   0.87131   0.00000  Uiso   1.00
H416   H     0.30607   0.41279   0.96438   0.00000  Uiso   1.00
H417   H     0.35565   0.02546   0.84106   0.00000  Uiso   1.00
H418   H     0.01935   0.16705   0.10999   0.00000  Uiso   1.00
H419   H     0.49219   0.14941   0.07017   0.00000  Uiso   1.00
H420   H     0.44693   0.12442   0.11745   0.00000  Uiso   1.00
H421   H     0.49251   0.10641   0.12507   0.00000  Uiso   1.00
H422   H     0.47476   0.14139   0.15687   0.00000  Uiso   1.00
H423   H     0.01630   0.33360   0.89289   0.00000  Uiso   1.00
H424   H     0.48590   0.35060   0.93036   0.00000  Uiso   1.00
H425   H     0.44278   0.37283   0.87946   0.00000  Uiso   1.00
H426   H     0.48792   0.39274   0.87482   0.00000  Uiso   1.00
H427   H     0.22867   0.41516   0.97391   0.00000  Uiso   1.00
H428   H     0.47393   0.35658   0.84249   0.00000  Uiso   1.00
H429   H     0.33324   0.01746   0.10664   0.00000  Uiso   1.00
H430   H     0.35118   0.48677   0.07000   0.00000  Uiso   1.00
H431   H     0.37460   0.44556   0.12195   0.00000  Uiso   1.00
H432   H     0.39313   0.49128   0.12571   0.00000  Uiso   1.00
H433   H     0.35716   0.47679   0.15817   0.00000  Uiso   1.00
H434   H     0.16721   0.01808   0.89225   0.00000  Uiso   1.00
H435   H     0.14927   0.48860   0.93002   0.00000  Uiso   1.00
H436   H     0.12477   0.44633   0.87957   0.00000  Uiso   1.00
H437   H     0.10672   0.49215   0.87477   0.00000  Uiso   1.00
H438   H     0.18623   0.41435   0.94679   0.00000  Uiso   1.00
H439   H     0.14213   0.47643   0.84225   0.00000  Uiso   1.00
H440   H     0.47731   0.33130   0.10547   0.00000  Uiso   1.00
H441   H     0.00724   0.35114   0.06918   0.00000  Uiso   1.00
H442   H     0.04635   0.37712   0.12166   0.00000  Uiso   1.00
H443   H     0.49939   0.39263   0.12477   0.00000  Uiso   1.00
H444   H     0.01573   0.35778   0.15749   0.00000  Uiso   1.00
H445   H     0.48427   0.16648   0.89080   0.00000  Uiso   1.00
H446   H     0.01323   0.14961   0.92953   0.00000  Uiso   1.00
H447   H     0.05803   0.12674   0.88064   0.00000  Uiso   1.00
H448   H     0.01297   0.10714   0.87414   0.00000  Uiso   1.00
H449   H     0.15096   0.41110   0.00824   0.00000  Uiso   1.00
H450   H     0.02856   0.14305   0.84227   0.00000  Uiso   1.00
H451   H     0.41680   0.23225   0.61091   0.00000  Uiso   1.00
H452   H     0.39845   0.25937   0.57153   0.00000  Uiso   1.00
H453   H     0.37598   0.30552   0.61897   0.00000  Uiso   1.00
H454   H     0.35739   0.26053   0.62820   0.00000  Uiso   1.00
H455   H     0.39391   0.27805   0.65815   0.00000  Uiso   1.00
H456   H     0.08255   0.22826   0.39105   0.00000  Uiso   1.00
H457   H     0.10270   0.25643   0.42857   0.00000  Uiso   1.00
H458   H     0.12570   0.29954   0.37811   0.00000  Uiso   1.00
H459   H     0.14268   0.25354   0.37125   0.00000  Uiso   1.00
H460   H     0.18371   0.37420   0.00459   0.00000  Uiso   1.00
H461   H     0.10624   0.27061   0.34094   0.00000  Uiso   1.00
H462   H     0.27974   0.42127   0.61011   0.00000  Uiso   1.00
H463   H     0.25545   0.39910   0.57073   0.00000  Uiso   1.00
H464   H     0.21406   0.36910   0.61847   0.00000  Uiso   1.00
H465   H     0.26166   0.35832   0.62747   0.00000  Uiso   1.00
H466   H     0.23834   0.39131   0.65761   0.00000  Uiso   1.00
H467   H     0.26184   0.08471   0.39009   0.00000  Uiso   1.00
H468   H     0.23343   0.09915   0.43042   0.00000  Uiso   1.00
H469   H     0.18530   0.11967   0.38385   0.00000  Uiso   1.00
H470   H     0.22865   0.14252   0.37629   0.00000  Uiso   1.00
H471   H     0.14267   0.08320   0.02359   0.00000  Uiso   1.00
H472   H     0.19324   0.41292   0.03553   0.00000  Uiso   1.00
H473   H     0.21463   0.10631   0.34403   0.00000  Uiso   1.00
H474   H     0.08357   0.26514   0.60961   0.00000  Uiso   1.00
H475   H     0.10001   0.23661   0.57028   0.00000  Uiso   1.00
H476   H     0.12401   0.19170   0.61828   0.00000  Uiso   1.00
H477   H     0.14348   0.23673   0.62489   0.00000  Uiso   1.00
H478   H     0.10809   0.22066   0.65727   0.00000  Uiso   1.00
H479   H     0.41788   0.26981   0.39323   0.00000  Uiso   1.00
H480   H     0.39886   0.24005   0.43013   0.00000  Uiso   1.00
H481   H     0.37333   0.19970   0.37878   0.00000  Uiso   1.00
H482   H     0.35711   0.24621   0.37419   0.00000  Uiso   1.00
H483   H     0.08426   0.27859   0.03463   0.00000  Uiso   1.00
H484   H     0.39236   0.22944   0.34204   0.00000  Uiso   1.00
H485   H     0.22380   0.07982   0.60510   0.00000  Uiso   1.00
H486   H     0.25304   0.10163   0.56945   0.00000  Uiso   1.00
H487   H     0.28977   0.12956   0.62251   0.00000  Uiso   1.00
H488   H     0.24189   0.14194   0.62565   0.00000  Uiso   1.00
H489   H     0.26044   0.10782   0.65795   0.00000  Uiso   1.00
H490   H     0.23988   0.41566   0.39043   0.00000  Uiso   1.00
H491   H     0.26940   0.40138   0.42985   0.00000  Uiso   1.00
H492   H     0.31573   0.37963   0.38224   0.00000  Uiso   1.00
H493   H     0.27183   0.35761   0.37559   0.00000  Uiso   1.00
H494   H     0.07923   0.32501   0.05197   0.00000  Uiso   1.00
H495   H     0.28605   0.39351   0.34299   0.00000  Uiso   1.00
H496   H     0.08336   0.34823   0.98464   0.00000  Uiso   1.00
H497   H     0.12284   0.32083   0.99707   0.00000  Uiso   1.00
H498   H     0.08718   0.30188   0.96678   0.00000  Uiso   1.00
H499   H     0.08119   0.23128   0.98725   0.00000  Uiso   1.00
H500   H     0.08684   0.19809   0.94870   0.00000  Uiso   1.00
H501   H     0.09001   0.14821   0.99750   0.00000  Uiso   1.00
H502   H     0.12455   0.18268   0.00603   0.00000  Uiso   1.00
H503   H     0.16905   0.11492   0.99471   0.00000  Uiso   1.00
H504   H     0.08390   0.18130   0.03595   0.00000  Uiso   1.00
H505   H     0.47142   0.31965   0.48994   0.00000  Uiso   1.00
H506   H     0.46041   0.33193   0.53968   0.00000  Uiso   1.00
H507   H     0.39437   0.33480   0.52203   0.00000  Uiso   1.00
H508   H     0.42178   0.36560   0.49312   0.00000  Uiso   1.00
H509   H     0.40574   0.32310   0.47252   0.00000  Uiso   1.00
H510   H     0.03271   0.31907   0.51001   0.00000  Uiso   1.00
H511   H     0.04255   0.32992   0.45965   0.00000  Uiso   1.00
H512   H     0.10918   0.33028   0.47465   0.00000  Uiso   1.00
H513   H     0.08414   0.36277   0.50389   0.00000  Uiso   1.00
H514   H     0.15364   0.07234   0.97376   0.00000  Uiso   1.00
H515   H     0.09913   0.32002   0.52483   0.00000  Uiso   1.00
H516   H     0.17381   0.46985   0.52250   0.00000  Uiso   1.00
H517   H     0.17601   0.42681   0.54828   0.00000  Uiso   1.00
H518   H     0.17966   0.39354   0.48558   0.00000  Uiso   1.00
H519   H     0.13932   0.42212   0.48801   0.00000  Uiso   1.00
H520   H     0.17849   0.43660   0.45980   0.00000  Uiso   1.00
H521   H     0.16848   0.01579   0.47372   0.00000  Uiso   1.00
H522   H     0.16378   0.06051   0.45185   0.00000  Uiso   1.00
H523   H     0.16095   0.08883   0.51718   0.00000  Uiso   1.00
H524   H     0.12610   0.05417   0.51134   0.00000  Uiso   1.00
H525   H     0.28072   0.06996   0.01035   0.00000  Uiso   1.00
H526   H     0.16686   0.04434   0.53922   0.00000  Uiso   1.00
H527   H     0.01949   0.16432   0.52669   0.00000  Uiso   1.00
H528   H     0.06222   0.16241   0.55324   0.00000  Uiso   1.00
H529   H     0.09664   0.15842   0.49128   0.00000  Uiso   1.00
H530   H     0.06304   0.12232   0.49534   0.00000  Uiso   1.00
H531   H     0.05408   0.16132   0.46459   0.00000  Uiso   1.00
H532   H     0.47710   0.16508   0.47403   0.00000  Uiso   1.00
H533   H     0.43486   0.16514   0.44653   0.00000  Uiso   1.00
H534   H     0.39906   0.16235   0.50764   0.00000  Uiso   1.00
H535   H     0.43121   0.12491   0.50423   0.00000  Uiso   1.00
H536   H     0.29051   0.08162   0.96016   0.00000  Uiso   1.00
H537   H     0.44113   0.16341   0.53534   0.00000  Uiso   1.00
H538   H     0.33411   0.03026   0.52977   0.00000  Uiso   1.00
H539   H     0.32900   0.07413   0.55347   0.00000  Uiso   1.00
H540   H     0.33048   0.10526   0.48962   0.00000  Uiso   1.00
H541   H     0.37079   0.07742   0.49695   0.00000  Uiso   1.00
H542   H     0.33449   0.06145   0.46563   0.00000  Uiso   1.00
H543   H     0.33637   0.48663   0.47836   0.00000  Uiso   1.00
H544   H     0.34168   0.44817   0.44575   0.00000  Uiso   1.00
H545   H     0.34843   0.40648   0.50214   0.00000  Uiso   1.00
H546   H     0.38195   0.44282   0.50320   0.00000  Uiso   1.00
H547   H     0.35706   0.08352   0.97564   0.00000  Uiso   1.00
H548   H     0.34245   0.44477   0.53476   0.00000  Uiso   1.00
H549   H     0.12952   0.40377   0.14151   0.00000  Uiso   1.00
H550   H     0.15598   0.43983   0.16242   0.00000  Uiso   1.00
H551   H     0.17580   0.41161   0.12536   0.00000  Uiso   1.00
H552   H     0.19997   0.39519   0.19075   0.00000  Uiso   1.00
H553   H     0.17870   0.35840   0.16825   0.00000  Uiso   1.00
H554   H     0.29201   0.16873   0.79808   0.00000  Uiso   1.00
H555   H     0.27344   0.12672   0.77878   0.00000  Uiso   1.00
H556   H     0.26712   0.13781   0.82914   0.00000  Uiso   1.00
H557   H     0.31589   0.09087   0.82202   0.00000  Uiso   1.00
H558   H     0.33100   0.11506   0.00507   0.00000  Uiso   1.00
H559   H     0.33246   0.13088   0.84242   0.00000  Uiso   1.00
H560   H     0.14942   0.22075   0.21060   0.00000  Uiso   1.00
H561   H     0.14853   0.22177   0.15817   0.00000  Uiso   1.00
H562   H     0.17806   0.19070   0.18267   0.00000  Uiso   1.00
H563   H     0.11838   0.16132   0.15564   0.00000  Uiso   1.00
H564   H     0.09394   0.19206   0.18376   0.00000  Uiso   1.00
H565   H     0.33371   0.29541   0.80583   0.00000  Uiso   1.00
H566   H     0.37469   0.27601   0.78473   0.00000  Uiso   1.00
H567   H     0.36642   0.27175   0.83592   0.00000  Uiso   1.00
H568   H     0.41270   0.32007   0.82429   0.00000  Uiso   1.00
O569   O     0.25000  -0.00000   0.25000   0.00000  Uiso   1.00
O570   O     0.25000   0.46964   0.66317   0.00000  Uiso   1.00
O571   O     0.46964   0.25000   0.33683   0.00000  Uiso   1.00
O572   O     0.03036   0.25000   0.66317   0.00000  Uiso   1.00
O573   O     0.00000   0.21964   0.83683   0.00000  Uiso   1.00
O574   O     0.00000   0.28036   0.16317   0.00000  Uiso   1.00
O575   O     0.28036  -0.00000   0.83683   0.00000  Uiso   1.00
O576   O     0.21964  -0.00000   0.16317   0.00000  Uiso   1.00
O577   O     0.00000   0.28036   0.83683   0.00000  Uiso   1.00
O578   O     0.00000   0.21964   0.16317   0.00000  Uiso   1.00
O579   O     0.21964  -0.00000   0.83683   0.00000  Uiso   1.00
O580   O     0.25000  -0.00000   0.75000   0.00000  Uiso   1.00
O581   O     0.28036  -0.00000   0.16317   0.00000  Uiso   1.00
O582   O     0.20726   0.07307   0.27282   0.00000  Uiso   1.00
O583   O     0.29275   0.42693   0.72718   0.00000  Uiso   1.00
O584   O     0.42693   0.20725   0.27282   0.00000  Uiso   1.00
O585   O     0.07307   0.29274   0.72718   0.00000  Uiso   1.00
O586   O     0.29275   0.42693   0.27282   0.00000  Uiso   1.00
O587   O     0.20726   0.07307   0.72718   0.00000  Uiso   1.00
O588   O     0.07307   0.29274   0.27282   0.00000  Uiso   1.00
O589   O     0.42693   0.20725   0.72718   0.00000  Uiso   1.00
O590   O     0.20726   0.42693   0.72718   0.00000  Uiso   1.00
O591   O     0.00000   0.25000   0.25000   0.00000  Uiso   1.00
O592   O     0.29275   0.07307   0.27282   0.00000  Uiso   1.00
O593   O     0.42693   0.29274   0.72718   0.00000  Uiso   1.00
O594   O     0.07307   0.20725   0.27282   0.00000  Uiso   1.00
O595   O     0.29275   0.07307   0.72718   0.00000  Uiso   1.00
O596   O     0.20726   0.42693   0.27282   0.00000  Uiso   1.00
O597   O     0.07307   0.20725   0.72718   0.00000  Uiso   1.00
O598   O     0.42693   0.29274   0.27282   0.00000  Uiso   1.00
O599   O     0.45726   0.32307   0.77282   0.00000  Uiso   1.00
O600   O     0.04275   0.17693   0.22718   0.00000  Uiso   1.00
O601   O     0.17693   0.45725   0.77282   0.00000  Uiso   1.00
O602   O     0.00000   0.25000   0.75000   0.00000  Uiso   1.00
O603   O     0.32307   0.04274   0.22718   0.00000  Uiso   1.00
O604   O     0.04275   0.17693   0.77282   0.00000  Uiso   1.00
O605   O     0.45726   0.32307   0.22718   0.00000  Uiso   1.00
O606   O     0.32307   0.04274   0.77282   0.00000  Uiso   1.00
O607   O     0.17693   0.45725   0.22718   0.00000  Uiso   1.00
O608   O     0.45726   0.17693   0.22718   0.00000  Uiso   1.00
O609   O     0.04275   0.32307   0.77282   0.00000  Uiso   1.00
O610   O     0.17693   0.04274   0.22718   0.00000  Uiso   1.00
O611   O     0.32307   0.45725   0.77282   0.00000  Uiso   1.00
O612   O     0.04275   0.32307   0.22718   0.00000  Uiso   1.00
O613   O     0.25000   0.46964   0.33683   0.00000  Uiso   1.00
O614   O     0.45726   0.17693   0.77282   0.00000  Uiso   1.00
O615   O     0.32307   0.45725   0.22718   0.00000  Uiso   1.00
O616   O     0.17693   0.04274   0.77282   0.00000  Uiso   1.00
O617   O     0.19205   0.02979   0.02063   0.00000  Uiso   1.00
O618   O     0.30800   0.02988   0.97931   0.00000  Uiso   1.00
O619   O     0.46624   0.19385   0.02033   0.00000  Uiso   1.00
O620   O     0.46352   0.30420   0.97976   0.00000  Uiso   1.00
O621   O     0.30526   0.46159   0.02141   0.00000  Uiso   1.00
O622   O     0.19473   0.46172   0.97856   0.00000  Uiso   1.00
O623   O     0.03494   0.30605   0.02033   0.00000  Uiso   1.00
O624   O     0.25000   0.03036   0.66317   0.00000  Uiso   1.00
O625   O     0.03743   0.19514   0.97873   0.00000  Uiso   1.00
O626   O     0.44261   0.28035   0.52060   0.00000  Uiso   1.00
O627   O     0.05877   0.27794   0.47940   0.00000  Uiso   1.00
O628   O     0.22392   0.44099   0.51975   0.00000  Uiso   1.00
O629   O     0.21303   0.05235   0.48030   0.00000  Uiso   1.00
O630   O     0.05457   0.21003   0.52169   0.00000  Uiso   1.00
O631   O     0.44405   0.21226   0.47852   0.00000  Uiso   1.00
O632   O     0.28399   0.05808   0.52102   0.00000  Uiso   1.00
O633   O     0.29356   0.44813   0.47794   0.00000  Uiso   1.00
O634   O     0.19184   0.03137   0.10106   0.00000  Uiso   1.00
O635   O     0.03036   0.25000   0.33683   0.00000  Uiso   1.00
O636   O     0.30765   0.03235   0.89898   0.00000  Uiso   1.00
O637   O     0.46824   0.19188   0.10160   0.00000  Uiso   1.00
O638   O     0.46583   0.30665   0.89834   0.00000  Uiso   1.00
O639   O     0.30763   0.46629   0.10250   0.00000  Uiso   1.00
O640   O     0.19218   0.46669   0.89758   0.00000  Uiso   1.00
O641   O     0.03025   0.30910   0.10181   0.00000  Uiso   1.00
O642   O     0.03460   0.19326   0.89787   0.00000  Uiso   1.00
O643   O     0.44266   0.28258   0.60085   0.00000  Uiso   1.00
O644   O     0.05881   0.28000   0.39913   0.00000  Uiso   1.00
O645   O     0.22568   0.43869   0.60064   0.00000  Uiso   1.00
O646   O     0.46964   0.25000   0.66317   0.00000  Uiso   1.00
O647   O     0.21363   0.05471   0.39881   0.00000  Uiso   1.00
O648   O     0.05691   0.21485   0.60269   0.00000  Uiso   1.00
O649   O     0.44146   0.21769   0.39760   0.00000  Uiso   1.00
O650   O     0.27797   0.06071   0.60206   0.00000  Uiso   1.00
O651   O     0.28853   0.44535   0.39698   0.00000  Uiso   1.00
O652   O     0.25000   0.03036   0.33683   0.00000  Uiso   1.00
Zn653  Zn    0.20660  -0.00000   0.21760   0.00000  Uiso   1.00
Zn654  Zn    0.04340   0.25000   0.28240   0.00000  Uiso   1.00
Zn655  Zn    0.25000   0.45660   0.71760   0.00000  Uiso   1.00
Zn656  Zn    0.25000   0.04340   0.28240   0.00000  Uiso   1.00
Zn657  Zn    0.04340   0.25000   0.71760   0.00000  Uiso   1.00
Zn658  Zn    0.45660   0.25000   0.28240   0.00000  Uiso   1.00
Zn659  Zn    0.25000   0.04340   0.71760   0.00000  Uiso   1.00
Zn660  Zn    0.25000   0.45660   0.28240   0.00000  Uiso   1.00
Zn661  Zn    0.29340  -0.00000   0.78240   0.00000  Uiso   1.00
Zn662  Zn    0.00000   0.20660   0.21760   0.00000  Uiso   1.00
Zn663  Zn    0.00000   0.29340   0.78240   0.00000  Uiso   1.00
Zn664  Zn    0.29340  -0.00000   0.21760   0.00000  Uiso   1.00
Zn665  Zn    0.20660  -0.00000   0.78240   0.00000  Uiso   1.00
Zn666  Zn    0.00000   0.29340   0.21760   0.00000  Uiso   1.00
Zn667  Zn    0.00000   0.20660   0.78240   0.00000  Uiso   1.00
Zn668  Zn    0.45660   0.25000   0.71760   0.00000  Uiso   1.00
C669   C     0.72103   0.01469   0.04093   0.00000  Uiso   1.00
C670   C     0.52945   0.26348   0.45912   0.00000  Uiso   1.00
C671   C     0.84722   0.40087   0.74962   0.00000  Uiso   1.00
C672   C     0.90202   0.15192   0.25018   0.00000  Uiso   1.00
C673   C     0.59893   0.34751   0.74944   0.00000  Uiso   1.00
C674   C     0.84803   0.40177   0.24988   0.00000  Uiso   1.00
C675   C     0.65185   0.09803   0.75005   0.00000  Uiso   1.00
C676   C     0.59812   0.15196   0.74997   0.00000  Uiso   1.00
C677   C     0.90154   0.34758   0.24987   0.00000  Uiso   1.00
C678   C     0.65181   0.40220   0.75057   0.00000  Uiso   1.00
C679   C     0.84800   0.09829   0.25040   0.00000  Uiso   1.00
C680   C     0.90182   0.34790   0.75053   0.00000  Uiso   1.00
C681   C     0.73817   0.46997   0.54069   0.00000  Uiso   1.00
C682   C     0.59840   0.15206   0.24963   0.00000  Uiso   1.00
C683   C     0.84809   0.09816   0.75009   0.00000  Uiso   1.00
C684   C     0.65180   0.40214   0.24999   0.00000  Uiso   1.00
C685   C     0.74993   0.49911   0.10218   0.00000  Uiso   1.00
C686   C     0.75004   0.49926   0.89781   0.00000  Uiso   1.00
C687   C     0.50016   0.25000   0.10216   0.00000  Uiso   1.00
C688   C     0.50013   0.24993   0.89774   0.00000  Uiso   1.00
C689   C     0.99994   0.24892   0.60223   0.00000  Uiso   1.00
C690   C     0.50009   0.24888   0.39784   0.00000  Uiso   1.00
C691   C     0.75139   0.49991   0.60205   0.00000  Uiso   1.00
C692   C     0.73254   0.02679   0.45904   0.00000  Uiso   1.00
C693   C     0.75101   0.00001   0.39764   0.00000  Uiso   1.00
C694   C     0.69909   0.06714   0.01377   0.00000  Uiso   1.00
C695   C     0.66387   0.08553   0.00063   0.00000  Uiso   1.00
C696   C     0.80088   0.06718   0.98641   0.00000  Uiso   1.00
C697   C     0.83622   0.08571   0.99898   0.00000  Uiso   1.00
C698   C     0.92781   0.19722   0.02391   0.00000  Uiso   1.00
C699   C     0.90980   0.18016   0.98857   0.00000  Uiso   1.00
C700   C     0.92529   0.29919   0.97605   0.00000  Uiso   1.00
C701   C     0.90640   0.31564   0.01124   0.00000  Uiso   1.00
C702   C     0.80065   0.42346   0.02584   0.00000  Uiso   1.00
C703   C     0.52770   0.22887   0.54180   0.00000  Uiso   1.00
C704   C     0.81898   0.40411   0.99201   0.00000  Uiso   1.00
C705   C     0.69929   0.42359   0.97414   0.00000  Uiso   1.00
C706   C     0.68060   0.40425   0.00776   0.00000  Uiso   1.00
C707   C     0.57307   0.30619   0.02759   0.00000  Uiso   1.00
C708   C     0.59284   0.32017   0.99174   0.00000  Uiso   1.00
C709   C     0.57535   0.20267   0.97814   0.00000  Uiso   1.00
C710   C     0.59465   0.17708   0.00619   0.00000  Uiso   1.00
C711   C     0.95056   0.31743   0.51325   0.00000  Uiso   1.00
C712   C     0.91591   0.33640   0.49935   0.00000  Uiso   1.00
C713   C     0.55268   0.31550   0.48602   0.00000  Uiso   1.00
C714   C     0.97167   0.22993   0.45836   0.00000  Uiso   1.00
C715   C     0.58857   0.33324   0.49811   0.00000  Uiso   1.00
C716   C     0.68527   0.44158   0.52192   0.00000  Uiso   1.00
C717   C     0.66972   0.42222   0.48659   0.00000  Uiso   1.00
C718   C     0.67506   0.04542   0.47708   0.00000  Uiso   1.00
C719   C     0.65605   0.05907   0.51352   0.00000  Uiso   1.00
C720   C     0.54907   0.17202   0.52608   0.00000  Uiso   1.00
C721   C     0.56685   0.15229   0.49217   0.00000  Uiso   1.00
C722   C     0.94789   0.17406   0.47402   0.00000  Uiso   1.00
C723   C     0.92858   0.15500   0.50743   0.00000  Uiso   1.00
C724   C     0.82231   0.05829   0.52696   0.00000  Uiso   1.00
C725   C     0.76833   0.02943   0.54139   0.00000  Uiso   1.00
C726   C     0.84066   0.07678   0.49261   0.00000  Uiso   1.00
C727   C     0.83111   0.45684   0.47452   0.00000  Uiso   1.00
C728   C     0.85230   0.43641   0.50563   0.00000  Uiso   1.00
C729   C     0.67257   0.38531   0.18157   0.00000  Uiso   1.00
C730   C     0.65743   0.41161   0.15100   0.00000  Uiso   1.00
C731   C     0.82205   0.11974   0.81480   0.00000  Uiso   1.00
C732   C     0.78652   0.13948   0.80442   0.00000  Uiso   1.00
C733   C     0.61966   0.17608   0.18363   0.00000  Uiso   1.00
C734   C     0.65088   0.20387   0.18393   0.00000  Uiso   1.00
C735   C     0.88356   0.32595   0.81804   0.00000  Uiso   1.00
C736   C     0.77307   0.47376   0.45794   0.00000  Uiso   1.00
C737   C     0.86333   0.29011   0.81053   0.00000  Uiso   1.00
C738   C     0.85839   0.08417   0.32223   0.00000  Uiso   1.00
C739   C     0.86700   0.04333   0.32026   0.00000  Uiso   1.00
C740   C     0.67355   0.38409   0.81820   0.00000  Uiso   1.00
C741   C     0.70968   0.36419   0.81089   0.00000  Uiso   1.00
C742   C     0.92356   0.36531   0.31759   0.00000  Uiso   1.00
C743   C     0.90541   0.34146   0.34848   0.00000  Uiso   1.00
C744   C     0.62015   0.17812   0.81440   0.00000  Uiso   1.00
C745   C     0.63981   0.21355   0.80363   0.00000  Uiso   1.00
C746   C     0.67799   0.12016   0.81449   0.00000  Uiso   1.00
C747   C     0.72014   0.01412   0.08150   0.00000  Uiso   1.00
C748   C     0.66362   0.09704   0.84814   0.00000  Uiso   1.00
C749   C     0.87080   0.42715   0.31446   0.00000  Uiso   1.00
C750   C     0.89824   0.45759   0.30602   0.00000  Uiso   1.00
C751   C     0.61367   0.32826   0.81892   0.00000  Uiso   1.00
C752   C     0.58932   0.34661   0.84931   0.00000  Uiso   1.00
C753   C     0.92302   0.13527   0.31889   0.00000  Uiso   1.00
C754   C     0.94900   0.10279   0.32350   0.00000  Uiso   1.00
C755   C     0.82815   0.38627   0.81919   0.00000  Uiso   1.00
C756   C     0.84696   0.41028   0.84947   0.00000  Uiso   1.00
C757   C     0.67602   0.11595   0.18331   0.00000  Uiso   1.00
C758   C     0.77978   0.01439   0.91848   0.00000  Uiso   1.00
C759   C     0.71587   0.12538   0.19333   0.00000  Uiso   1.00
C760   C     0.87994   0.17764   0.81501   0.00000  Uiso   1.00
C761   C     0.90333   0.16321   0.84842   0.00000  Uiso   1.00
C762   C     0.61060   0.33224   0.17896   0.00000  Uiso   1.00
C763   C     0.62571   0.29355   0.18161   0.00000  Uiso   1.00
C764   C     0.92660   0.13169   0.68443   0.00000  Uiso   1.00
C765   C     0.91075   0.15506   0.65176   0.00000  Uiso   1.00
C766   C     0.57710   0.36497   0.31845   0.00000  Uiso   1.00
C767   C     0.54029   0.38382   0.31175   0.00000  Uiso   1.00
C768   C     0.85473   0.40912   0.67612   0.00000  Uiso   1.00
C769   C     0.98493   0.22022   0.08172   0.00000  Uiso   1.00
C770   C     0.86899   0.44783   0.66994   0.00000  Uiso   1.00
C771   C     0.63040   0.07300   0.31523   0.00000  Uiso   1.00
C772   C     0.61031   0.03762   0.30518   0.00000  Uiso   1.00
C773   C     0.58957   0.35610   0.67634   0.00000  Uiso   1.00
C774   C     0.55111   0.37138   0.67095   0.00000  Uiso   1.00
C775   C     0.88469   0.17303   0.18199   0.00000  Uiso   1.00
C776   C     0.86462   0.20908   0.18897   0.00000  Uiso   1.00
C777   C     0.62955   0.07189   0.68569   0.00000  Uiso   1.00
C778   C     0.65276   0.08605   0.65200   0.00000  Uiso   1.00
C779   C     0.82318   0.38143   0.18423   0.00000  Uiso   1.00
C780   C     0.77899   0.01480   0.95905   0.00000  Uiso   1.00
C781   C     0.98342   0.27888   0.91824   0.00000  Uiso   1.00
C782   C     0.78722   0.36207   0.19379   0.00000  Uiso   1.00
C783   C     0.88124   0.32366   0.18382   0.00000  Uiso   1.00
C784   C     0.90498   0.33902   0.15113   0.00000  Uiso   1.00
C785   C     0.57176   0.12986   0.68566   0.00000  Uiso   1.00
C786   C     0.53626   0.11023   0.69646   0.00000  Uiso   1.00
C787   C     0.82867   0.11366   0.18111   0.00000  Uiso   1.00
C788   C     0.84702   0.08927   0.15079   0.00000  Uiso   1.00
C789   C     0.63057   0.42735   0.68541   0.00000  Uiso   1.00
C790   C     0.61200   0.46259   0.69896   0.00000  Uiso   1.00
C791   C     0.57307   0.13130   0.31508   0.00000  Uiso   1.00
C792   C     0.77935   0.48263   0.08215   0.00000  Uiso   1.00
C793   C     0.58807   0.15473   0.34815   0.00000  Uiso   1.00
C794   C     0.92728   0.37055   0.68617   0.00000  Uiso   1.00
C795   C     0.95956   0.39347   0.70028   0.00000  Uiso   1.00
C796   C     0.63483   0.42289   0.31838   0.00000  Uiso   1.00
C797   C     0.65971   0.40602   0.34925   0.00000  Uiso   1.00
C798   C     0.87125   0.07180   0.68615   0.00000  Uiso   1.00
C799   C     0.89535   0.03911   0.69633   0.00000  Uiso   1.00
C800   C     0.66013   0.00920   0.09955   0.00000  Uiso   1.00
C801   C     0.63302   0.02213   0.13007   0.00000  Uiso   1.00
C802   C     0.83950   0.01038   0.89931   0.00000  Uiso   1.00
C803   C     0.72063   0.48280   0.91786   0.00000  Uiso   1.00
C804   C     0.86714   0.02599   0.87078   0.00000  Uiso   1.00
C805   C     0.99099   0.16068   0.10004   0.00000  Uiso   1.00
C806   C     0.97527   0.13139   0.12653   0.00000  Uiso   1.00
C807   C     0.98712   0.33884   0.90072   0.00000  Uiso   1.00
C808   C     0.97194   0.36700   0.87260   0.00000  Uiso   1.00
C809   C     0.83929   0.48834   0.09959   0.00000  Uiso   1.00
C810   C     0.86783   0.47458   0.12816   0.00000  Uiso   1.00
C811   C     0.66084   0.48922   0.90024   0.00000  Uiso   1.00
C812   C     0.63180   0.47511   0.87245   0.00000  Uiso   1.00
C813   C     0.50614   0.33920   0.09876   0.00000  Uiso   1.00
C814   C     0.51554   0.27979   0.08179   0.00000  Uiso   1.00
C815   C     0.51768   0.36851   0.12749   0.00000  Uiso   1.00
C816   C     0.51313   0.16117   0.89976   0.00000  Uiso   1.00
C817   C     0.52922   0.13275   0.87248   0.00000  Uiso   1.00
C818   C     0.91082   0.26060   0.60089   0.00000  Uiso   1.00
C819   C     0.88277   0.27726   0.62828   0.00000  Uiso   1.00
C820   C     0.58977   0.25679   0.39945   0.00000  Uiso   1.00
C821   C     0.61785   0.27106   0.37062   0.00000  Uiso   1.00
C822   C     0.75255   0.41087   0.60026   0.00000  Uiso   1.00
C823   C     0.74088   0.38049   0.62769   0.00000  Uiso   1.00
C824   C     0.73308   0.08807   0.40045   0.00000  Uiso   1.00
C825   C     0.51701   0.22093   0.91795   0.00000  Uiso   1.00
C826   C     0.71419   0.11587   0.37451   0.00000  Uiso   1.00
C827   C     0.58892   0.23644   0.60028   0.00000  Uiso   1.00
C828   C     0.61795   0.22034   0.62686   0.00000  Uiso   1.00
C829   C     0.91070   0.24098   0.40047   0.00000  Uiso   1.00
C830   C     0.88155   0.22824   0.37207   0.00000  Uiso   1.00
C831   C     0.75221   0.08940   0.59891   0.00000  Uiso   1.00
C832   C     0.76171   0.11904   0.62810   0.00000  Uiso   1.00
C833   C     0.76891   0.41216   0.39975   0.00000  Uiso   1.00
C834   C     0.78678   0.38396   0.37347   0.00000  Uiso   1.00
C835   C     0.97043   0.26437   0.58147   0.00000  Uiso   1.00
C836   C     0.53026   0.26308   0.41856   0.00000  Uiso   1.00
C837   C     0.73924   0.46891   0.58127   0.00000  Uiso   1.00
C838   C     0.73326   0.02812   0.41840   0.00000  Uiso   1.00
C839   C     0.52905   0.23182   0.58229   0.00000  Uiso   1.00
C840   C     0.98333   0.22137   0.04112   0.00000  Uiso   1.00
C841   C     0.97034   0.23300   0.41788   0.00000  Uiso   1.00
C842   C     0.76510   0.03064   0.58190   0.00000  Uiso   1.00
C843   C     0.77001   0.47213   0.41747   0.00000  Uiso   1.00
C844   C     0.74976   0.49713   0.02120   0.00000  Uiso   1.00
C845   C     0.75033   0.49714   0.97878   0.00000  Uiso   1.00
C846   C     0.50085   0.24981   0.02115   0.00000  Uiso   1.00
C847   C     0.50074   0.24992   0.97871   0.00000  Uiso   1.00
C848   C     0.99973   0.24661   0.52126   0.00000  Uiso   1.00
C849   C     0.50037   0.24652   0.47884   0.00000  Uiso   1.00
C850   C     0.75350   0.49979   0.52099   0.00000  Uiso   1.00
C851   C     0.98186   0.27755   0.95885   0.00000  Uiso   1.00
C852   C     0.75329   0.00028   0.47854   0.00000  Uiso   1.00
C853   C     0.75010  -0.00000   0.35522   0.00000  Uiso   1.00
C854   C     0.75021   0.49999   0.64467   0.00000  Uiso   1.00
C855   C     0.50000   0.24992   0.35531   0.00000  Uiso   1.00
C856   C     0.50000   0.24994   0.64471   0.00000  Uiso   1.00
C857   C     0.50000   0.24999   0.85525   0.00000  Uiso   1.00
C858   C     0.99996   0.25001   0.14471   0.00000  Uiso   1.00
C859   C     0.75000   0.00002   0.85530   0.00000  Uiso   1.00
C860   C     0.75000   0.49996   0.14470   0.00000  Uiso   1.00
C861   C     0.67979   0.06968   0.25035   0.00000  Uiso   1.00
C862   C     0.77805   0.47982   0.04164   0.00000  Uiso   1.00
C863   C     0.82011   0.43006   0.74957   0.00000  Uiso   1.00
C864   C     0.92995   0.18012   0.24987   0.00000  Uiso   1.00
C865   C     0.56986   0.32023   0.74940   0.00000  Uiso   1.00
C866   C     0.82003   0.43003   0.24999   0.00000  Uiso   1.00
C867   C     0.68000   0.06995   0.75001   0.00000  Uiso   1.00
C868   C     0.56992   0.32008   0.25001   0.00000  Uiso   1.00
C869   C     0.92991   0.18018   0.75016   0.00000  Uiso   1.00
C870   C     0.68015   0.42995   0.75033   0.00000  Uiso   1.00
C871   C     0.82006   0.06996   0.25018   0.00000  Uiso   1.00
C872   C     0.92992   0.31985   0.75025   0.00000  Uiso   1.00
C873   C     0.72199   0.47989   0.95834   0.00000  Uiso   1.00
C874   C     0.57026   0.18024   0.24967   0.00000  Uiso   1.00
C875   C     0.82001   0.06997   0.75001   0.00000  Uiso   1.00
C876   C     0.68002   0.43006   0.24999   0.00000  Uiso   1.00
C877   C     0.57000   0.18004   0.74999   0.00000  Uiso   1.00
C878   C     0.92982   0.31973   0.24977   0.00000  Uiso   1.00
C879   C     0.64657   0.38100   0.21611   0.00000  Uiso   1.00
C880   C     0.85009   0.12250   0.78193   0.00000  Uiso   1.00
C881   C     0.62257   0.14920   0.21750   0.00000  Uiso   1.00
C882   C     0.87945   0.35222   0.78375   0.00000  Uiso   1.00
C883   C     0.86838   0.10456   0.28481   0.00000  Uiso   1.00
C884   C     0.51803   0.27839   0.04120   0.00000  Uiso   1.00
C885   C     0.64743   0.37984   0.78376   0.00000  Uiso   1.00
C886   C     0.89834   0.37066   0.28255   0.00000  Uiso   1.00
C887   C     0.62265   0.14998   0.78166   0.00000  Uiso   1.00
C888   C     0.65000   0.12265   0.78164   0.00000  Uiso   1.00
C889   C     0.87171   0.39862   0.28218   0.00000  Uiso   1.00
C890   C     0.61958   0.35300   0.78372   0.00000  Uiso   1.00
C891   C     0.89705   0.13062   0.28413   0.00000  Uiso   1.00
C892   C     0.85273   0.38021   0.78387   0.00000  Uiso   1.00
C893   C     0.64967   0.12147   0.21763   0.00000  Uiso   1.00
C894   C     0.87738   0.14990   0.78195   0.00000  Uiso   1.00
C895   C     0.51917   0.22222   0.95848   0.00000  Uiso   1.00
C896   C     0.61850   0.35447   0.21564   0.00000  Uiso   1.00
C897   C     0.89957   0.12807   0.71817   0.00000  Uiso   1.00
C898   C     0.60274   0.36998   0.28365   0.00000  Uiso   1.00
C899   C     0.86682   0.39319   0.71504   0.00000  Uiso   1.00
C900   C     0.62789   0.10074   0.28209   0.00000  Uiso   1.00
C901   C     0.60619   0.36762   0.71508   0.00000  Uiso   1.00
C902   C     0.88027   0.14705   0.21658   0.00000  Uiso   1.00
C903   C     0.62719   0.09992   0.71847   0.00000  Uiso   1.00
C904   C     0.85063   0.37804   0.21757   0.00000  Uiso   1.00
C905   C     0.87797   0.35068   0.21746   0.00000  Uiso   1.00
C906   C     0.97133   0.26477   0.54091   0.00000  Uiso   1.00
C907   C     0.59997   0.12737   0.71837   0.00000  Uiso   1.00
C908   C     0.85336   0.11936   0.21644   0.00000  Uiso   1.00
C909   C     0.62990   0.39796   0.71716   0.00000  Uiso   1.00
C910   C     0.60065   0.12814   0.28183   0.00000  Uiso   1.00
C911   C     0.89715   0.36954   0.71704   0.00000  Uiso   1.00
C912   C     0.62996   0.39743   0.28357   0.00000  Uiso   1.00
C913   C     0.87253   0.10047   0.71831   0.00000  Uiso   1.00
C914   C     0.59778   0.34851   0.24987   0.00000  Uiso   1.00
C915   C     0.90175   0.15219   0.75011   0.00000  Uiso   1.00
C916   C     0.65193   0.09791   0.25006   0.00000  Uiso   1.00
H917   H     0.71961   0.07009   0.99021   0.00000  Uiso   1.00
H918   H     0.84694   0.07250   0.02563   0.00000  Uiso   1.00
H919   H     0.87353   0.33753   0.84560   0.00000  Uiso   1.00
H920   H     0.89326   0.03859   0.30485   0.00000  Uiso   1.00
H921   H     0.84494   0.02796   0.30543   0.00000  Uiso   1.00
H922   H     0.86921   0.03219   0.35008   0.00000  Uiso   1.00
H923   H     0.87239   0.09503   0.34803   0.00000  Uiso   1.00
H924   H     0.82900   0.08822   0.32917   0.00000  Uiso   1.00
H925   H     0.70462   0.33461   0.80599   0.00000  Uiso   1.00
H926   H     0.72397   0.37571   0.78528   0.00000  Uiso   1.00
H927   H     0.72784   0.36730   0.83646   0.00000  Uiso   1.00
H928   H     0.67914   0.41321   0.82458   0.00000  Uiso   1.00
H929   H     0.91850   0.22622   0.02587   0.00000  Uiso   1.00
H930   H     0.66186   0.37397   0.84568   0.00000  Uiso   1.00
H931   H     0.92419   0.33842   0.37355   0.00000  Uiso   1.00
H932   H     0.89922   0.31389   0.33684   0.00000  Uiso   1.00
H933   H     0.87946   0.35388   0.35880   0.00000  Uiso   1.00
H934   H     0.95010   0.35272   0.30934   0.00000  Uiso   1.00
H935   H     0.93192   0.39164   0.33063   0.00000  Uiso   1.00
H936   H     0.66913   0.20808   0.79724   0.00000  Uiso   1.00
H937   H     0.62694   0.22641   0.77793   0.00000  Uiso   1.00
H938   H     0.63814   0.23310   0.82816   0.00000  Uiso   1.00
H939   H     0.59126   0.18427   0.82184   0.00000  Uiso   1.00
H940   H     0.91826   0.18231   0.05007   0.00000  Uiso   1.00
H941   H     0.63153   0.16788   0.84198   0.00000  Uiso   1.00
H942   H     0.63759   0.10823   0.85973   0.00000  Uiso   1.00
H943   H     0.65865   0.06851   0.83869   0.00000  Uiso   1.00
H944   H     0.68420   0.09663   0.87178   0.00000  Uiso   1.00
H945   H     0.70428   0.10824   0.80443   0.00000  Uiso   1.00
H946   H     0.68603   0.14766   0.82494   0.00000  Uiso   1.00
H947   H     0.92568   0.44645   0.29879   0.00000  Uiso   1.00
H948   H     0.88857   0.47423   0.28116   0.00000  Uiso   1.00
H949   H     0.90108   0.47521   0.33195   0.00000  Uiso   1.00
H950   H     0.84337   0.43955   0.31836   0.00000  Uiso   1.00
H951   H     0.91746   0.15085   0.98634   0.00000  Uiso   1.00
H952   H     0.87662   0.41490   0.34310   0.00000  Uiso   1.00
H953   H     0.60099   0.37308   0.85893   0.00000  Uiso   1.00
H954   H     0.56158   0.35178   0.83745   0.00000  Uiso   1.00
H955   H     0.58665   0.32841   0.87489   0.00000  Uiso   1.00
H956   H     0.60108   0.30174   0.81087   0.00000  Uiso   1.00
H957   H     0.64016   0.31995   0.83191   0.00000  Uiso   1.00
H958   H     0.93444   0.07831   0.33422   0.00000  Uiso   1.00
H959   H     0.96248   0.09640   0.29546   0.00000  Uiso   1.00
H960   H     0.97058   0.10965   0.34496   0.00000  Uiso   1.00
H961   H     0.94100   0.15943   0.31661   0.00000  Uiso   1.00
H962   H     0.87954   0.18231   0.99106   0.00000  Uiso   1.00
H963   H     0.90765   0.14066   0.34597   0.00000  Uiso   1.00
H964   H     0.87336   0.39828   0.85896   0.00000  Uiso   1.00
H965   H     0.85248   0.43787   0.83749   0.00000  Uiso   1.00
H966   H     0.82884   0.41317   0.87513   0.00000  Uiso   1.00
H967   H     0.80168   0.39917   0.81131   0.00000  Uiso   1.00
H968   H     0.81960   0.35990   0.83218   0.00000  Uiso   1.00
H969   H     0.73108   0.13245   0.16649   0.00000  Uiso   1.00
H970   H     0.71734   0.14897   0.21349   0.00000  Uiso   1.00
H971   H     0.73006   0.10172   0.20660   0.00000  Uiso   1.00
H972   H     0.67450   0.08731   0.17289   0.00000  Uiso   1.00
H973   H     0.91886   0.19463   0.96195   0.00000  Uiso   1.00
H974   H     0.66858   0.13208   0.15753   0.00000  Uiso   1.00
H975   H     0.89231   0.13710   0.85985   0.00000  Uiso   1.00
H976   H     0.93192   0.15848   0.83877   0.00000  Uiso   1.00
H977   H     0.90371   0.18359   0.87223   0.00000  Uiso   1.00
H978   H     0.89171   0.20399   0.80507   0.00000  Uiso   1.00
H979   H     0.85240   0.18549   0.82571   0.00000  Uiso   1.00
H980   H     0.65573   0.29419   0.18678   0.00000  Uiso   1.00
H981   H     0.61224   0.27794   0.20514   0.00000  Uiso   1.00
H982   H     0.62034   0.27927   0.15384   0.00000  Uiso   1.00
H983   H     0.58090   0.33137   0.17269   0.00000  Uiso   1.00
H984   H     0.91725   0.26981   0.97423   0.00000  Uiso   1.00
H985   H     0.62196   0.34469   0.15247   0.00000  Uiso   1.00
H986   H     0.88508   0.14301   0.64028   0.00000  Uiso   1.00
H987   H     0.90464   0.18307   0.66219   0.00000  Uiso   1.00
H988   H     0.93094   0.15701   0.62778   0.00000  Uiso   1.00
H989   H     0.95295   0.14394   0.69379   0.00000  Uiso   1.00
H990   H     0.93491   0.10466   0.67295   0.00000  Uiso   1.00
H991   H     0.54442   0.41350   0.30658   0.00000  Uiso   1.00
H992   H     0.52585   0.37180   0.28653   0.00000  Uiso   1.00
H993   H     0.52266   0.38036   0.33771   0.00000  Uiso   1.00
H994   H     0.57253   0.33571   0.32497   0.00000  Uiso   1.00
H995   H     0.91523   0.31355   0.94978   0.00000  Uiso   1.00
H996   H     0.58877   0.37548   0.34574   0.00000  Uiso   1.00
H997   H     0.85767   0.46648   0.69224   0.00000  Uiso   1.00
H998   H     0.86027   0.45785   0.64103   0.00000  Uiso   1.00
H999   H     0.89935   0.44835   0.67133   0.00000  Uiso   1.00
H1000  H     0.86285   0.39149   0.65153   0.00000  Uiso   1.00
H1001  H     0.82462   0.40877   0.67300   0.00000  Uiso   1.00
H1002  H     0.58101   0.04327   0.29901   0.00000  Uiso   1.00
H1003  H     0.62287   0.02432   0.27953   0.00000  Uiso   1.00
H1004  H     0.61200   0.01836   0.32997   0.00000  Uiso   1.00
H1005  H     0.65926   0.06660   0.32243   0.00000  Uiso   1.00
H1006  H     0.91281   0.34526   0.01334   0.00000  Uiso   1.00
H1007  H     0.61938   0.08365   0.34281   0.00000  Uiso   1.00
H1008  H     0.54062   0.36370   0.64191   0.00000  Uiso   1.00
H1009  H     0.55127   0.40164   0.67338   0.00000  Uiso   1.00
H1010  H     0.53247   0.35982   0.69316   0.00000  Uiso   1.00
H1011  H     0.60720   0.36381   0.65157   0.00000  Uiso   1.00
H1012  H     0.58895   0.32608   0.67306   0.00000  Uiso   1.00
H1013  H     0.83497   0.20399   0.19379   0.00000  Uiso   1.00
H1014  H     0.87601   0.22351   0.21452   0.00000  Uiso   1.00
H1015  H     0.86780   0.22706   0.16328   0.00000  Uiso   1.00
H1016  H     0.91385   0.17863   0.17560   0.00000  Uiso   1.00
H1017  H     0.87627   0.31220   0.00866   0.00000  Uiso   1.00
H1018  H     0.87475   0.16127   0.15449   0.00000  Uiso   1.00
H1019  H     0.65329   0.06535   0.62849   0.00000  Uiso   1.00
H1020  H     0.68130   0.09115   0.66153   0.00000  Uiso   1.00
H1021  H     0.64155   0.11192   0.64019   0.00000  Uiso   1.00
H1022  H     0.64140   0.04565   0.69580   0.00000  Uiso   1.00
H1023  H     0.60195   0.06396   0.67527   0.00000  Uiso   1.00
H1024  H     0.79223   0.33266   0.19971   0.00000  Uiso   1.00
H1025  H     0.77393   0.37463   0.21945   0.00000  Uiso   1.00
H1026  H     0.76818   0.36439   0.16885   0.00000  Uiso   1.00
H1027  H     0.81755   0.41042   0.17714   0.00000  Uiso   1.00
H1028  H     0.70896   0.08152   0.04027   0.00000  Uiso   1.00
H1029  H     0.91594   0.30170   0.03797   0.00000  Uiso   1.00
H1030  H     0.83382   0.37036   0.15667   0.00000  Uiso   1.00
H1031  H     0.89383   0.36520   0.14003   0.00000  Uiso   1.00
H1032  H     0.93332   0.34396   0.16142   0.00000  Uiso   1.00
H1033  H     0.90606   0.31909   0.12692   0.00000  Uiso   1.00
H1034  H     0.89311   0.29720   0.19326   0.00000  Uiso   1.00
H1035  H     0.85391   0.31580   0.17258   0.00000  Uiso   1.00
H1036  H     0.54176   0.08104   0.70306   0.00000  Uiso   1.00
H1037  H     0.52328   0.12321   0.72205   0.00000  Uiso   1.00
H1038  H     0.51676   0.11170   0.67186   0.00000  Uiso   1.00
H1039  H     0.56558   0.15868   0.67824   0.00000  Uiso   1.00
H1040  H     0.77126   0.41509   0.02636   0.00000  Uiso   1.00
H1041  H     0.58202   0.11849   0.65807   0.00000  Uiso   1.00
H1042  H     0.87376   0.10063   0.14141   0.00000  Uiso   1.00
H1043  H     0.85182   0.06149   0.16262   0.00000  Uiso   1.00
H1044  H     0.82895   0.08689   0.12507   0.00000  Uiso   1.00
H1045  H     0.80196   0.10128   0.18901   0.00000  Uiso   1.00
H1046  H     0.82050   0.14013   0.16809   0.00000  Uiso   1.00
H1047  H     0.58350   0.45681   0.70845   0.00000  Uiso   1.00
H1048  H     0.62712   0.47548   0.72316   0.00000  Uiso   1.00
H1049  H     0.61103   0.48245   0.67467   0.00000  Uiso   1.00
H1050  H     0.65907   0.43318   0.67608   0.00000  Uiso   1.00
H1051  H     0.81395   0.41418   0.05304   0.00000  Uiso   1.00
H1052  H     0.61614   0.41948   0.65867   0.00000  Uiso   1.00
H1053  H     0.61387   0.14320   0.35989   0.00000  Uiso   1.00
H1054  H     0.59372   0.18292   0.33800   0.00000  Uiso   1.00
H1055  H     0.56757   0.15609   0.37187   0.00000  Uiso   1.00
H1056  H     0.54670   0.14324   0.30532   0.00000  Uiso   1.00
H1057  H     0.56494   0.10401   0.32608   0.00000  Uiso   1.00
H1058  H     0.94999   0.42069   0.71033   0.00000  Uiso   1.00
H1059  H     0.97399   0.37961   0.72442   0.00000  Uiso   1.00
H1060  H     0.97905   0.39776   0.67607   0.00000  Uiso   1.00
H1061  H     0.93673   0.34266   0.67849   0.00000  Uiso   1.00
H1062  H     0.84862   0.41093   0.99120   0.00000  Uiso   1.00
H1063  H     0.91863   0.38259   0.65840   0.00000  Uiso   1.00
H1064  H     0.64909   0.37925   0.35928   0.00000  Uiso   1.00
H1065  H     0.68774   0.40177   0.33773   0.00000  Uiso   1.00
H1066  H     0.66148   0.42471   0.37451   0.00000  Uiso   1.00
H1067  H     0.64646   0.44971   0.30978   0.00000  Uiso   1.00
H1068  H     0.60800   0.43043   0.33116   0.00000  Uiso   1.00
H1069  H     0.92357   0.04800   0.70371   0.00000  Uiso   1.00
H1070  H     0.88366   0.02412   0.72142   0.00000  Uiso   1.00
H1071  H     0.89691   0.02041   0.67111   0.00000  Uiso   1.00
H1072  H     0.84302   0.06207   0.68048   0.00000  Uiso   1.00
H1073  H     0.81588   0.37406   0.99521   0.00000  Uiso   1.00
H1074  H     0.87990   0.08306   0.65786   0.00000  Uiso   1.00
H1075  H     0.66648   0.47990   0.10535   0.00000  Uiso   1.00
H1076  H     0.64671   0.01149   0.07081   0.00000  Uiso   1.00
H1077  H     0.62592   0.05128   0.12511   0.00000  Uiso   1.00
H1078  H     0.60764   0.00545   0.12853   0.00000  Uiso   1.00
H1079  H     0.64509   0.01912   0.15938   0.00000  Uiso   1.00
H1080  H     0.83341   0.48169   0.89059   0.00000  Uiso   1.00
H1081  H     0.85230   0.01027   0.92848   0.00000  Uiso   1.00
H1082  H     0.87392   0.05464   0.87867   0.00000  Uiso   1.00
H1083  H     0.89259   0.00937   0.87131   0.00000  Uiso   1.00
H1084  H     0.80607   0.41279   0.96438   0.00000  Uiso   1.00
H1085  H     0.85565   0.02546   0.84106   0.00000  Uiso   1.00
H1086  H     0.51935   0.16705   0.10999   0.00000  Uiso   1.00
H1087  H     0.99219   0.14941   0.07017   0.00000  Uiso   1.00
H1088  H     0.94693   0.12442   0.11745   0.00000  Uiso   1.00
H1089  H     0.99251   0.10641   0.12507   0.00000  Uiso   1.00
H1090  H     0.97476   0.14139   0.15687   0.00000  Uiso   1.00
H1091  H     0.51630   0.33360   0.89289   0.00000  Uiso   1.00
H1092  H     0.98590   0.35060   0.93036   0.00000  Uiso   1.00
H1093  H     0.94278   0.37283   0.87946   0.00000  Uiso   1.00
H1094  H     0.98792   0.39274   0.87482   0.00000  Uiso   1.00
H1095  H     0.72867   0.41516   0.97391   0.00000  Uiso   1.00
H1096  H     0.97393   0.35658   0.84249   0.00000  Uiso   1.00
H1097  H     0.83324   0.01746   0.10664   0.00000  Uiso   1.00
H1098  H     0.85118   0.48677   0.07000   0.00000  Uiso   1.00
H1099  H     0.87460   0.44556   0.12195   0.00000  Uiso   1.00
H1100  H     0.89313   0.49128   0.12571   0.00000  Uiso   1.00
H1101  H     0.85716   0.47679   0.15817   0.00000  Uiso   1.00
H1102  H     0.66721   0.01808   0.89225   0.00000  Uiso   1.00
H1103  H     0.64927   0.48860   0.93002   0.00000  Uiso   1.00
H1104  H     0.62477   0.44633   0.87957   0.00000  Uiso   1.00
H1105  H     0.60672   0.49215   0.87477   0.00000  Uiso   1.00
H1106  H     0.68623   0.41435   0.94679   0.00000  Uiso   1.00
H1107  H     0.64213   0.47643   0.84225   0.00000  Uiso   1.00
H1108  H     0.97731   0.33130   0.10547   0.00000  Uiso   1.00
H1109  H     0.50724   0.35114   0.06918   0.00000  Uiso   1.00
H1110  H     0.54635   0.37712   0.12166   0.00000  Uiso   1.00
H1111  H     0.99939   0.39263   0.12477   0.00000  Uiso   1.00
H1112  H     0.51573   0.35778   0.15749   0.00000  Uiso   1.00
H1113  H     0.98427   0.16648   0.89080   0.00000  Uiso   1.00
H1114  H     0.51323   0.14961   0.92953   0.00000  Uiso   1.00
H1115  H     0.55803   0.12674   0.88064   0.00000  Uiso   1.00
H1116  H     0.51297   0.10714   0.87414   0.00000  Uiso   1.00
H1117  H     0.65096   0.41110   0.00824   0.00000  Uiso   1.00
H1118  H     0.52856   0.14305   0.84227   0.00000  Uiso   1.00
H1119  H     0.91680   0.23225   0.61091   0.00000  Uiso   1.00
H1120  H     0.89845   0.25937   0.57153   0.00000  Uiso   1.00
H1121  H     0.87598   0.30552   0.61897   0.00000  Uiso   1.00
H1122  H     0.85739   0.26053   0.62820   0.00000  Uiso   1.00
H1123  H     0.89391   0.27805   0.65815   0.00000  Uiso   1.00
H1124  H     0.58255   0.22826   0.39105   0.00000  Uiso   1.00
H1125  H     0.60270   0.25643   0.42857   0.00000  Uiso   1.00
H1126  H     0.62570   0.29954   0.37811   0.00000  Uiso   1.00
H1127  H     0.64268   0.25354   0.37125   0.00000  Uiso   1.00
H1128  H     0.68371   0.37420   0.00459   0.00000  Uiso   1.00
H1129  H     0.60624   0.27061   0.34094   0.00000  Uiso   1.00
H1130  H     0.77974   0.42127   0.61011   0.00000  Uiso   1.00
H1131  H     0.75545   0.39910   0.57073   0.00000  Uiso   1.00
H1132  H     0.71406   0.36910   0.61847   0.00000  Uiso   1.00
H1133  H     0.76166   0.35832   0.62747   0.00000  Uiso   1.00
H1134  H     0.73834   0.39131   0.65761   0.00000  Uiso   1.00
H1135  H     0.76184   0.08471   0.39009   0.00000  Uiso   1.00
H1136  H     0.73343   0.09915   0.43042   0.00000  Uiso   1.00
H1137  H     0.68530   0.11967   0.38385   0.00000  Uiso   1.00
H1138  H     0.72865   0.14252   0.37629   0.00000  Uiso   1.00
H1139  H     0.64267   0.08320   0.02359   0.00000  Uiso   1.00
H1140  H     0.69324   0.41292   0.03553   0.00000  Uiso   1.00
H1141  H     0.71463   0.10631   0.34403   0.00000  Uiso   1.00
H1142  H     0.58357   0.26514   0.60961   0.00000  Uiso   1.00
H1143  H     0.60001   0.23661   0.57028   0.00000  Uiso   1.00
H1144  H     0.62401   0.19170   0.61828   0.00000  Uiso   1.00
H1145  H     0.64348   0.23673   0.62489   0.00000  Uiso   1.00
H1146  H     0.60809   0.22066   0.65727   0.00000  Uiso   1.00
H1147  H     0.91788   0.26981   0.39323   0.00000  Uiso   1.00
H1148  H     0.89886   0.24005   0.43013   0.00000  Uiso   1.00
H1149  H     0.87333   0.19970   0.37878   0.00000  Uiso   1.00
H1150  H     0.85711   0.24621   0.37419   0.00000  Uiso   1.00
H1151  H     0.58426   0.27859   0.03463   0.00000  Uiso   1.00
H1152  H     0.89236   0.22944   0.34204   0.00000  Uiso   1.00
H1153  H     0.72380   0.07982   0.60510   0.00000  Uiso   1.00
H1154  H     0.75304   0.10163   0.56945   0.00000  Uiso   1.00
H1155  H     0.78977   0.12956   0.62251   0.00000  Uiso   1.00
H1156  H     0.74189   0.14194   0.62565   0.00000  Uiso   1.00
H1157  H     0.76044   0.10782   0.65795   0.00000  Uiso   1.00
H1158  H     0.73988   0.41566   0.39043   0.00000  Uiso   1.00
H1159  H     0.76940   0.40138   0.42985   0.00000  Uiso   1.00
H1160  H     0.81573   0.37963   0.38224   0.00000  Uiso   1.00
H1161  H     0.77183   0.35761   0.37559   0.00000  Uiso   1.00
H1162  H     0.57923   0.32501   0.05197   0.00000  Uiso   1.00
H1163  H     0.78605   0.39351   0.34299   0.00000  Uiso   1.00
H1164  H     0.58336   0.34823   0.98464   0.00000  Uiso   1.00
H1165  H     0.62284   0.32083   0.99707   0.00000  Uiso   1.00
H1166  H     0.58718   0.30188   0.96678   0.00000  Uiso   1.00
H1167  H     0.58119   0.23128   0.98725   0.00000  Uiso   1.00
H1168  H     0.58684   0.19809   0.94870   0.00000  Uiso   1.00
H1169  H     0.59001   0.14821   0.99750   0.00000  Uiso   1.00
H1170  H     0.62455   0.18268   0.00603   0.00000  Uiso   1.00
H1171  H     0.66905   0.11492   0.99471   0.00000  Uiso   1.00
H1172  H     0.58390   0.18130   0.03595   0.00000  Uiso   1.00
H1173  H     0.97142   0.31965   0.48994   0.00000  Uiso   1.00
H1174  H     0.96041   0.33193   0.53968   0.00000  Uiso   1.00
H1175  H     0.89437   0.33480   0.52203   0.00000  Uiso   1.00
H1176  H     0.92178   0.36560   0.49312   0.00000  Uiso   1.00
H1177  H     0.90574   0.32310   0.47252   0.00000  Uiso   1.00
H1178  H     0.53271   0.31907   0.51001   0.00000  Uiso   1.00
H1179  H     0.54255   0.32992   0.45965   0.00000  Uiso   1.00
H1180  H     0.60918   0.33028   0.47465   0.00000  Uiso   1.00
H1181  H     0.58414   0.36277   0.50389   0.00000  Uiso   1.00
H1182  H     0.65364   0.07234   0.97376   0.00000  Uiso   1.00
H1183  H     0.59913   0.32002   0.52483   0.00000  Uiso   1.00
H1184  H     0.67381   0.46985   0.52250   0.00000  Uiso   1.00
H1185  H     0.67601   0.42681   0.54828   0.00000  Uiso   1.00
H1186  H     0.67966   0.39354   0.48558   0.00000  Uiso   1.00
H1187  H     0.63932   0.42212   0.48801   0.00000  Uiso   1.00
H1188  H     0.67849   0.43660   0.45980   0.00000  Uiso   1.00
H1189  H     0.66848   0.01579   0.47372   0.00000  Uiso   1.00
H1190  H     0.66378   0.06051   0.45185   0.00000  Uiso   1.00
H1191  H     0.66095   0.08883   0.51718   0.00000  Uiso   1.00
H1192  H     0.62610   0.05417   0.51134   0.00000  Uiso   1.00
H1193  H     0.78072   0.06996   0.01035   0.00000  Uiso   1.00
H1194  H     0.66686   0.04434   0.53922   0.00000  Uiso   1.00
H1195  H     0.51949   0.16432   0.52669   0.00000  Uiso   1.00
H1196  H     0.56222   0.16241   0.55324   0.00000  Uiso   1.00
H1197  H     0.59664   0.15842   0.49128   0.00000  Uiso   1.00
H1198  H     0.56304   0.12232   0.49534   0.00000  Uiso   1.00
H1199  H     0.55408   0.16132   0.46459   0.00000  Uiso   1.00
H1200  H     0.97710   0.16508   0.47403   0.00000  Uiso   1.00
H1201  H     0.93486   0.16514   0.44653   0.00000  Uiso   1.00
H1202  H     0.89906   0.16235   0.50764   0.00000  Uiso   1.00
H1203  H     0.93121   0.12491   0.50423   0.00000  Uiso   1.00
H1204  H     0.79051   0.08162   0.96016   0.00000  Uiso   1.00
H1205  H     0.94113   0.16341   0.53534   0.00000  Uiso   1.00
H1206  H     0.83411   0.03026   0.52977   0.00000  Uiso   1.00
H1207  H     0.82900   0.07413   0.55347   0.00000  Uiso   1.00
H1208  H     0.83048   0.10526   0.48962   0.00000  Uiso   1.00
H1209  H     0.87079   0.07742   0.49695   0.00000  Uiso   1.00
H1210  H     0.83449   0.06145   0.46563   0.00000  Uiso   1.00
H1211  H     0.83637   0.48663   0.47836   0.00000  Uiso   1.00
H1212  H     0.84168   0.44817   0.44575   0.00000  Uiso   1.00
H1213  H     0.84843   0.40648   0.50214   0.00000  Uiso   1.00
H1214  H     0.88195   0.44282   0.50320   0.00000  Uiso   1.00
H1215  H     0.85706   0.08352   0.97564   0.00000  Uiso   1.00
H1216  H     0.84245   0.44477   0.53476   0.00000  Uiso   1.00
H1217  H     0.62952   0.40377   0.14151   0.00000  Uiso   1.00
H1218  H     0.65598   0.43983   0.16242   0.00000  Uiso   1.00
H1219  H     0.67580   0.41161   0.12536   0.00000  Uiso   1.00
H1220  H     0.69997   0.39519   0.19075   0.00000  Uiso   1.00
H1221  H     0.67870   0.35840   0.16825   0.00000  Uiso   1.00
H1222  H     0.79201   0.16873   0.79808   0.00000  Uiso   1.00
H1223  H     0.77344   0.12672   0.77878   0.00000  Uiso   1.00
H1224  H     0.76712   0.13781   0.82914   0.00000  Uiso   1.00
H1225  H     0.81589   0.09087   0.82202   0.00000  Uiso   1.00
H1226  H     0.83100   0.11506   0.00507   0.00000  Uiso   1.00
H1227  H     0.83246   0.13088   0.84242   0.00000  Uiso   1.00
H1228  H     0.64942   0.22075   0.21060   0.00000  Uiso   1.00
H1229  H     0.64853   0.22177   0.15817   0.00000  Uiso   1.00
H1230  H     0.67806   0.19070   0.18267   0.00000  Uiso   1.00
H1231  H     0.61838   0.16132   0.15564   0.00000  Uiso   1.00
H1232  H     0.59394   0.19206   0.18376   0.00000  Uiso   1.00
H1233  H     0.83371   0.29541   0.80583   0.00000  Uiso   1.00
H1234  H     0.87469   0.27601   0.78473   0.00000  Uiso   1.00
H1235  H     0.86642   0.27175   0.83592   0.00000  Uiso   1.00
H1236  H     0.91270   0.32007   0.82429   0.00000  Uiso   1.00
O1237  O     0.75000  -0.00000   0.25000   0.00000  Uiso   1.00
O1238  O     0.75000   0.46964   0.66317   0.00000  Uiso   1.00
O1239  O     0.96964   0.25000   0.33683   0.00000  Uiso   1.00
O1240  O     0.53036   0.25000   0.66317   0.00000  Uiso   1.00
O1241  O     0.50000   0.21964   0.83683   0.00000  Uiso   1.00
O1242  O     0.50000   0.28036   0.16317   0.00000  Uiso   1.00
O1243  O     0.78036  -0.00000   0.83683   0.00000  Uiso   1.00
O1244  O     0.71964  -0.00000   0.16317   0.00000  Uiso   1.00
O1245  O     0.50000   0.28036   0.83683   0.00000  Uiso   1.00
O1246  O     0.50000   0.21964   0.16317   0.00000  Uiso   1.00
O1247  O     0.71964  -0.00000   0.83683   0.00000  Uiso   1.00
O1248  O     0.75000  -0.00000   0.75000   0.00000  Uiso   1.00
O1249  O     0.78036  -0.00000   0.16317   0.00000  Uiso   1.00
O1250  O     0.70726   0.07307   0.27282   0.00000  Uiso   1.00
O1251  O     0.79275   0.42693   0.72718   0.00000  Uiso   1.00
O1252  O     0.92693   0.20725   0.27282   0.00000  Uiso   1.00
O1253  O     0.57307   0.29274   0.72718   0.00000  Uiso   1.00
O1254  O     0.79275   0.42693   0.27282   0.00000  Uiso   1.00
O1255  O     0.70726   0.07307   0.72718   0.00000  Uiso   1.00
O1256  O     0.57307   0.29274   0.27282   0.00000  Uiso   1.00
O1257  O     0.92693   0.20725   0.72718   0.00000  Uiso   1.00
O1258  O     0.70726   0.42693   0.72718   0.00000  Uiso   1.00
O1259  O     0.50000   0.25000   0.25000   0.00000  Uiso   1.00
O1260  O     0.79275   0.07307   0.27282   0.00000  Uiso   1.00
O1261  O     0.92693   0.29274   0.72718   0.00000  Uiso   1.00
O1262  O     0.57307   0.20725   0.27282   0.00000  Uiso   1.00
O1263  O     0.79275   0.07307   0.72718   0.00000  Uiso   1.00
O1264  O     0.70726   0.42693   0.27282   0.00000  Uiso   1.00
O1265  O     0.57307   0.20725   0.72718   0.00000  Uiso   1.00
O1266  O     0.92693   0.29274   0.27282   0.00000  Uiso   1.00
O1267  O     0.95726   0.32307   0.77282   0.00000  Uiso   1.00
O1268  O     0.54275   0.17693   0.22718   0.00000  Uiso   1.00
O1269  O     0.67693   0.45725   0.77282   0.00000  Uiso   1.00
O1270  O     0.50000   0.25000   0.75000   0.00000  Uiso   1.00
O1271  O     0.82307   0.04274   0.22718   0.00000  Uiso   1.00
O1272  O     0.54275   0.17693   0.77282   0.00000  Uiso   1.00
O1273  O     0.95726   0.32307   0.22718   0.00000  Uiso   1.00
O1274  O     0.82307   0.04274   0.77282   0.00000  Uiso   1.00
O1275  O     0.67693   0.45725   0.22718   0.00000  Uiso   1.00
O1276  O     0.95726   0.17693   0.22718   0.00000  Uiso   1.00
O1277  O     0.54275   0.32307   0.77282   0.00000  Uiso   1.00
O1278  O     0.67693   0.04274   0.22718   0.00000  Uiso   1.00
O1279  O     0.82307   0.45725   0.77282   0.00000  Uiso   1.00
O1280  O     0.54275   0.32307   0.22718   0.00000  Uiso   1.00
O1281  O     0.75000   0.46964   0.33683   0.00000  Uiso   1.00
O1282  O     0.95726   0.17693   0.77282   0.00000  Uiso   1.00
O1283  O     0.82307   0.45725   0.22718   0.00000  Uiso   1.00
O1284  O     0.67693   0.04274   0.77282   0.00000  Uiso   1.00
O1285  O     0.69205   0.02979   0.02063   0.00000  Uiso   1.00
O1286  O     0.80800   0.02988   0.97931   0.00000  Uiso   1.00
O1287  O     0.96624   0.19385   0.02033   0.00000  Uiso   1.00
O1288  O     0.96352   0.30420   0.97976   0.00000  Uiso   1.00
O1289  O     0.80526   0.46159   0.02141   0.00000  Uiso   1.00
O1290  O     0.69473   0.46172   0.97856   0.00000  Uiso   1.00
O1291  O     0.53494   0.30605   0.02033   0.00000  Uiso   1.00
O1292  O     0.75000   0.03036   0.66317   0.00000  Uiso   1.00
O1293  O     0.53743   0.19514   0.97873   0.00000  Uiso   1.00
O1294  O     0.94261   0.28035   0.52060   0.00000  Uiso   1.00
O1295  O     0.55877   0.27794   0.47940   0.00000  Uiso   1.00
O1296  O     0.72392   0.44099   0.51975   0.00000  Uiso   1.00
O1297  O     0.71303   0.05235   0.48030   0.00000  Uiso   1.00
O1298  O     0.55457   0.21003   0.52169   0.00000  Uiso   1.00
O1299  O     0.94405   0.21226   0.47852   0.00000  Uiso   1.00
O1300  O     0.78399   0.05808   0.52102   0.00000  Uiso   1.00
O1301  O     0.79356   0.44813   0.47794   0.00000  Uiso   1.00
O1302  O     0.69184   0.03137   0.10106   0.00000  Uiso   1.00
O1303  O     0.53036   0.25000   0.33683   0.00000  Uiso   1.00
O1304  O     0.80765   0.03235   0.89898   0.00000  Uiso   1.00
O1305  O     0.96824   0.19188   0.10160   0.00000  Uiso   1.00
O1306  O     0.96583   0.30665   0.89834   0.00000  Uiso   1.00
O1307  O     0.80763   0.46629   0.10250   0.00000  Uiso   1.00
O1308  O     0.69218   0.46669   0.89758   0.00000  Uiso   1.00
O1309  O     0.53025   0.30910   0.10181   0.00000  Uiso   1.00
O1310  O     0.53460   0.19326   0.89787   0.00000  Uiso   1.00
O1311  O     0.94266   0.28258   0.60085   0.00000  Uiso   1.00
O1312  O     0.55881   0.28000   0.39913   0.00000  Uiso   1.00
O1313  O     0.72568   0.43869   0.60064   0.00000  Uiso   1.00
O1314  O     0.96964   0.25000   0.66317   0.00000  Uiso   1.00
O1315  O     0.71363   0.05471   0.39881   0.00000  Uiso   1.00
O1316  O     0.55691   0.21485   0.60269   0.00000  Uiso   1.00
O1317  O     0.94146   0.21769   0.39760   0.00000  Uiso   1.00
O1318  O     0.77797   0.06071   0.60206   0.00000  Uiso   1.00
O1319  O     0.78853   0.44535   0.39698   0.00000  Uiso   1.00
O1320  O     0.75000   0.03036   0.33683   0.00000  Uiso   1.00
Zn1321 Zn    0.70660  -0.00000   0.21760   0.00000  Uiso   1.00
Zn1322 Zn    0.54340   0.25000   0.28240   0.00000  Uiso   1.00
Zn1323 Zn    0.75000   0.45660   0.71760   0.00000  Uiso   1.00
Zn1324 Zn    0.75000   0.04340   0.28240   0.00000  Uiso   1.00
Zn1325 Zn    0.54340   0.25000   0.71760   0.00000  Uiso   1.00
Zn1326 Zn    0.95660   0.25000   0.28240   0.00000  Uiso   1.00
Zn1327 Zn    0.75000   0.04340   0.71760   0.00000  Uiso   1.00
Zn1328 Zn    0.75000   0.45660   0.28240   0.00000  Uiso   1.00
Zn1329 Zn    0.79340  -0.00000   0.78240   0.00000  Uiso   1.00
Zn1330 Zn    0.50000   0.20660   0.21760   0.00000  Uiso   1.00
Zn1331 Zn    0.50000   0.29340   0.78240   0.00000  Uiso   1.00
Zn1332 Zn    0.79340  -0.00000   0.21760   0.00000  Uiso   1.00
Zn1333 Zn    0.70660  -0.00000   0.78240   0.00000  Uiso   1.00
Zn1334 Zn    0.50000   0.29340   0.21760   0.00000  Uiso   1.00
Zn1335 Zn    0.50000   0.20660   0.78240   0.00000  Uiso   1.00
Zn1336 Zn    0.95660   0.25000   0.71760   0.00000  Uiso   1.00
C1337  C     0.22103   0.51469   0.04093   0.00000  Uiso   1.00
C1338  C     0.02945   0.76348   0.45912   0.00000  Uiso   1.00
C1339  C     0.34722   0.90087   0.74962   0.00000  Uiso   1.00
C1340  C     0.40202   0.65192   0.25018   0.00000  Uiso   1.00
C1341  C     0.09893   0.84751   0.74944   0.00000  Uiso   1.00
C1342  C     0.34803   0.90177   0.24988   0.00000  Uiso   1.00
C1343  C     0.15185   0.59803   0.75005   0.00000  Uiso   1.00
C1344  C     0.09812   0.65196   0.74997   0.00000  Uiso   1.00
C1345  C     0.40154   0.84758   0.24987   0.00000  Uiso   1.00
C1346  C     0.15181   0.90220   0.75057   0.00000  Uiso   1.00
C1347  C     0.34800   0.59829   0.25040   0.00000  Uiso   1.00
C1348  C     0.40182   0.84790   0.75053   0.00000  Uiso   1.00
C1349  C     0.23817   0.96997   0.54069   0.00000  Uiso   1.00
C1350  C     0.09840   0.65206   0.24963   0.00000  Uiso   1.00
C1351  C     0.34809   0.59816   0.75009   0.00000  Uiso   1.00
C1352  C     0.15180   0.90214   0.24999   0.00000  Uiso   1.00
C1353  C     0.24993   0.99911   0.10218   0.00000  Uiso   1.00
C1354  C     0.25004   0.99926   0.89781   0.00000  Uiso   1.00
C1355  C     0.00016   0.75000   0.10216   0.00000  Uiso   1.00
C1356  C     0.00013   0.74993   0.89774   0.00000  Uiso   1.00
C1357  C     0.49994   0.74892   0.60223   0.00000  Uiso   1.00
C1358  C     0.00009   0.74888   0.39784   0.00000  Uiso   1.00
C1359  C     0.25139   0.99991   0.60205   0.00000  Uiso   1.00
C1360  C     0.23254   0.52679   0.45904   0.00000  Uiso   1.00
C1361  C     0.25101   0.50001   0.39764   0.00000  Uiso   1.00
C1362  C     0.19909   0.56714   0.01377   0.00000  Uiso   1.00
C1363  C     0.16387   0.58553   0.00063   0.00000  Uiso   1.00
C1364  C     0.30088   0.56718   0.98641   0.00000  Uiso   1.00
C1365  C     0.33622   0.58571   0.99898   0.00000  Uiso   1.00
C1366  C     0.42781   0.69722   0.02391   0.00000  Uiso   1.00
C1367  C     0.40980   0.68016   0.98857   0.00000  Uiso   1.00
C1368  C     0.42529   0.79919   0.97605   0.00000  Uiso   1.00
C1369  C     0.40640   0.81564   0.01124   0.00000  Uiso   1.00
C1370  C     0.30065   0.92346   0.02584   0.00000  Uiso   1.00
C1371  C     0.02770   0.72887   0.54180   0.00000  Uiso   1.00
C1372  C     0.31898   0.90411   0.99201   0.00000  Uiso   1.00
C1373  C     0.19929   0.92359   0.97414   0.00000  Uiso   1.00
C1374  C     0.18060   0.90425   0.00776   0.00000  Uiso   1.00
C1375  C     0.07307   0.80619   0.02759   0.00000  Uiso   1.00
C1376  C     0.09284   0.82017   0.99174   0.00000  Uiso   1.00
C1377  C     0.07535   0.70267   0.97814   0.00000  Uiso   1.00
C1378  C     0.09465   0.67708   0.00619   0.00000  Uiso   1.00
C1379  C     0.45056   0.81743   0.51325   0.00000  Uiso   1.00
C1380  C     0.41591   0.83640   0.49935   0.00000  Uiso   1.00
C1381  C     0.05268   0.81550   0.48602   0.00000  Uiso   1.00
C1382  C     0.47167   0.72993   0.45836   0.00000  Uiso   1.00
C1383  C     0.08857   0.83324   0.49811   0.00000  Uiso   1.00
C1384  C     0.18527   0.94158   0.52192   0.00000  Uiso   1.00
C1385  C     0.16972   0.92222   0.48659   0.00000  Uiso   1.00
C1386  C     0.17506   0.54542   0.47708   0.00000  Uiso   1.00
C1387  C     0.15605   0.55907   0.51352   0.00000  Uiso   1.00
C1388  C     0.04907   0.67202   0.52608   0.00000  Uiso   1.00
C1389  C     0.06685   0.65229   0.49217   0.00000  Uiso   1.00
C1390  C     0.44789   0.67406   0.47402   0.00000  Uiso   1.00
C1391  C     0.42858   0.65500   0.50743   0.00000  Uiso   1.00
C1392  C     0.32231   0.55829   0.52696   0.00000  Uiso   1.00
C1393  C     0.26833   0.52943   0.54139   0.00000  Uiso   1.00
C1394  C     0.34066   0.57678   0.49261   0.00000  Uiso   1.00
C1395  C     0.33111   0.95684   0.47452   0.00000  Uiso   1.00
C1396  C     0.35230   0.93641   0.50563   0.00000  Uiso   1.00
C1397  C     0.17257   0.88531   0.18157   0.00000  Uiso   1.00
C1398  C     0.15743   0.91161   0.15100   0.00000  Uiso   1.00
C1399  C     0.32205   0.61974   0.81480   0.00000  Uiso   1.00
C1400  C     0.28652   0.63948   0.80442   0.00000  Uiso   1.00
C1401  C     0.11966   0.67608   0.18363   0.00000  Uiso   1.00
C1402  C     0.15088   0.70387   0.18393   0.00000  Uiso   1.00
C1403  C     0.38356   0.82595   0.81804   0.00000  Uiso   1.00
C1404  C     0.27307   0.97376   0.45794   0.00000  Uiso   1.00
C1405  C     0.36333   0.79011   0.81053   0.00000  Uiso   1.00
C1406  C     0.35839   0.58417   0.32223   0.00000  Uiso   1.00
C1407  C     0.36700   0.54333   0.32026   0.00000  Uiso   1.00
C1408  C     0.17355   0.88409   0.81820   0.00000  Uiso   1.00
C1409  C     0.20968   0.86419   0.81089   0.00000  Uiso   1.00
C1410  C     0.42356   0.86531   0.31759   0.00000  Uiso   1.00
C1411  C     0.40541   0.84146   0.34848   0.00000  Uiso   1.00
C1412  C     0.12015   0.67812   0.81440   0.00000  Uiso   1.00
C1413  C     0.13981   0.71355   0.80363   0.00000  Uiso   1.00
C1414  C     0.17799   0.62016   0.81449   0.00000  Uiso   1.00
C1415  C     0.22014   0.51412   0.08150   0.00000  Uiso   1.00
C1416  C     0.16362   0.59704   0.84814   0.00000  Uiso   1.00
C1417  C     0.37080   0.92715   0.31446   0.00000  Uiso   1.00
C1418  C     0.39824   0.95759   0.30602   0.00000  Uiso   1.00
C1419  C     0.11367   0.82826   0.81892   0.00000  Uiso   1.00
C1420  C     0.08932   0.84661   0.84931   0.00000  Uiso   1.00
C1421  C     0.42302   0.63527   0.31889   0.00000  Uiso   1.00
C1422  C     0.44900   0.60279   0.32350   0.00000  Uiso   1.00
C1423  C     0.32815   0.88627   0.81919   0.00000  Uiso   1.00
C1424  C     0.34696   0.91028   0.84947   0.00000  Uiso   1.00
C1425  C     0.17602   0.61595   0.18331   0.00000  Uiso   1.00
C1426  C     0.27978   0.51439   0.91848   0.00000  Uiso   1.00
C1427  C     0.21587   0.62538   0.19333   0.00000  Uiso   1.00
C1428  C     0.37994   0.67764   0.81501   0.00000  Uiso   1.00
C1429  C     0.40333   0.66321   0.84842   0.00000  Uiso   1.00
C1430  C     0.11060   0.83224   0.17896   0.00000  Uiso   1.00
C1431  C     0.12571   0.79355   0.18161   0.00000  Uiso   1.00
C1432  C     0.42660   0.63169   0.68443   0.00000  Uiso   1.00
C1433  C     0.41075   0.65506   0.65176   0.00000  Uiso   1.00
C1434  C     0.07710   0.86497   0.31845   0.00000  Uiso   1.00
C1435  C     0.04029   0.88382   0.31175   0.00000  Uiso   1.00
C1436  C     0.35473   0.90912   0.67612   0.00000  Uiso   1.00
C1437  C     0.48493   0.72022   0.08172   0.00000  Uiso   1.00
C1438  C     0.36899   0.94783   0.66994   0.00000  Uiso   1.00
C1439  C     0.13040   0.57300   0.31523   0.00000  Uiso   1.00
C1440  C     0.11031   0.53762   0.30518   0.00000  Uiso   1.00
C1441  C     0.08957   0.85610   0.67634   0.00000  Uiso   1.00
C1442  C     0.05111   0.87138   0.67095   0.00000  Uiso   1.00
C1443  C     0.38469   0.67303   0.18199   0.00000  Uiso   1.00
C1444  C     0.36462   0.70908   0.18897   0.00000  Uiso   1.00
C1445  C     0.12955   0.57189   0.68569   0.00000  Uiso   1.00
C1446  C     0.15276   0.58605   0.65200   0.00000  Uiso   1.00
C1447  C     0.32318   0.88143   0.18423   0.00000  Uiso   1.00
C1448  C     0.27899   0.51480   0.95905   0.00000  Uiso   1.00
C1449  C     0.48342   0.77888   0.91824   0.00000  Uiso   1.00
C1450  C     0.28722   0.86207   0.19379   0.00000  Uiso   1.00
C1451  C     0.38124   0.82366   0.18382   0.00000  Uiso   1.00
C1452  C     0.40498   0.83902   0.15113   0.00000  Uiso   1.00
C1453  C     0.07176   0.62986   0.68566   0.00000  Uiso   1.00
C1454  C     0.03626   0.61023   0.69646   0.00000  Uiso   1.00
C1455  C     0.32867   0.61366   0.18111   0.00000  Uiso   1.00
C1456  C     0.34702   0.58927   0.15079   0.00000  Uiso   1.00
C1457  C     0.13057   0.92735   0.68541   0.00000  Uiso   1.00
C1458  C     0.11200   0.96259   0.69896   0.00000  Uiso   1.00
C1459  C     0.07307   0.63130   0.31508   0.00000  Uiso   1.00
C1460  C     0.27935   0.98263   0.08215   0.00000  Uiso   1.00
C1461  C     0.08807   0.65473   0.34815   0.00000  Uiso   1.00
C1462  C     0.42728   0.87055   0.68617   0.00000  Uiso   1.00
C1463  C     0.45956   0.89347   0.70028   0.00000  Uiso   1.00
C1464  C     0.13483   0.92289   0.31838   0.00000  Uiso   1.00
C1465  C     0.15971   0.90602   0.34925   0.00000  Uiso   1.00
C1466  C     0.37125   0.57180   0.68615   0.00000  Uiso   1.00
C1467  C     0.39535   0.53911   0.69633   0.00000  Uiso   1.00
C1468  C     0.16013   0.50920   0.09955   0.00000  Uiso   1.00
C1469  C     0.13302   0.52213   0.13007   0.00000  Uiso   1.00
C1470  C     0.33950   0.51038   0.89931   0.00000  Uiso   1.00
C1471  C     0.22063   0.98280   0.91786   0.00000  Uiso   1.00
C1472  C     0.36714   0.52599   0.87078   0.00000  Uiso   1.00
C1473  C     0.49099   0.66068   0.10004   0.00000  Uiso   1.00
C1474  C     0.47527   0.63139   0.12653   0.00000  Uiso   1.00
C1475  C     0.48712   0.83884   0.90072   0.00000  Uiso   1.00
C1476  C     0.47194   0.86700   0.87260   0.00000  Uiso   1.00
C1477  C     0.33929   0.98834   0.09959   0.00000  Uiso   1.00
C1478  C     0.36783   0.97458   0.12816   0.00000  Uiso   1.00
C1479  C     0.16084   0.98922   0.90024   0.00000  Uiso   1.00
C1480  C     0.13180   0.97511   0.87245   0.00000  Uiso   1.00
C1481  C     0.00614   0.83920   0.09876   0.00000  Uiso   1.00
C1482  C     0.01554   0.77979   0.08179   0.00000  Uiso   1.00
C1483  C     0.01768   0.86851   0.12749   0.00000  Uiso   1.00
C1484  C     0.01313   0.66117   0.89976   0.00000  Uiso   1.00
C1485  C     0.02922   0.63275   0.87248   0.00000  Uiso   1.00
C1486  C     0.41082   0.76060   0.60089   0.00000  Uiso   1.00
C1487  C     0.38277   0.77726   0.62828   0.00000  Uiso   1.00
C1488  C     0.08977   0.75679   0.39945   0.00000  Uiso   1.00
C1489  C     0.11785   0.77106   0.37062   0.00000  Uiso   1.00
C1490  C     0.25255   0.91087   0.60026   0.00000  Uiso   1.00
C1491  C     0.24088   0.88049   0.62769   0.00000  Uiso   1.00
C1492  C     0.23308   0.58807   0.40045   0.00000  Uiso   1.00
C1493  C     0.01701   0.72093   0.91795   0.00000  Uiso   1.00
C1494  C     0.21419   0.61587   0.37451   0.00000  Uiso   1.00
C1495  C     0.08892   0.73644   0.60028   0.00000  Uiso   1.00
C1496  C     0.11795   0.72034   0.62686   0.00000  Uiso   1.00
C1497  C     0.41070   0.74098   0.40047   0.00000  Uiso   1.00
C1498  C     0.38155   0.72824   0.37207   0.00000  Uiso   1.00
C1499  C     0.25221   0.58940   0.59891   0.00000  Uiso   1.00
C1500  C     0.26171   0.61904   0.62810   0.00000  Uiso   1.00
C1501  C     0.26891   0.91216   0.39975   0.00000  Uiso   1.00
C1502  C     0.28678   0.88396   0.37347   0.00000  Uiso   1.00
C1503  C     0.47043   0.76437   0.58147   0.00000  Uiso   1.00
C1504  C     0.03026   0.76308   0.41856   0.00000  Uiso   1.00
C1505  C     0.23924   0.96891   0.58127   0.00000  Uiso   1.00
C1506  C     0.23326   0.52812   0.41840   0.00000  Uiso   1.00
C1507  C     0.02905   0.73182   0.58229   0.00000  Uiso   1.00
C1508  C     0.48333   0.72137   0.04112   0.00000  Uiso   1.00
C1509  C     0.47034   0.73300   0.41788   0.00000  Uiso   1.00
C1510  C     0.26510   0.53064   0.58190   0.00000  Uiso   1.00
C1511  C     0.27001   0.97213   0.41747   0.00000  Uiso   1.00
C1512  C     0.24976   0.99713   0.02120   0.00000  Uiso   1.00
C1513  C     0.25033   0.99714   0.97878   0.00000  Uiso   1.00
C1514  C     0.00085   0.74981   0.02115   0.00000  Uiso   1.00
C1515  C     0.00074   0.74992   0.97871   0.00000  Uiso   1.00
C1516  C     0.49973   0.74661   0.52126   0.00000  Uiso   1.00
C1517  C     0.00037   0.74652   0.47884   0.00000  Uiso   1.00
C1518  C     0.25350   0.99979   0.52099   0.00000  Uiso   1.00
C1519  C     0.48186   0.77755   0.95885   0.00000  Uiso   1.00
C1520  C     0.25329   0.50028   0.47854   0.00000  Uiso   1.00
C1521  C     0.25010   0.50000   0.35522   0.00000  Uiso   1.00
C1522  C     0.25021   0.99999   0.64467   0.00000  Uiso   1.00
C1523  C     0.00000   0.74992   0.35531   0.00000  Uiso   1.00
C1524  C    -0.00000   0.74994   0.64471   0.00000  Uiso   1.00
C1525  C     0.00000   0.74999   0.85525   0.00000  Uiso   1.00
C1526  C     0.49996   0.75001   0.14471   0.00000  Uiso   1.00
C1527  C     0.25000   0.50002   0.85530   0.00000  Uiso   1.00
C1528  C     0.25000   0.99996   0.14470   0.00000  Uiso   1.00
C1529  C     0.17979   0.56968   0.25035   0.00000  Uiso   1.00
C1530  C     0.27805   0.97982   0.04164   0.00000  Uiso   1.00
C1531  C     0.32011   0.93006   0.74957   0.00000  Uiso   1.00
C1532  C     0.42995   0.68012   0.24987   0.00000  Uiso   1.00
C1533  C     0.06986   0.82023   0.74940   0.00000  Uiso   1.00
C1534  C     0.32003   0.93003   0.24999   0.00000  Uiso   1.00
C1535  C     0.18000   0.56995   0.75001   0.00000  Uiso   1.00
C1536  C     0.06992   0.82008   0.25001   0.00000  Uiso   1.00
C1537  C     0.42991   0.68018   0.75016   0.00000  Uiso   1.00
C1538  C     0.18015   0.92995   0.75033   0.00000  Uiso   1.00
C1539  C     0.32006   0.56996   0.25018   0.00000  Uiso   1.00
C1540  C     0.42992   0.81985   0.75025   0.00000  Uiso   1.00
C1541  C     0.22199   0.97989   0.95834   0.00000  Uiso   1.00
C1542  C     0.07026   0.68024   0.24967   0.00000  Uiso   1.00
C1543  C     0.32001   0.56997   0.75001   0.00000  Uiso   1.00
C1544  C     0.18002   0.93006   0.24999   0.00000  Uiso   1.00
C1545  C     0.07000   0.68004   0.74999   0.00000  Uiso   1.00
C1546  C     0.42982   0.81973   0.24977   0.00000  Uiso   1.00
C1547  C     0.14657   0.88100   0.21611   0.00000  Uiso   1.00
C1548  C     0.35009   0.62250   0.78193   0.00000  Uiso   1.00
C1549  C     0.12257   0.64920   0.21750   0.00000  Uiso   1.00
C1550  C     0.37945   0.85222   0.78375   0.00000  Uiso   1.00
C1551  C     0.36838   0.60456   0.28481   0.00000  Uiso   1.00
C1552  C     0.01803   0.77839   0.04120   0.00000  Uiso   1.00
C1553  C     0.14743   0.87984   0.78376   0.00000  Uiso   1.00
C1554  C     0.39834   0.87066   0.28255   0.00000  Uiso   1.00
C1555  C     0.12265   0.64998   0.78166   0.00000  Uiso   1.00
C1556  C     0.15000   0.62265   0.78164   0.00000  Uiso   1.00
C1557  C     0.37171   0.89862   0.28218   0.00000  Uiso   1.00
C1558  C     0.11958   0.85300   0.78372   0.00000  Uiso   1.00
C1559  C     0.39705   0.63062   0.28413   0.00000  Uiso   1.00
C1560  C     0.35273   0.88021   0.78387   0.00000  Uiso   1.00
C1561  C     0.14967   0.62147   0.21763   0.00000  Uiso   1.00
C1562  C     0.37738   0.64990   0.78195   0.00000  Uiso   1.00
C1563  C     0.01917   0.72222   0.95848   0.00000  Uiso   1.00
C1564  C     0.11850   0.85447   0.21564   0.00000  Uiso   1.00
C1565  C     0.39957   0.62807   0.71817   0.00000  Uiso   1.00
C1566  C     0.10274   0.86998   0.28365   0.00000  Uiso   1.00
C1567  C     0.36682   0.89319   0.71504   0.00000  Uiso   1.00
C1568  C     0.12789   0.60074   0.28209   0.00000  Uiso   1.00
C1569  C     0.10619   0.86762   0.71508   0.00000  Uiso   1.00
C1570  C     0.38027   0.64705   0.21658   0.00000  Uiso   1.00
C1571  C     0.12719   0.59992   0.71847   0.00000  Uiso   1.00
C1572  C     0.35063   0.87804   0.21757   0.00000  Uiso   1.00
C1573  C     0.37797   0.85068   0.21746   0.00000  Uiso   1.00
C1574  C     0.47133   0.76477   0.54091   0.00000  Uiso   1.00
C1575  C     0.09997   0.62737   0.71837   0.00000  Uiso   1.00
C1576  C     0.35336   0.61936   0.21644   0.00000  Uiso   1.00
C1577  C     0.12990   0.89796   0.71716   0.00000  Uiso   1.00
C1578  C     0.10065   0.62814   0.28183   0.00000  Uiso   1.00
C1579  C     0.39715   0.86954   0.71704   0.00000  Uiso   1.00
C1580  C     0.12996   0.89743   0.28357   0.00000  Uiso   1.00
C1581  C     0.37253   0.60047   0.71831   0.00000  Uiso   1.00
C1582  C     0.09778   0.84851   0.24987   0.00000  Uiso   1.00
C1583  C     0.40175   0.65219   0.75011   0.00000  Uiso   1.00
C1584  C     0.15193   0.59791   0.25006   0.00000  Uiso   1.00
H1585  H     0.21961   0.57009   0.99021   0.00000  Uiso   1.00
H1586  H     0.34694   0.57250   0.02563   0.00000  Uiso   1.00
H1587  H     0.37353   0.83753   0.84560   0.00000  Uiso   1.00
H1588  H     0.39326   0.53859   0.30485   0.00000  Uiso   1.00
H1589  H     0.34494   0.52796   0.30543   0.00000  Uiso   1.00
H1590  H     0.36921   0.53219   0.35008   0.00000  Uiso   1.00
H1591  H     0.37239   0.59503   0.34803   0.00000  Uiso   1.00
H1592  H     0.32900   0.58822   0.32917   0.00000  Uiso   1.00
H1593  H     0.20462   0.83461   0.80599   0.00000  Uiso   1.00
H1594  H     0.22397   0.87571   0.78528   0.00000  Uiso   1.00
H1595  H     0.22784   0.86730   0.83646   0.00000  Uiso   1.00
H1596  H     0.17914   0.91321   0.82458   0.00000  Uiso   1.00
H1597  H     0.41850   0.72622   0.02587   0.00000  Uiso   1.00
H1598  H     0.16186   0.87397   0.84568   0.00000  Uiso   1.00
H1599  H     0.42419   0.83842   0.37355   0.00000  Uiso   1.00
H1600  H     0.39922   0.81389   0.33684   0.00000  Uiso   1.00
H1601  H     0.37946   0.85388   0.35880   0.00000  Uiso   1.00
H1602  H     0.45010   0.85272   0.30934   0.00000  Uiso   1.00
H1603  H     0.43192   0.89164   0.33063   0.00000  Uiso   1.00
H1604  H     0.16913   0.70808   0.79724   0.00000  Uiso   1.00
H1605  H     0.12694   0.72641   0.77793   0.00000  Uiso   1.00
H1606  H     0.13814   0.73310   0.82816   0.00000  Uiso   1.00
H1607  H     0.09126   0.68427   0.82184   0.00000  Uiso   1.00
H1608  H     0.41826   0.68231   0.05007   0.00000  Uiso   1.00
H1609  H     0.13153   0.66788   0.84198   0.00000  Uiso   1.00
H1610  H     0.13759   0.60823   0.85973   0.00000  Uiso   1.00
H1611  H     0.15865   0.56851   0.83869   0.00000  Uiso   1.00
H1612  H     0.18420   0.59663   0.87178   0.00000  Uiso   1.00
H1613  H     0.20428   0.60824   0.80443   0.00000  Uiso   1.00
H1614  H     0.18603   0.64766   0.82494   0.00000  Uiso   1.00
H1615  H     0.42568   0.94645   0.29879   0.00000  Uiso   1.00
H1616  H     0.38857   0.97423   0.28116   0.00000  Uiso   1.00
H1617  H     0.40108   0.97521   0.33195   0.00000  Uiso   1.00
H1618  H     0.34337   0.93955   0.31836   0.00000  Uiso   1.00
H1619  H     0.41746   0.65085   0.98634   0.00000  Uiso   1.00
H1620  H     0.37662   0.91490   0.34310   0.00000  Uiso   1.00
H1621  H     0.10099   0.87308   0.85893   0.00000  Uiso   1.00
H1622  H     0.06158   0.85178   0.83745   0.00000  Uiso   1.00
H1623  H     0.08665   0.82841   0.87489   0.00000  Uiso   1.00
H1624  H     0.10108   0.80174   0.81087   0.00000  Uiso   1.00
H1625  H     0.14016   0.81995   0.83191   0.00000  Uiso   1.00
H1626  H     0.43444   0.57831   0.33422   0.00000  Uiso   1.00
H1627  H     0.46248   0.59640   0.29546   0.00000  Uiso   1.00
H1628  H     0.47058   0.60965   0.34496   0.00000  Uiso   1.00
H1629  H     0.44100   0.65943   0.31661   0.00000  Uiso   1.00
H1630  H     0.37954   0.68231   0.99106   0.00000  Uiso   1.00
H1631  H     0.40765   0.64066   0.34597   0.00000  Uiso   1.00
H1632  H     0.37336   0.89828   0.85896   0.00000  Uiso   1.00
H1633  H     0.35248   0.93787   0.83749   0.00000  Uiso   1.00
H1634  H     0.32884   0.91317   0.87513   0.00000  Uiso   1.00
H1635  H     0.30168   0.89917   0.81131   0.00000  Uiso   1.00
H1636  H     0.31960   0.85990   0.83218   0.00000  Uiso   1.00
H1637  H     0.23108   0.63245   0.16649   0.00000  Uiso   1.00
H1638  H     0.21734   0.64897   0.21349   0.00000  Uiso   1.00
H1639  H     0.23006   0.60172   0.20660   0.00000  Uiso   1.00
H1640  H     0.17450   0.58731   0.17289   0.00000  Uiso   1.00
H1641  H     0.41886   0.69463   0.96195   0.00000  Uiso   1.00
H1642  H     0.16858   0.63208   0.15753   0.00000  Uiso   1.00
H1643  H     0.39231   0.63710   0.85985   0.00000  Uiso   1.00
H1644  H     0.43192   0.65848   0.83877   0.00000  Uiso   1.00
H1645  H     0.40371   0.68359   0.87223   0.00000  Uiso   1.00
H1646  H     0.39171   0.70399   0.80507   0.00000  Uiso   1.00
H1647  H     0.35240   0.68549   0.82571   0.00000  Uiso   1.00
H1648  H     0.15573   0.79419   0.18678   0.00000  Uiso   1.00
H1649  H     0.11224   0.77794   0.20514   0.00000  Uiso   1.00
H1650  H     0.12034   0.77927   0.15384   0.00000  Uiso   1.00
H1651  H     0.08090   0.83137   0.17269   0.00000  Uiso   1.00
H1652  H     0.41725   0.76981   0.97423   0.00000  Uiso   1.00
H1653  H     0.12196   0.84469   0.15247   0.00000  Uiso   1.00
H1654  H     0.38508   0.64301   0.64028   0.00000  Uiso   1.00
H1655  H     0.40464   0.68307   0.66219   0.00000  Uiso   1.00
H1656  H     0.43094   0.65701   0.62778   0.00000  Uiso   1.00
H1657  H     0.45295   0.64394   0.69379   0.00000  Uiso   1.00
H1658  H     0.43491   0.60466   0.67295   0.00000  Uiso   1.00
H1659  H     0.04442   0.91350   0.30658   0.00000  Uiso   1.00
H1660  H     0.02585   0.87180   0.28653   0.00000  Uiso   1.00
H1661  H     0.02266   0.88036   0.33771   0.00000  Uiso   1.00
H1662  H     0.07253   0.83571   0.32497   0.00000  Uiso   1.00
H1663  H     0.41523   0.81355   0.94978   0.00000  Uiso   1.00
H1664  H     0.08877   0.87548   0.34574   0.00000  Uiso   1.00
H1665  H     0.35767   0.96648   0.69224   0.00000  Uiso   1.00
H1666  H     0.36027   0.95785   0.64103   0.00000  Uiso   1.00
H1667  H     0.39935   0.94835   0.67133   0.00000  Uiso   1.00
H1668  H     0.36285   0.89149   0.65153   0.00000  Uiso   1.00
H1669  H     0.32462   0.90877   0.67300   0.00000  Uiso   1.00
H1670  H     0.08101   0.54327   0.29901   0.00000  Uiso   1.00
H1671  H     0.12287   0.52432   0.27953   0.00000  Uiso   1.00
H1672  H     0.11200   0.51836   0.32997   0.00000  Uiso   1.00
H1673  H     0.15926   0.56660   0.32243   0.00000  Uiso   1.00
H1674  H     0.41281   0.84526   0.01334   0.00000  Uiso   1.00
H1675  H     0.11938   0.58365   0.34281   0.00000  Uiso   1.00
H1676  H     0.04062   0.86370   0.64191   0.00000  Uiso   1.00
H1677  H     0.05127   0.90164   0.67338   0.00000  Uiso   1.00
H1678  H     0.03247   0.85982   0.69316   0.00000  Uiso   1.00
H1679  H     0.10720   0.86381   0.65157   0.00000  Uiso   1.00
H1680  H     0.08895   0.82608   0.67306   0.00000  Uiso   1.00
H1681  H     0.33497   0.70399   0.19379   0.00000  Uiso   1.00
H1682  H     0.37601   0.72351   0.21452   0.00000  Uiso   1.00
H1683  H     0.36780   0.72706   0.16328   0.00000  Uiso   1.00
H1684  H     0.41385   0.67863   0.17560   0.00000  Uiso   1.00
H1685  H     0.37627   0.81220   0.00866   0.00000  Uiso   1.00
H1686  H     0.37475   0.66127   0.15449   0.00000  Uiso   1.00
H1687  H     0.15329   0.56535   0.62849   0.00000  Uiso   1.00
H1688  H     0.18130   0.59115   0.66153   0.00000  Uiso   1.00
H1689  H     0.14155   0.61192   0.64019   0.00000  Uiso   1.00
H1690  H     0.14140   0.54565   0.69580   0.00000  Uiso   1.00
H1691  H     0.10195   0.56396   0.67527   0.00000  Uiso   1.00
H1692  H     0.29223   0.83266   0.19971   0.00000  Uiso   1.00
H1693  H     0.27393   0.87463   0.21945   0.00000  Uiso   1.00
H1694  H     0.26818   0.86439   0.16885   0.00000  Uiso   1.00
H1695  H     0.31755   0.91042   0.17714   0.00000  Uiso   1.00
H1696  H     0.20896   0.58152   0.04027   0.00000  Uiso   1.00
H1697  H     0.41594   0.80170   0.03797   0.00000  Uiso   1.00
H1698  H     0.33382   0.87036   0.15667   0.00000  Uiso   1.00
H1699  H     0.39383   0.86520   0.14003   0.00000  Uiso   1.00
H1700  H     0.43332   0.84396   0.16142   0.00000  Uiso   1.00
H1701  H     0.40606   0.81909   0.12692   0.00000  Uiso   1.00
H1702  H     0.39311   0.79720   0.19326   0.00000  Uiso   1.00
H1703  H     0.35391   0.81580   0.17258   0.00000  Uiso   1.00
H1704  H     0.04176   0.58104   0.70306   0.00000  Uiso   1.00
H1705  H     0.02328   0.62321   0.72205   0.00000  Uiso   1.00
H1706  H     0.01676   0.61170   0.67186   0.00000  Uiso   1.00
H1707  H     0.06558   0.65868   0.67824   0.00000  Uiso   1.00
H1708  H     0.27126   0.91509   0.02636   0.00000  Uiso   1.00
H1709  H     0.08202   0.61849   0.65807   0.00000  Uiso   1.00
H1710  H     0.37376   0.60063   0.14141   0.00000  Uiso   1.00
H1711  H     0.35182   0.56149   0.16262   0.00000  Uiso   1.00
H1712  H     0.32895   0.58689   0.12507   0.00000  Uiso   1.00
H1713  H     0.30196   0.60128   0.18901   0.00000  Uiso   1.00
H1714  H     0.32050   0.64013   0.16809   0.00000  Uiso   1.00
H1715  H     0.08350   0.95681   0.70845   0.00000  Uiso   1.00
H1716  H     0.12712   0.97548   0.72316   0.00000  Uiso   1.00
H1717  H     0.11103   0.98245   0.67467   0.00000  Uiso   1.00
H1718  H     0.15907   0.93318   0.67608   0.00000  Uiso   1.00
H1719  H     0.31395   0.91418   0.05304   0.00000  Uiso   1.00
H1720  H     0.11614   0.91948   0.65867   0.00000  Uiso   1.00
H1721  H     0.11387   0.64320   0.35989   0.00000  Uiso   1.00
H1722  H     0.09372   0.68292   0.33800   0.00000  Uiso   1.00
H1723  H     0.06757   0.65609   0.37187   0.00000  Uiso   1.00
H1724  H     0.04670   0.64324   0.30532   0.00000  Uiso   1.00
H1725  H     0.06494   0.60401   0.32608   0.00000  Uiso   1.00
H1726  H     0.44999   0.92069   0.71033   0.00000  Uiso   1.00
H1727  H     0.47399   0.87961   0.72442   0.00000  Uiso   1.00
H1728  H     0.47905   0.89776   0.67607   0.00000  Uiso   1.00
H1729  H     0.43673   0.84266   0.67849   0.00000  Uiso   1.00
H1730  H     0.34862   0.91093   0.99120   0.00000  Uiso   1.00
H1731  H     0.41863   0.88259   0.65840   0.00000  Uiso   1.00
H1732  H     0.14909   0.87925   0.35928   0.00000  Uiso   1.00
H1733  H     0.18774   0.90177   0.33773   0.00000  Uiso   1.00
H1734  H     0.16148   0.92471   0.37451   0.00000  Uiso   1.00
H1735  H     0.14646   0.94971   0.30978   0.00000  Uiso   1.00
H1736  H     0.10800   0.93043   0.33116   0.00000  Uiso   1.00
H1737  H     0.42357   0.54800   0.70371   0.00000  Uiso   1.00
H1738  H     0.38366   0.52412   0.72142   0.00000  Uiso   1.00
H1739  H     0.39691   0.52041   0.67111   0.00000  Uiso   1.00
H1740  H     0.34302   0.56207   0.68048   0.00000  Uiso   1.00
H1741  H     0.31588   0.87406   0.99521   0.00000  Uiso   1.00
H1742  H     0.37990   0.58306   0.65786   0.00000  Uiso   1.00
H1743  H     0.16648   0.97990   0.10535   0.00000  Uiso   1.00
H1744  H     0.14671   0.51149   0.07081   0.00000  Uiso   1.00
H1745  H     0.12592   0.55128   0.12511   0.00000  Uiso   1.00
H1746  H     0.10764   0.50545   0.12853   0.00000  Uiso   1.00
H1747  H     0.14509   0.51912   0.15938   0.00000  Uiso   1.00
H1748  H     0.33341   0.98169   0.89059   0.00000  Uiso   1.00
H1749  H     0.35230   0.51027   0.92848   0.00000  Uiso   1.00
H1750  H     0.37392   0.55464   0.87867   0.00000  Uiso   1.00
H1751  H     0.39259   0.50937   0.87131   0.00000  Uiso   1.00
H1752  H     0.30607   0.91279   0.96438   0.00000  Uiso   1.00
H1753  H     0.35565   0.52546   0.84106   0.00000  Uiso   1.00
H1754  H     0.01935   0.66705   0.10999   0.00000  Uiso   1.00
H1755  H     0.49219   0.64941   0.07017   0.00000  Uiso   1.00
H1756  H     0.44693   0.62442   0.11745   0.00000  Uiso   1.00
H1757  H     0.49251   0.60641   0.12507   0.00000  Uiso   1.00
H1758  H     0.47476   0.64139   0.15687   0.00000  Uiso   1.00
H1759  H     0.01630   0.83360   0.89289   0.00000  Uiso   1.00
H1760  H     0.48590   0.85060   0.93036   0.00000  Uiso   1.00
H1761  H     0.44278   0.87283   0.87946   0.00000  Uiso   1.00
H1762  H     0.48792   0.89274   0.87482   0.00000  Uiso   1.00
H1763  H     0.22867   0.91516   0.97391   0.00000  Uiso   1.00
H1764  H     0.47393   0.85658   0.84249   0.00000  Uiso   1.00
H1765  H     0.33324   0.51746   0.10664   0.00000  Uiso   1.00
H1766  H     0.35118   0.98677   0.07000   0.00000  Uiso   1.00
H1767  H     0.37460   0.94556   0.12195   0.00000  Uiso   1.00
H1768  H     0.39313   0.99128   0.12571   0.00000  Uiso   1.00
H1769  H     0.35716   0.97679   0.15817   0.00000  Uiso   1.00
H1770  H     0.16721   0.51808   0.89225   0.00000  Uiso   1.00
H1771  H     0.14927   0.98860   0.93002   0.00000  Uiso   1.00
H1772  H     0.12477   0.94633   0.87957   0.00000  Uiso   1.00
H1773  H     0.10672   0.99215   0.87477   0.00000  Uiso   1.00
H1774  H     0.18623   0.91435   0.94679   0.00000  Uiso   1.00
H1775  H     0.14213   0.97643   0.84225   0.00000  Uiso   1.00
H1776  H     0.47731   0.83130   0.10547   0.00000  Uiso   1.00
H1777  H     0.00724   0.85114   0.06918   0.00000  Uiso   1.00
H1778  H     0.04635   0.87712   0.12166   0.00000  Uiso   1.00
H1779  H     0.49939   0.89263   0.12477   0.00000  Uiso   1.00
H1780  H     0.01573   0.85778   0.15749   0.00000  Uiso   1.00
H1781  H     0.48427   0.66648   0.89080   0.00000  Uiso   1.00
H1782  H     0.01323   0.64961   0.92953   0.00000  Uiso   1.00
H1783  H     0.05803   0.62674   0.88064   0.00000  Uiso   1.00
H1784  H     0.01297   0.60714   0.87414   0.00000  Uiso   1.00
H1785  H     0.15096   0.91110   0.00824   0.00000  Uiso   1.00
H1786  H     0.02856   0.64305   0.84227   0.00000  Uiso   1.00
H1787  H     0.41680   0.73225   0.61091   0.00000  Uiso   1.00
H1788  H     0.39845   0.75937   0.57153   0.00000  Uiso   1.00
H1789  H     0.37598   0.80552   0.61897   0.00000  Uiso   1.00
H1790  H     0.35739   0.76053   0.62820   0.00000  Uiso   1.00
H1791  H     0.39391   0.77805   0.65815   0.00000  Uiso   1.00
H1792  H     0.08255   0.72826   0.39105   0.00000  Uiso   1.00
H1793  H     0.10270   0.75643   0.42857   0.00000  Uiso   1.00
H1794  H     0.12570   0.79954   0.37811   0.00000  Uiso   1.00
H1795  H     0.14268   0.75354   0.37125   0.00000  Uiso   1.00
H1796  H     0.18371   0.87420   0.00459   0.00000  Uiso   1.00
H1797  H     0.10624   0.77061   0.34094   0.00000  Uiso   1.00
H1798  H     0.27974   0.92127   0.61011   0.00000  Uiso   1.00
H1799  H     0.25545   0.89910   0.57073   0.00000  Uiso   1.00
H1800  H     0.21406   0.86910   0.61847   0.00000  Uiso   1.00
H1801  H     0.26166   0.85832   0.62747   0.00000  Uiso   1.00
H1802  H     0.23834   0.89131   0.65761   0.00000  Uiso   1.00
H1803  H     0.26184   0.58471   0.39009   0.00000  Uiso   1.00
H1804  H     0.23343   0.59915   0.43042   0.00000  Uiso   1.00
H1805  H     0.18530   0.61967   0.38385   0.00000  Uiso   1.00
H1806  H     0.22865   0.64252   0.37629   0.00000  Uiso   1.00
H1807  H     0.14267   0.58320   0.02359   0.00000  Uiso   1.00
H1808  H     0.19324   0.91292   0.03553   0.00000  Uiso   1.00
H1809  H     0.21463   0.60631   0.34403   0.00000  Uiso   1.00
H1810  H     0.08357   0.76514   0.60961   0.00000  Uiso   1.00
H1811  H     0.10001   0.73661   0.57028   0.00000  Uiso   1.00
H1812  H     0.12401   0.69170   0.61828   0.00000  Uiso   1.00
H1813  H     0.14348   0.73673   0.62489   0.00000  Uiso   1.00
H1814  H     0.10809   0.72066   0.65727   0.00000  Uiso   1.00
H1815  H     0.41788   0.76981   0.39323   0.00000  Uiso   1.00
H1816  H     0.39886   0.74005   0.43013   0.00000  Uiso   1.00
H1817  H     0.37333   0.69970   0.37878   0.00000  Uiso   1.00
H1818  H     0.35711   0.74621   0.37419   0.00000  Uiso   1.00
H1819  H     0.08426   0.77859   0.03463   0.00000  Uiso   1.00
H1820  H     0.39236   0.72944   0.34204   0.00000  Uiso   1.00
H1821  H     0.22380   0.57982   0.60510   0.00000  Uiso   1.00
H1822  H     0.25304   0.60163   0.56945   0.00000  Uiso   1.00
H1823  H     0.28977   0.62956   0.62251   0.00000  Uiso   1.00
H1824  H     0.24189   0.64194   0.62565   0.00000  Uiso   1.00
H1825  H     0.26044   0.60782   0.65795   0.00000  Uiso   1.00
H1826  H     0.23988   0.91566   0.39043   0.00000  Uiso   1.00
H1827  H     0.26940   0.90138   0.42985   0.00000  Uiso   1.00
H1828  H     0.31573   0.87963   0.38224   0.00000  Uiso   1.00
H1829  H     0.27183   0.85761   0.37559   0.00000  Uiso   1.00
H1830  H     0.07923   0.82501   0.05197   0.00000  Uiso   1.00
H1831  H     0.28605   0.89351   0.34299   0.00000  Uiso   1.00
H1832  H     0.08336   0.84823   0.98464   0.00000  Uiso   1.00
H1833  H     0.12284   0.82083   0.99707   0.00000  Uiso   1.00
H1834  H     0.08718   0.80188   0.96678   0.00000  Uiso   1.00
H1835  H     0.08119   0.73128   0.98725   0.00000  Uiso   1.00
H1836  H     0.08684   0.69809   0.94870   0.00000  Uiso   1.00
H1837  H     0.09001   0.64821   0.99750   0.00000  Uiso   1.00
H1838  H     0.12455   0.68268   0.00603   0.00000  Uiso   1.00
H1839  H     0.16905   0.61492   0.99471   0.00000  Uiso   1.00
H1840  H     0.08390   0.68130   0.03595   0.00000  Uiso   1.00
H1841  H     0.47142   0.81965   0.48994   0.00000  Uiso   1.00
H1842  H     0.46041   0.83193   0.53968   0.00000  Uiso   1.00
H1843  H     0.39437   0.83480   0.52203   0.00000  Uiso   1.00
H1844  H     0.42178   0.86560   0.49312   0.00000  Uiso   1.00
H1845  H     0.40574   0.82310   0.47252   0.00000  Uiso   1.00
H1846  H     0.03271   0.81907   0.51001   0.00000  Uiso   1.00
H1847  H     0.04255   0.82992   0.45965   0.00000  Uiso   1.00
H1848  H     0.10918   0.83028   0.47465   0.00000  Uiso   1.00
H1849  H     0.08414   0.86277   0.50389   0.00000  Uiso   1.00
H1850  H     0.15364   0.57234   0.97376   0.00000  Uiso   1.00
H1851  H     0.09913   0.82002   0.52483   0.00000  Uiso   1.00
H1852  H     0.17381   0.96985   0.52250   0.00000  Uiso   1.00
H1853  H     0.17601   0.92681   0.54828   0.00000  Uiso   1.00
H1854  H     0.17966   0.89354   0.48558   0.00000  Uiso   1.00
H1855  H     0.13932   0.92212   0.48801   0.00000  Uiso   1.00
H1856  H     0.17849   0.93660   0.45980   0.00000  Uiso   1.00
H1857  H     0.16848   0.51579   0.47372   0.00000  Uiso   1.00
H1858  H     0.16378   0.56051   0.45185   0.00000  Uiso   1.00
H1859  H     0.16095   0.58883   0.51718   0.00000  Uiso   1.00
H1860  H     0.12610   0.55417   0.51134   0.00000  Uiso   1.00
H1861  H     0.28072   0.56996   0.01035   0.00000  Uiso   1.00
H1862  H     0.16686   0.54434   0.53922   0.00000  Uiso   1.00
H1863  H     0.01949   0.66432   0.52669   0.00000  Uiso   1.00
H1864  H     0.06222   0.66241   0.55324   0.00000  Uiso   1.00
H1865  H     0.09664   0.65842   0.49128   0.00000  Uiso   1.00
H1866  H     0.06304   0.62232   0.49534   0.00000  Uiso   1.00
H1867  H     0.05408   0.66132   0.46459   0.00000  Uiso   1.00
H1868  H     0.47710   0.66508   0.47403   0.00000  Uiso   1.00
H1869  H     0.43486   0.66514   0.44653   0.00000  Uiso   1.00
H1870  H     0.39906   0.66235   0.50764   0.00000  Uiso   1.00
H1871  H     0.43121   0.62491   0.50423   0.00000  Uiso   1.00
H1872  H     0.29051   0.58162   0.96016   0.00000  Uiso   1.00
H1873  H     0.44113   0.66341   0.53534   0.00000  Uiso   1.00
H1874  H     0.33411   0.53026   0.52977   0.00000  Uiso   1.00
H1875  H     0.32900   0.57413   0.55347   0.00000  Uiso   1.00
H1876  H     0.33048   0.60526   0.48962   0.00000  Uiso   1.00
H1877  H     0.37079   0.57742   0.49695   0.00000  Uiso   1.00
H1878  H     0.33449   0.56145   0.46563   0.00000  Uiso   1.00
H1879  H     0.33637   0.98663   0.47836   0.00000  Uiso   1.00
H1880  H     0.34168   0.94817   0.44575   0.00000  Uiso   1.00
H1881  H     0.34843   0.90648   0.50214   0.00000  Uiso   1.00
H1882  H     0.38195   0.94282   0.50320   0.00000  Uiso   1.00
H1883  H     0.35706   0.58352   0.97564   0.00000  Uiso   1.00
H1884  H     0.34245   0.94477   0.53476   0.00000  Uiso   1.00
H1885  H     0.12952   0.90377   0.14151   0.00000  Uiso   1.00
H1886  H     0.15598   0.93983   0.16242   0.00000  Uiso   1.00
H1887  H     0.17580   0.91161   0.12536   0.00000  Uiso   1.00
H1888  H     0.19997   0.89519   0.19075   0.00000  Uiso   1.00
H1889  H     0.17870   0.85840   0.16825   0.00000  Uiso   1.00
H1890  H     0.29201   0.66873   0.79808   0.00000  Uiso   1.00
H1891  H     0.27344   0.62672   0.77878   0.00000  Uiso   1.00
H1892  H     0.26712   0.63781   0.82914   0.00000  Uiso   1.00
H1893  H     0.31589   0.59087   0.82202   0.00000  Uiso   1.00
H1894  H     0.33100   0.61506   0.00507   0.00000  Uiso   1.00
H1895  H     0.33246   0.63088   0.84242   0.00000  Uiso   1.00
H1896  H     0.14942   0.72075   0.21060   0.00000  Uiso   1.00
H1897  H     0.14853   0.72177   0.15817   0.00000  Uiso   1.00
H1898  H     0.17806   0.69070   0.18267   0.00000  Uiso   1.00
H1899  H     0.11838   0.66132   0.15564   0.00000  Uiso   1.00
H1900  H     0.09394   0.69206   0.18376   0.00000  Uiso   1.00
H1901  H     0.33371   0.79541   0.80583   0.00000  Uiso   1.00
H1902  H     0.37469   0.77601   0.78473   0.00000  Uiso   1.00
H1903  H     0.36642   0.77175   0.83592   0.00000  Uiso   1.00
H1904  H     0.41270   0.82007   0.82429   0.00000  Uiso   1.00
O1905  O     0.25000   0.50000   0.25000   0.00000  Uiso   1.00
O1906  O     0.25000   0.96964   0.66317   0.00000  Uiso   1.00
O1907  O     0.46964   0.75000   0.33683   0.00000  Uiso   1.00
O1908  O     0.03036   0.75000   0.66317   0.00000  Uiso   1.00
O1909  O     0.00000   0.71964   0.83683   0.00000  Uiso   1.00
O1910  O     0.00000   0.78036   0.16317   0.00000  Uiso   1.00
O1911  O     0.28036   0.50000   0.83683   0.00000  Uiso   1.00
O1912  O     0.21964   0.50000   0.16317   0.00000  Uiso   1.00
O1913  O     0.00000   0.78036   0.83683   0.00000  Uiso   1.00
O1914  O     0.00000   0.71964   0.16317   0.00000  Uiso   1.00
O1915  O     0.21964   0.50000   0.83683   0.00000  Uiso   1.00
O1916  O     0.25000   0.50000   0.75000   0.00000  Uiso   1.00
O1917  O     0.28036   0.50000   0.16317   0.00000  Uiso   1.00
O1918  O     0.20726   0.57307   0.27282   0.00000  Uiso   1.00
O1919  O     0.29275   0.92693   0.72718   0.00000  Uiso   1.00
O1920  O     0.42693   0.70725   0.27282   0.00000  Uiso   1.00
O1921  O     0.07307   0.79274   0.72718   0.00000  Uiso   1.00
O1922  O     0.29275   0.92693   0.27282   0.00000  Uiso   1.00
O1923  O     0.20726   0.57307   0.72718   0.00000  Uiso   1.00
O1924  O     0.07307   0.79274   0.27282   0.00000  Uiso   1.00
O1925  O     0.42693   0.70725   0.72718   0.00000  Uiso   1.00
O1926  O     0.20726   0.92693   0.72718   0.00000  Uiso   1.00
O1927  O     0.00000   0.75000   0.25000   0.00000  Uiso   1.00
O1928  O     0.29275   0.57307   0.27282   0.00000  Uiso   1.00
O1929  O     0.42693   0.79274   0.72718   0.00000  Uiso   1.00
O1930  O     0.07307   0.70725   0.27282   0.00000  Uiso   1.00
O1931  O     0.29275   0.57307   0.72718   0.00000  Uiso   1.00
O1932  O     0.20726   0.92693   0.27282   0.00000  Uiso   1.00
O1933  O     0.07307   0.70725   0.72718   0.00000  Uiso   1.00
O1934  O     0.42693   0.79274   0.27282   0.00000  Uiso   1.00
O1935  O     0.45726   0.82307   0.77282   0.00000  Uiso   1.00
O1936  O     0.04275   0.67693   0.22718   0.00000  Uiso   1.00
O1937  O     0.17693   0.95725   0.77282   0.00000  Uiso   1.00
O1938  O     0.00000   0.75000   0.75000   0.00000  Uiso   1.00
O1939  O     0.32307   0.54274   0.22718   0.00000  Uiso   1.00
O1940  O     0.04275   0.67693   0.77282   0.00000  Uiso   1.00
O1941  O     0.45726   0.82307   0.22718   0.00000  Uiso   1.00
O1942  O     0.32307   0.54274   0.77282   0.00000  Uiso   1.00
O1943  O     0.17693   0.95725   0.22718   0.00000  Uiso   1.00
O1944  O     0.45726   0.67693   0.22718   0.00000  Uiso   1.00
O1945  O     0.04275   0.82307   0.77282   0.00000  Uiso   1.00
O1946  O     0.17693   0.54274   0.22718   0.00000  Uiso   1.00
O1947  O     0.32307   0.95725   0.77282   0.00000  Uiso   1.00
O1948  O     0.04275   0.82307   0.22718   0.00000  Uiso   1.00
O1949  O     0.25000   0.96964   0.33683   0.00000  Uiso   1.00
O1950  O     0.45726   0.67693   0.77282   0.00000  Uiso   1.00
O1951  O     0.32307   0.95725   0.22718   0.00000  Uiso   1.00
O1952  O     0.17693   0.54274   0.77282   0.00000  Uiso   1.00
O1953  O     0.19205   0.52979   0.02063   0.00000  Uiso   1.00
O1954  O     0.30800   0.52988   0.97931   0.00000  Uiso   1.00
O1955  O     0.46624   0.69385   0.02033   0.00000  Uiso   1.00
O1956  O     0.46352   0.80420   0.97976   0.00000  Uiso   1.00
O1957  O     0.30526   0.96159   0.02141   0.00000  Uiso   1.00
O1958  O     0.19473   0.96172   0.97856   0.00000  Uiso   1.00
O1959  O     0.03494   0.80605   0.02033   0.00000  Uiso   1.00
O1960  O     0.25000   0.53036   0.66317   0.00000  Uiso   1.00
O1961  O     0.03743   0.69514   0.97873   0.00000  Uiso   1.00
O1962  O     0.44261   0.78035   0.52060   0.00000  Uiso   1.00
O1963  O     0.05877   0.77794   0.47940   0.00000  Uiso   1.00
O1964  O     0.22392   0.94099   0.51975   0.00000  Uiso   1.00
O1965  O     0.21303   0.55235   0.48030   0.00000  Uiso   1.00
O1966  O     0.05457   0.71003   0.52169   0.00000  Uiso   1.00
O1967  O     0.44405   0.71226   0.47852   0.00000  Uiso   1.00
O1968  O     0.28399   0.55808   0.52102   0.00000  Uiso   1.00
O1969  O     0.29356   0.94813   0.47794   0.00000  Uiso   1.00
O1970  O     0.19184   0.53137   0.10106   0.00000  Uiso   1.00
O1971  O     0.03036   0.75000   0.33683   0.00000  Uiso   1.00
O1972  O     0.30765   0.53235   0.89898   0.00000  Uiso   1.00
O1973  O     0.46824   0.69188   0.10160   0.00000  Uiso   1.00
O1974  O     0.46583   0.80665   0.89834   0.00000  Uiso   1.00
O1975  O     0.30763   0.96629   0.10250   0.00000  Uiso   1.00
O1976  O     0.19218   0.96669   0.89758   0.00000  Uiso   1.00
O1977  O     0.03025   0.80910   0.10181   0.00000  Uiso   1.00
O1978  O     0.03460   0.69326   0.89787   0.00000  Uiso   1.00
O1979  O     0.44266   0.78258   0.60085   0.00000  Uiso   1.00
O1980  O     0.05881   0.78000   0.39913   0.00000  Uiso   1.00
O1981  O     0.22568   0.93869   0.60064   0.00000  Uiso   1.00
O1982  O     0.46964   0.75000   0.66317   0.00000  Uiso   1.00
O1983  O     0.21363   0.55471   0.39881   0.00000  Uiso   1.00
O1984  O     0.05691   0.71485   0.60269   0.00000  Uiso   1.00
O1985  O     0.44146   0.71769   0.39760   0.00000  Uiso   1.00
O1986  O     0.27797   0.56071   0.60206   0.00000  Uiso   1.00
O1987  O     0.28853   0.94535   0.39698   0.00000  Uiso   1.00
O1988  O     0.25000   0.53036   0.33683   0.00000  Uiso   1.00
Zn1989 Zn    0.20660   0.50000   0.21760   0.00000  Uiso   1.00
Zn1990 Zn    0.04340   0.75000   0.28240   0.00000  Uiso   1.00
Zn1991 Zn    0.25000   0.95660   0.71760   0.00000  Uiso   1.00
Zn1992 Zn    0.25000   0.54340   0.28240   0.00000  Uiso   1.00
Zn1993 Zn    0.04340   0.75000   0.71760   0.00000  Uiso   1.00
Zn1994 Zn    0.45660   0.75000   0.28240   0.00000  Uiso   1.00
Zn1995 Zn    0.25000   0.54340   0.71760   0.00000  Uiso   1.00
Zn1996 Zn    0.25000   0.95660   0.28240   0.00000  Uiso   1.00
Zn1997 Zn    0.29340   0.50000   0.78240   0.00000  Uiso   1.00
Zn1998 Zn    0.00000   0.70660   0.21760   0.00000  Uiso   1.00
Zn1999 Zn    0.00000   0.79340   0.78240   0.00000  Uiso   1.00
Zn2000 Zn    0.29340   0.50000   0.21760   0.00000  Uiso   1.00
Zn2001 Zn    0.20660   0.50000   0.78240   0.00000  Uiso   1.00
Zn2002 Zn    0.00000   0.79340   0.21760   0.00000  Uiso   1.00
Zn2003 Zn    0.00000   0.70660   0.78240   0.00000  Uiso   1.00
Zn2004 Zn    0.45660   0.75000   0.71760   0.00000  Uiso   1.00
C2005  C     0.72103   0.51469   0.04093   0.00000  Uiso   1.00
C2006  C     0.52945   0.76348   0.45912   0.00000  Uiso   1.00
C2007  C     0.84722   0.90087   0.74962   0.00000  Uiso   1.00
C2008  C     0.90202   0.65192   0.25018   0.00000  Uiso   1.00
C2009  C     0.59893   0.84751   0.74944   0.00000  Uiso   1.00
C2010  C     0.84803   0.90177   0.24988   0.00000  Uiso   1.00
C2011  C     0.65185   0.59803   0.75005   0.00000  Uiso   1.00
C2012  C     0.59812   0.65196   0.74997   0.00000  Uiso   1.00
C2013  C     0.90154   0.84758   0.24987   0.00000  Uiso   1.00
C2014  C     0.65181   0.90220   0.75057   0.00000  Uiso   1.00
C2015  C     0.84800   0.59829   0.25040   0.00000  Uiso   1.00
C2016  C     0.90182   0.84790   0.75053   0.00000  Uiso   1.00
C2017  C     0.73817   0.96997   0.54069   0.00000  Uiso   1.00
C2018  C     0.59840   0.65206   0.24963   0.00000  Uiso   1.00
C2019  C     0.84809   0.59816   0.75009   0.00000  Uiso   1.00
C2020  C     0.65180   0.90214   0.24999   0.00000  Uiso   1.00
C2021  C     0.74993   0.99911   0.10218   0.00000  Uiso   1.00
C2022  C     0.75004   0.99926   0.89781   0.00000  Uiso   1.00
C2023  C     0.50016   0.75000   0.10216   0.00000  Uiso   1.00
C2024  C     0.50013   0.74993   0.89774   0.00000  Uiso   1.00
C2025  C     0.99994   0.74892   0.60223   0.00000  Uiso   1.00
C2026  C     0.50009   0.74888   0.39784   0.00000  Uiso   1.00
C2027  C     0.75139   0.99991   0.60205   0.00000  Uiso   1.00
C2028  C     0.73254   0.52679   0.45904   0.00000  Uiso   1.00
C2029  C     0.75101   0.50001   0.39764   0.00000  Uiso   1.00
C2030  C     0.69909   0.56714   0.01377   0.00000  Uiso   1.00
C2031  C     0.66387   0.58553   0.00063   0.00000  Uiso   1.00
C2032  C     0.80088   0.56718   0.98641   0.00000  Uiso   1.00
C2033  C     0.83622   0.58571   0.99898   0.00000  Uiso   1.00
C2034  C     0.92781   0.69722   0.02391   0.00000  Uiso   1.00
C2035  C     0.90980   0.68016   0.98857   0.00000  Uiso   1.00
C2036  C     0.92529   0.79919   0.97605   0.00000  Uiso   1.00
C2037  C     0.90640   0.81564   0.01124   0.00000  Uiso   1.00
C2038  C     0.80065   0.92346   0.02584   0.00000  Uiso   1.00
C2039  C     0.52770   0.72887   0.54180   0.00000  Uiso   1.00
C2040  C     0.81898   0.90411   0.99201   0.00000  Uiso   1.00
C2041  C     0.69929   0.92359   0.97414   0.00000  Uiso   1.00
C2042  C     0.68060   0.90425   0.00776   0.00000  Uiso   1.00
C2043  C     0.57307   0.80619   0.02759   0.00000  Uiso   1.00
C2044  C     0.59284   0.82017   0.99174   0.00000  Uiso   1.00
C2045  C     0.57535   0.70267   0.97814   0.00000  Uiso   1.00
C2046  C     0.59465   0.67708   0.00619   0.00000  Uiso   1.00
C2047  C     0.95056   0.81743   0.51325   0.00000  Uiso   1.00
C2048  C     0.91591   0.83640   0.49935   0.00000  Uiso   1.00
C2049  C     0.55268   0.81550   0.48602   0.00000  Uiso   1.00
C2050  C     0.97167   0.72993   0.45836   0.00000  Uiso   1.00
C2051  C     0.58857   0.83324   0.49811   0.00000  Uiso   1.00
C2052  C     0.68527   0.94158   0.52192   0.00000  Uiso   1.00
C2053  C     0.66972   0.92222   0.48659   0.00000  Uiso   1.00
C2054  C     0.67506   0.54542   0.47708   0.00000  Uiso   1.00
C2055  C     0.65605   0.55907   0.51352   0.00000  Uiso   1.00
C2056  C     0.54907   0.67202   0.52608   0.00000  Uiso   1.00
C2057  C     0.56685   0.65229   0.49217   0.00000  Uiso   1.00
C2058  C     0.94789   0.67406   0.47402   0.00000  Uiso   1.00
C2059  C     0.92858   0.65500   0.50743   0.00000  Uiso   1.00
C2060  C     0.82231   0.55829   0.52696   0.00000  Uiso   1.00
C2061  C     0.76833   0.52943   0.54139   0.00000  Uiso   1.00
C2062  C     0.84066   0.57678   0.49261   0.00000  Uiso   1.00
C2063  C     0.83111   0.95684   0.47452   0.00000  Uiso   1.00
C2064  C     0.85230   0.93641   0.50563   0.00000  Uiso   1.00
C2065  C     0.67257   0.88531   0.18157   0.00000  Uiso   1.00
C2066  C     0.65743   0.91161   0.15100   0.00000  Uiso   1.00
C2067  C     0.82205   0.61974   0.81480   0.00000  Uiso   1.00
C2068  C     0.78652   0.63948   0.80442   0.00000  Uiso   1.00
C2069  C     0.61966   0.67608   0.18363   0.00000  Uiso   1.00
C2070  C     0.65088   0.70387   0.18393   0.00000  Uiso   1.00
C2071  C     0.88356   0.82595   0.81804   0.00000  Uiso   1.00
C2072  C     0.77307   0.97376   0.45794   0.00000  Uiso   1.00
C2073  C     0.86333   0.79011   0.81053   0.00000  Uiso   1.00
C2074  C     0.85839   0.58417   0.32223   0.00000  Uiso   1.00
C2075  C     0.86700   0.54333   0.32026   0.00000  Uiso   1.00
C2076  C     0.67355   0.88409   0.81820   0.00000  Uiso   1.00
C2077  C     0.70968   0.86419   0.81089   0.00000  Uiso   1.00
C2078  C     0.92356   0.86531   0.31759   0.00000  Uiso   1.00
C2079  C     0.90541   0.84146   0.34848   0.00000  Uiso   1.00
C2080  C     0.62015   0.67812   0.81440   0.00000  Uiso   1.00
C2081  C     0.63981   0.71355   0.80363   0.00000  Uiso   1.00
C2082  C     0.67799   0.62016   0.81449   0.00000  Uiso   1.00
C2083  C     0.72014   0.51412   0.08150   0.00000  Uiso   1.00
C2084  C     0.66362   0.59704   0.84814   0.00000  Uiso   1.00
C2085  C     0.87080   0.92715   0.31446   0.00000  Uiso   1.00
C2086  C     0.89824   0.95759   0.30602   0.00000  Uiso   1.00
C2087  C     0.61367   0.82826   0.81892   0.00000  Uiso   1.00
C2088  C     0.58932   0.84661   0.84931   0.00000  Uiso   1.00
C2089  C     0.92302   0.63527   0.31889   0.00000  Uiso   1.00
C2090  C     0.94900   0.60279   0.32350   0.00000  Uiso   1.00
C2091  C     0.82815   0.88627   0.81919   0.00000  Uiso   1.00
C2092  C     0.84696   0.91028   0.84947   0.00000  Uiso   1.00
C2093  C     0.67602   0.61595   0.18331   0.00000  Uiso   1.00
C2094  C     0.77978   0.51439   0.91848   0.00000  Uiso   1.00
C2095  C     0.71587   0.62538   0.19333   0.00000  Uiso   1.00
C2096  C     0.87994   0.67764   0.81501   0.00000  Uiso   1.00
C2097  C     0.90333   0.66321   0.84842   0.00000  Uiso   1.00
C2098  C     0.61060   0.83224   0.17896   0.00000  Uiso   1.00
C2099  C     0.62571   0.79355   0.18161   0.00000  Uiso   1.00
C2100  C     0.92660   0.63169   0.68443   0.00000  Uiso   1.00
C2101  C     0.91075   0.65506   0.65176   0.00000  Uiso   1.00
C2102  C     0.57710   0.86497   0.31845   0.00000  Uiso   1.00
C2103  C     0.54029   0.88382   0.31175   0.00000  Uiso   1.00
C2104  C     0.85473   0.90912   0.67612   0.00000  Uiso   1.00
C2105  C     0.98493   0.72022   0.08172   0.00000  Uiso   1.00
C2106  C     0.86899   0.94783   0.66994   0.00000  Uiso   1.00
C2107  C     0.63040   0.57300   0.31523   0.00000  Uiso   1.00
C2108  C     0.61031   0.53762   0.30518   0.00000  Uiso   1.00
C2109  C     0.58957   0.85610   0.67634   0.00000  Uiso   1.00
C2110  C     0.55111   0.87138   0.67095   0.00000  Uiso   1.00
C2111  C     0.88469   0.67303   0.18199   0.00000  Uiso   1.00
C2112  C     0.86462   0.70908   0.18897   0.00000  Uiso   1.00
C2113  C     0.62955   0.57189   0.68569   0.00000  Uiso   1.00
C2114  C     0.65276   0.58605   0.65200   0.00000  Uiso   1.00
C2115  C     0.82318   0.88143   0.18423   0.00000  Uiso   1.00
C2116  C     0.77899   0.51480   0.95905   0.00000  Uiso   1.00
C2117  C     0.98342   0.77888   0.91824   0.00000  Uiso   1.00
C2118  C     0.78722   0.86207   0.19379   0.00000  Uiso   1.00
C2119  C     0.88124   0.82366   0.18382   0.00000  Uiso   1.00
C2120  C     0.90498   0.83902   0.15113   0.00000  Uiso   1.00
C2121  C     0.57176   0.62986   0.68566   0.00000  Uiso   1.00
C2122  C     0.53626   0.61023   0.69646   0.00000  Uiso   1.00
C2123  C     0.82867   0.61366   0.18111   0.00000  Uiso   1.00
C2124  C     0.84702   0.58927   0.15079   0.00000  Uiso   1.00
C2125  C     0.63057   0.92735   0.68541   0.00000  Uiso   1.00
C2126  C     0.61200   0.96259   0.69896   0.00000  Uiso   1.00
C2127  C     0.57307   0.63130   0.31508   0.00000  Uiso   1.00
C2128  C     0.77935   0.98263   0.08215   0.00000  Uiso   1.00
C2129  C     0.58807   0.65473   0.34815   0.00000  Uiso   1.00
C2130  C     0.92728   0.87055   0.68617   0.00000  Uiso   1.00
C2131  C     0.95956   0.89347   0.70028   0.00000  Uiso   1.00
C2132  C     0.63483   0.92289   0.31838   0.00000  Uiso   1.00
C2133  C     0.65971   0.90602   0.34925   0.00000  Uiso   1.00
C2134  C     0.87125   0.57180   0.68615   0.00000  Uiso   1.00
C2135  C     0.89535   0.53911   0.69633   0.00000  Uiso   1.00
C2136  C     0.66013   0.50920   0.09955   0.00000  Uiso   1.00
C2137  C     0.63302   0.52213   0.13007   0.00000  Uiso   1.00
C2138  C     0.83950   0.51038   0.89931   0.00000  Uiso   1.00
C2139  C     0.72063   0.98280   0.91786   0.00000  Uiso   1.00
C2140  C     0.86714   0.52599   0.87078   0.00000  Uiso   1.00
C2141  C     0.99099   0.66068   0.10004   0.00000  Uiso   1.00
C2142  C     0.97527   0.63139   0.12653   0.00000  Uiso   1.00
C2143  C     0.98712   0.83884   0.90072   0.00000  Uiso   1.00
C2144  C     0.97194   0.86700   0.87260   0.00000  Uiso   1.00
C2145  C     0.83929   0.98834   0.09959   0.00000  Uiso   1.00
C2146  C     0.86783   0.97458   0.12816   0.00000  Uiso   1.00
C2147  C     0.66084   0.98922   0.90024   0.00000  Uiso   1.00
C2148  C     0.63180   0.97511   0.87245   0.00000  Uiso   1.00
C2149  C     0.50614   0.83920   0.09876   0.00000  Uiso   1.00
C2150  C     0.51554   0.77979   0.08179   0.00000  Uiso   1.00
C2151  C     0.51768   0.86851   0.12749   0.00000  Uiso   1.00
C2152  C     0.51313   0.66117   0.89976   0.00000  Uiso   1.00
C2153  C     0.52922   0.63275   0.87248   0.00000  Uiso   1.00
C2154  C     0.91082   0.76060   0.60089   0.00000  Uiso   1.00
C2155  C     0.88277   0.77726   0.62828   0.00000  Uiso   1.00
C2156  C     0.58977   0.75679   0.39945   0.00000  Uiso   1.00
C2157  C     0.61785   0.77106   0.37062   0.00000  Uiso   1.00
C2158  C     0.75255   0.91087   0.60026   0.00000  Uiso   1.00
C2159  C     0.74088   0.88049   0.62769   0.00000  Uiso   1.00
C2160  C     0.73308   0.58807   0.40045   0.00000  Uiso   1.00
C2161  C     0.51701   0.72093   0.91795   0.00000  Uiso   1.00
C2162  C     0.71419   0.61587   0.37451   0.00000  Uiso   1.00
C2163  C     0.58892   0.73644   0.60028   0.00000  Uiso   1.00
C2164  C     0.61795   0.72034   0.62686   0.00000  Uiso   1.00
C2165  C     0.91070   0.74098   0.40047   0.00000  Uiso   1.00
C2166  C     0.88155   0.72824   0.37207   0.00000  Uiso   1.00
C2167  C     0.75221   0.58940   0.59891   0.00000  Uiso   1.00
C2168  C     0.76171   0.61904   0.62810   0.00000  Uiso   1.00
C2169  C     0.76891   0.91216   0.39975   0.00000  Uiso   1.00
C2170  C     0.78678   0.88396   0.37347   0.00000  Uiso   1.00
C2171  C     0.97043   0.76437   0.58147   0.00000  Uiso   1.00
C2172  C     0.53026   0.76308   0.41856   0.00000  Uiso   1.00
C2173  C     0.73924   0.96891   0.58127   0.00000  Uiso   1.00
C2174  C     0.73326   0.52812   0.41840   0.00000  Uiso   1.00
C2175  C     0.52905   0.73182   0.58229   0.00000  Uiso   1.00
C2176  C     0.98333   0.72137   0.04112   0.00000  Uiso   1.00
C2177  C     0.97034   0.73300   0.41788   0.00000  Uiso   1.00
C2178  C     0.76510   0.53064   0.58190   0.00000  Uiso   1.00
C2179  C     0.77001   0.97213   0.41747   0.00000  Uiso   1.00
C2180  C     0.74976   0.99713   0.02120   0.00000  Uiso   1.00
C2181  C     0.75033   0.99714   0.97878   0.00000  Uiso   1.00
C2182  C     0.50085   0.74981   0.02115   0.00000  Uiso   1.00
C2183  C     0.50074   0.74992   0.97871   0.00000  Uiso   1.00
C2184  C     0.99973   0.74661   0.52126   0.00000  Uiso   1.00
C2185  C     0.50037   0.74652   0.47884   0.00000  Uiso   1.00
C2186  C     0.75350   0.99979   0.52099   0.00000  Uiso   1.00
C2187  C     0.98186   0.77755   0.95885   0.00000  Uiso   1.00
C2188  C     0.75329   0.50028   0.47854   0.00000  Uiso   1.00
C2189  C     0.75010   0.50000   0.35522   0.00000  Uiso   1.00
C2190  C     0.75021   0.99999   0.64467   0.00000  Uiso   1.00
C2191  C     0.50000   0.74992   0.35531   0.00000  Uiso   1.00
C2192  C     0.50000   0.74994   0.64471   0.00000  Uiso   1.00
C2193  C     0.50000   0.74999   0.85525   0.00000  Uiso   1.00
C2194  C     0.99996   0.75001   0.14471   0.00000  Uiso   1.00
C2195  C     0.75000   0.50002   0.85530   0.00000  Uiso   1.00
C2196  C     0.75000   0.99996   0.14470   0.00000  Uiso   1.00
C2197  C     0.67979   0.56968   0.25035   0.00000  Uiso   1.00
C2198  C     0.77805   0.97982   0.04164   0.00000  Uiso   1.00
C2199  C     0.82011   0.93006   0.74957   0.00000  Uiso   1.00
C2200  C     0.92995   0.68012   0.24987   0.00000  Uiso   1.00
C2201  C     0.56986   0.82023   0.74940   0.00000  Uiso   1.00
C2202  C     0.82003   0.93003   0.24999   0.00000  Uiso   1.00
C2203  C     0.68000   0.56995   0.75001   0.00000  Uiso   1.00
C2204  C     0.56992   0.82008   0.25001   0.00000  Uiso   1.00
C2205  C     0.92991   0.68018   0.75016   0.00000  Uiso   1.00
C2206  C     0.68015   0.92995   0.75033   0.00000  Uiso   1.00
C2207  C     0.82006   0.56996   0.25018   0.00000  Uiso   1.00
C2208  C     0.92992   0.81985   0.75025   0.00000  Uiso   1.00
C2209  C     0.72199   0.97989   0.95834   0.00000  Uiso   1.00
C2210  C     0.57026   0.68024   0.24967   0.00000  Uiso   1.00
C2211  C     0.82001   0.56997   0.75001   0.00000  Uiso   1.00
C2212  C     0.68002   0.93006   0.24999   0.00000  Uiso   1.00
C2213  C     0.57000   0.68004   0.74999   0.00000  Uiso   1.00
C2214  C     0.92982   0.81973   0.24977   0.00000  Uiso   1.00
C2215  C     0.64657   0.88100   0.21611   0.00000  Uiso   1.00
C2216  C     0.85009   0.62250   0.78193   0.00000  Uiso   1.00
C2217  C     0.62257   0.64920   0.21750   0.00000  Uiso   1.00
C2218  C     0.87945   0.85222   0.78375   0.00000  Uiso   1.00
C2219  C     0.86838   0.60456   0.28481   0.00000  Uiso   1.00
C2220  C     0.51803   0.77839   0.04120   0.00000  Uiso   1.00
C2221  C     0.64743   0.87984   0.78376   0.00000  Uiso   1.00
C2222  C     0.89834   0.87066   0.28255   0.00000  Uiso   1.00
C2223  C     0.62265   0.64998   0.78166   0.00000  Uiso   1.00
C2224  C     0.65000   0.62265   0.78164   0.00000  Uiso   1.00
C2225  C     0.87171   0.89862   0.28218   0.00000  Uiso   1.00
C2226  C     0.61958   0.85300   0.78372   0.00000  Uiso   1.00
C2227  C     0.89705   0.63062   0.28413   0.00000  Uiso   1.00
C2228  C     0.85273   0.88021   0.78387   0.00000  Uiso   1.00
C2229  C     0.64967   0.62147   0.21763   0.00000  Uiso   1.00
C2230  C     0.87738   0.64990   0.78195   0.00000  Uiso   1.00
C2231  C     0.51917   0.72222   0.95848   0.00000  Uiso   1.00
C2232  C     0.61850   0.85447   0.21564   0.00000  Uiso   1.00
C2233  C     0.89957   0.62807   0.71817   0.00000  Uiso   1.00
C2234  C     0.60274   0.86998   0.28365   0.00000  Uiso   1.00
C2235  C     0.86682   0.89319   0.71504   0.00000  Uiso   1.00
C2236  C     0.62789   0.60074   0.28209   0.00000  Uiso   1.00
C2237  C     0.60619   0.86762   0.71508   0.00000  Uiso   1.00
C2238  C     0.88027   0.64705   0.21658   0.00000  Uiso   1.00
C2239  C     0.62719   0.59992   0.71847   0.00000  Uiso   1.00
C2240  C     0.85063   0.87804   0.21757   0.00000  Uiso   1.00
C2241  C     0.87797   0.85068   0.21746   0.00000  Uiso   1.00
C2242  C     0.97133   0.76477   0.54091   0.00000  Uiso   1.00
C2243  C     0.59997   0.62737   0.71837   0.00000  Uiso   1.00
C2244  C     0.85336   0.61936   0.21644   0.00000  Uiso   1.00
C2245  C     0.62990   0.89796   0.71716   0.00000  Uiso   1.00
C2246  C     0.60065   0.62814   0.28183   0.00000  Uiso   1.00
C2247  C     0.89715   0.86954   0.71704   0.00000  Uiso   1.00
C2248  C     0.62996   0.89743   0.28357   0.00000  Uiso   1.00
C2249  C     0.87253   0.60047   0.71831   0.00000  Uiso   1.00
C2250  C     0.59778   0.84851   0.24987   0.00000  Uiso   1.00
C2251  C     0.90175   0.65219   0.75011   0.00000  Uiso   1.00
C2252  C     0.65193   0.59791   0.25006   0.00000  Uiso   1.00
H2253  H     0.71961   0.57009   0.99021   0.00000  Uiso   1.00
H2254  H     0.84694   0.57250   0.02563   0.00000  Uiso   1.00
H2255  H     0.87353   0.83753   0.84560   0.00000  Uiso   1.00
H2256  H     0.89326   0.53859   0.30485   0.00000  Uiso   1.00
H2257  H     0.84494   0.52796   0.30543   0.00000  Uiso   1.00
H2258  H     0.86921   0.53219   0.35008   0.00000  Uiso   1.00
H2259  H     0.87239   0.59503   0.34803   0.00000  Uiso   1.00
H2260  H     0.82900   0.58822   0.32917   0.00000  Uiso   1.00
H2261  H     0.70462   0.83461   0.80599   0.00000  Uiso   1.00
H2262  H     0.72397   0.87571   0.78528   0.00000  Uiso   1.00
H2263  H     0.72784   0.86730   0.83646   0.00000  Uiso   1.00
H2264  H     0.67914   0.91321   0.82458   0.00000  Uiso   1.00
H2265  H     0.91850   0.72622   0.02587   0.00000  Uiso   1.00
H2266  H     0.66186   0.87397   0.84568   0.00000  Uiso   1.00
H2267  H     0.92419   0.83842   0.37355   0.00000  Uiso   1.00
H2268  H     0.89922   0.81389   0.33684   0.00000  Uiso   1.00
H2269  H     0.87946   0.85388   0.35880   0.00000  Uiso   1.00
H2270  H     0.95010   0.85272   0.30934   0.00000  Uiso   1.00
H2271  H     0.93192   0.89164   0.33063   0.00000  Uiso   1.00
H2272  H     0.66913   0.70808   0.79724   0.00000  Uiso   1.00
H2273  H     0.62694   0.72641   0.77793   0.00000  Uiso   1.00
H2274  H     0.63814   0.73310   0.82816   0.00000  Uiso   1.00
H2275  H     0.59126   0.68427   0.82184   0.00000  Uiso   1.00
H2276  H     0.91826   0.68231   0.05007   0.00000  Uiso   1.00
H2277  H     0.63153   0.66788   0.84198   0.00000  Uiso   1.00
H2278  H     0.63759   0.60823   0.85973   0.00000  Uiso   1.00
H2279  H     0.65865   0.56851   0.83869   0.00000  Uiso   1.00
H2280  H     0.68420   0.59663   0.87178   0.00000  Uiso   1.00
H2281  H     0.70428   0.60824   0.80443   0.00000  Uiso   1.00
H2282  H     0.68603   0.64766   0.82494   0.00000  Uiso   1.00
H2283  H     0.92568   0.94645   0.29879   0.00000  Uiso   1.00
H2284  H     0.88857   0.97423   0.28116   0.00000  Uiso   1.00
H2285  H     0.90108   0.97521   0.33195   0.00000  Uiso   1.00
H2286  H     0.84337   0.93955   0.31836   0.00000  Uiso   1.00
H2287  H     0.91746   0.65085   0.98634   0.00000  Uiso   1.00
H2288  H     0.87662   0.91490   0.34310   0.00000  Uiso   1.00
H2289  H     0.60099   0.87308   0.85893   0.00000  Uiso   1.00
H2290  H     0.56158   0.85178   0.83745   0.00000  Uiso   1.00
H2291  H     0.58665   0.82841   0.87489   0.00000  Uiso   1.00
H2292  H     0.60108   0.80174   0.81087   0.00000  Uiso   1.00
H2293  H     0.64016   0.81995   0.83191   0.00000  Uiso   1.00
H2294  H     0.93444   0.57831   0.33422   0.00000  Uiso   1.00
H2295  H     0.96248   0.59640   0.29546   0.00000  Uiso   1.00
H2296  H     0.97058   0.60965   0.34496   0.00000  Uiso   1.00
H2297  H     0.94100   0.65943   0.31661   0.00000  Uiso   1.00
H2298  H     0.87954   0.68231   0.99106   0.00000  Uiso   1.00
H2299  H     0.90765   0.64066   0.34597   0.00000  Uiso   1.00
H2300  H     0.87336   0.89828   0.85896   0.00000  Uiso   1.00
H2301  H     0.85248   0.93787   0.83749   0.00000  Uiso   1.00
H2302  H     0.82884   0.91317   0.87513   0.00000  Uiso   1.00
H2303  H     0.80168   0.89917   0.81131   0.00000  Uiso   1.00
H2304  H     0.81960   0.85990   0.83218   0.00000  Uiso   1.00
H2305  H     0.73108   0.63245   0.16649   0.00000  Uiso   1.00
H2306  H     0.71734   0.64897   0.21349   0.00000  Uiso   1.00
H2307  H     0.73006   0.60172   0.20660   0.00000  Uiso   1.00
H2308  H     0.67450   0.58731   0.17289   0.00000  Uiso   1.00
H2309  H     0.91886   0.69463   0.96195   0.00000  Uiso   1.00
H2310  H     0.66858   0.63208   0.15753   0.00000  Uiso   1.00
H2311  H     0.89231   0.63710   0.85985   0.00000  Uiso   1.00
H2312  H     0.93192   0.65848   0.83877   0.00000  Uiso   1.00
H2313  H     0.90371   0.68359   0.87223   0.00000  Uiso   1.00
H2314  H     0.89171   0.70399   0.80507   0.00000  Uiso   1.00
H2315  H     0.85240   0.68549   0.82571   0.00000  Uiso   1.00
H2316  H     0.65573   0.79419   0.18678   0.00000  Uiso   1.00
H2317  H     0.61224   0.77794   0.20514   0.00000  Uiso   1.00
H2318  H     0.62034   0.77927   0.15384   0.00000  Uiso   1.00
H2319  H     0.58090   0.83137   0.17269   0.00000  Uiso   1.00
H2320  H     0.91725   0.76981   0.97423   0.00000  Uiso   1.00
H2321  H     0.62196   0.84469   0.15247   0.00000  Uiso   1.00
H2322  H     0.88508   0.64301   0.64028   0.00000  Uiso   1.00
H2323  H     0.90464   0.68307   0.66219   0.00000  Uiso   1.00
H2324  H     0.93094   0.65701   0.62778   0.00000  Uiso   1.00
H2325  H     0.95295   0.64394   0.69379   0.00000  Uiso   1.00
H2326  H     0.93491   0.60466   0.67295   0.00000  Uiso   1.00
H2327  H     0.54442   0.91350   0.30658   0.00000  Uiso   1.00
H2328  H     0.52585   0.87180   0.28653   0.00000  Uiso   1.00
H2329  H     0.52266   0.88036   0.33771   0.00000  Uiso   1.00
H2330  H     0.57253   0.83571   0.32497   0.00000  Uiso   1.00
H2331  H     0.91523   0.81355   0.94978   0.00000  Uiso   1.00
H2332  H     0.58877   0.87548   0.34574   0.00000  Uiso   1.00
H2333  H     0.85767   0.96648   0.69224   0.00000  Uiso   1.00
H2334  H     0.86027   0.95785   0.64103   0.00000  Uiso   1.00
H2335  H     0.89935   0.94835   0.67133   0.00000  Uiso   1.00
H2336  H     0.86285   0.89149   0.65153   0.00000  Uiso   1.00
H2337  H     0.82462   0.90877   0.67300   0.00000  Uiso   1.00
H2338  H     0.58101   0.54327   0.29901   0.00000  Uiso   1.00
H2339  H     0.62287   0.52432   0.27953   0.00000  Uiso   1.00
H2340  H     0.61200   0.51836   0.32997   0.00000  Uiso   1.00
H2341  H     0.65926   0.56660   0.32243   0.00000  Uiso   1.00
H2342  H     0.91281   0.84526   0.01334   0.00000  Uiso   1.00
H2343  H     0.61938   0.58365   0.34281   0.00000  Uiso   1.00
H2344  H     0.54062   0.86370   0.64191   0.00000  Uiso   1.00
H2345  H     0.55127   0.90164   0.67338   0.00000  Uiso   1.00
H2346  H     0.53247   0.85982   0.69316   0.00000  Uiso   1.00
H2347  H     0.60720   0.86381   0.65157   0.00000  Uiso   1.00
H2348  H     0.58895   0.82608   0.67306   0.00000  Uiso   1.00
H2349  H     0.83497   0.70399   0.19379   0.00000  Uiso   1.00
H2350  H     0.87601   0.72351   0.21452   0.00000  Uiso   1.00
H2351  H     0.86780   0.72706   0.16328   0.00000  Uiso   1.00
H2352  H     0.91385   0.67863   0.17560   0.00000  Uiso   1.00
H2353  H     0.87627   0.81220   0.00866   0.00000  Uiso   1.00
H2354  H     0.87475   0.66127   0.15449   0.00000  Uiso   1.00
H2355  H     0.65329   0.56535   0.62849   0.00000  Uiso   1.00
H2356  H     0.68130   0.59115   0.66153   0.00000  Uiso   1.00
H2357  H     0.64155   0.61192   0.64019   0.00000  Uiso   1.00
H2358  H     0.64140   0.54565   0.69580   0.00000  Uiso   1.00
H2359  H     0.60195   0.56396   0.67527   0.00000  Uiso   1.00
H2360  H     0.79223   0.83266   0.19971   0.00000  Uiso   1.00
H2361  H     0.77393   0.87463   0.21945   0.00000  Uiso   1.00
H2362  H     0.76818   0.86439   0.16885   0.00000  Uiso   1.00
H2363  H     0.81755   0.91042   0.17714   0.00000  Uiso   1.00
H2364  H     0.70896   0.58152   0.04027   0.00000  Uiso   1.00
H2365  H     0.91594   0.80170   0.03797   0.00000  Uiso   1.00
H2366  H     0.83382   0.87036   0.15667   0.00000  Uiso   1.00
H2367  H     0.89383   0.86520   0.14003   0.00000  Uiso   1.00
H2368  H     0.93332   0.84396   0.16142   0.00000  Uiso   1.00
H2369  H     0.90606   0.81909   0.12692   0.00000  Uiso   1.00
H2370  H     0.89311   0.79720   0.19326   0.00000  Uiso   1.00
H2371  H     0.85391   0.81580   0.17258   0.00000  Uiso   1.00
H2372  H     0.54176   0.58104   0.70306   0.00000  Uiso   1.00
H2373  H     0.52328   0.62321   0.72205   0.00000  Uiso   1.00
H2374  H     0.51676   0.61170   0.67186   0.00000  Uiso   1.00
H2375  H     0.56558   0.65868   0.67824   0.00000  Uiso   1.00
H2376  H     0.77126   0.91509   0.02636   0.00000  Uiso   1.00
H2377  H     0.58202   0.61849   0.65807   0.00000  Uiso   1.00
H2378  H     0.87376   0.60063   0.14141   0.00000  Uiso   1.00
H2379  H     0.85182   0.56149   0.16262   0.00000  Uiso   1.00
H2380  H     0.82895   0.58689   0.12507   0.00000  Uiso   1.00
H2381  H     0.80196   0.60128   0.18901   0.00000  Uiso   1.00
H2382  H     0.82050   0.64013   0.16809   0.00000  Uiso   1.00
H2383  H     0.58350   0.95681   0.70845   0.00000  Uiso   1.00
H2384  H     0.62712   0.97548   0.72316   0.00000  Uiso   1.00
H2385  H     0.61103   0.98245   0.67467   0.00000  Uiso   1.00
H2386  H     0.65907   0.93318   0.67608   0.00000  Uiso   1.00
H2387  H     0.81395   0.91418   0.05304   0.00000  Uiso   1.00
H2388  H     0.61614   0.91948   0.65867   0.00000  Uiso   1.00
H2389  H     0.61387   0.64320   0.35989   0.00000  Uiso   1.00
H2390  H     0.59372   0.68292   0.33800   0.00000  Uiso   1.00
H2391  H     0.56757   0.65609   0.37187   0.00000  Uiso   1.00
H2392  H     0.54670   0.64324   0.30532   0.00000  Uiso   1.00
H2393  H     0.56494   0.60401   0.32608   0.00000  Uiso   1.00
H2394  H     0.94999   0.92069   0.71033   0.00000  Uiso   1.00
H2395  H     0.97399   0.87961   0.72442   0.00000  Uiso   1.00
H2396  H     0.97905   0.89776   0.67607   0.00000  Uiso   1.00
H2397  H     0.93673   0.84266   0.67849   0.00000  Uiso   1.00
H2398  H     0.84862   0.91093   0.99120   0.00000  Uiso   1.00
H2399  H     0.91863   0.88259   0.65840   0.00000  Uiso   1.00
H2400  H     0.64909   0.87925   0.35928   0.00000  Uiso   1.00
H2401  H     0.68774   0.90177   0.33773   0.00000  Uiso   1.00
H2402  H     0.66148   0.92471   0.37451   0.00000  Uiso   1.00
H2403  H     0.64646   0.94971   0.30978   0.00000  Uiso   1.00
H2404  H     0.60800   0.93043   0.33116   0.00000  Uiso   1.00
H2405  H     0.92357   0.54800   0.70371   0.00000  Uiso   1.00
H2406  H     0.88366   0.52412   0.72142   0.00000  Uiso   1.00
H2407  H     0.89691   0.52041   0.67111   0.00000  Uiso   1.00
H2408  H     0.84302   0.56207   0.68048   0.00000  Uiso   1.00
H2409  H     0.81588   0.87406   0.99521   0.00000  Uiso   1.00
H2410  H     0.87990   0.58306   0.65786   0.00000  Uiso   1.00
H2411  H     0.66648   0.97990   0.10535   0.00000  Uiso   1.00
H2412  H     0.64671   0.51149   0.07081   0.00000  Uiso   1.00
H2413  H     0.62592   0.55128   0.12511   0.00000  Uiso   1.00
H2414  H     0.60764   0.50545   0.12853   0.00000  Uiso   1.00
H2415  H     0.64509   0.51912   0.15938   0.00000  Uiso   1.00
H2416  H     0.83341   0.98169   0.89059   0.00000  Uiso   1.00
H2417  H     0.85230   0.51027   0.92848   0.00000  Uiso   1.00
H2418  H     0.87392   0.55464   0.87867   0.00000  Uiso   1.00
H2419  H     0.89259   0.50937   0.87131   0.00000  Uiso   1.00
H2420  H     0.80607   0.91279   0.96438   0.00000  Uiso   1.00
H2421  H     0.85565   0.52546   0.84106   0.00000  Uiso   1.00
H2422  H     0.51935   0.66705   0.10999   0.00000  Uiso   1.00
H2423  H     0.99219   0.64941   0.07017   0.00000  Uiso   1.00
H2424  H     0.94693   0.62442   0.11745   0.00000  Uiso   1.00
H2425  H     0.99251   0.60641   0.12507   0.00000  Uiso   1.00
H2426  H     0.97476   0.64139   0.15687   0.00000  Uiso   1.00
H2427  H     0.51630   0.83360   0.89289   0.00000  Uiso   1.00
H2428  H     0.98590   0.85060   0.93036   0.00000  Uiso   1.00
H2429  H     0.94278   0.87283   0.87946   0.00000  Uiso   1.00
H2430  H     0.98792   0.89274   0.87482   0.00000  Uiso   1.00
H2431  H     0.72867   0.91516   0.97391   0.00000  Uiso   1.00
H2432  H     0.97393   0.85658   0.84249   0.00000  Uiso   1.00
H2433  H     0.83324   0.51746   0.10664   0.00000  Uiso   1.00
H2434  H     0.85118   0.98677   0.07000   0.00000  Uiso   1.00
H2435  H     0.87460   0.94556   0.12195   0.00000  Uiso   1.00
H2436  H     0.89313   0.99128   0.12571   0.00000  Uiso   1.00
H2437  H     0.85716   0.97679   0.15817   0.00000  Uiso   1.00
H2438  H     0.66721   0.51808   0.89225   0.00000  Uiso   1.00
H2439  H     0.64927   0.98860   0.93002   0.00000  Uiso   1.00
H2440  H     0.62477   0.94633   0.87957   0.00000  Uiso   1.00
H2441  H     0.60672   0.99215   0.87477   0.00000  Uiso   1.00
H2442  H     0.68623   0.91435   0.94679   0.00000  Uiso   1.00
H2443  H     0.64213   0.97643   0.84225   0.00000  Uiso   1.00
H2444  H     0.97731   0.83130   0.10547   0.00000  Uiso   1.00
H2445  H     0.50724   0.85114   0.06918   0.00000  Uiso   1.00
H2446  H     0.54635   0.87712   0.12166   0.00000  Uiso   1.00
H2447  H     0.99939   0.89263   0.12477   0.00000  Uiso   1.00
H2448  H     0.51573   0.85778   0.15749   0.00000  Uiso   1.00
H2449  H     0.98427   0.66648   0.89080   0.00000  Uiso   1.00
H2450  H     0.51323   0.64961   0.92953   0.00000  Uiso   1.00
H2451  H     0.55803   0.62674   0.88064   0.00000  Uiso   1.00
H2452  H     0.51297   0.60714   0.87414   0.00000  Uiso   1.00
H2453  H     0.65096   0.91110   0.00824   0.00000  Uiso   1.00
H2454  H     0.52856   0.64305   0.84227   0.00000  Uiso   1.00
H2455  H     0.91680   0.73225   0.61091   0.00000  Uiso   1.00
H2456  H     0.89845   0.75937   0.57153   0.00000  Uiso   1.00
H2457  H     0.87598   0.80552   0.61897   0.00000  Uiso   1.00
H2458  H     0.85739   0.76053   0.62820   0.00000  Uiso   1.00
H2459  H     0.89391   0.77805   0.65815   0.00000  Uiso   1.00
H2460  H     0.58255   0.72826   0.39105   0.00000  Uiso   1.00
H2461  H     0.60270   0.75643   0.42857   0.00000  Uiso   1.00
H2462  H     0.62570   0.79954   0.37811   0.00000  Uiso   1.00
H2463  H     0.64268   0.75354   0.37125   0.00000  Uiso   1.00
H2464  H     0.68371   0.87420   0.00459   0.00000  Uiso   1.00
H2465  H     0.60624   0.77061   0.34094   0.00000  Uiso   1.00
H2466  H     0.77974   0.92127   0.61011   0.00000  Uiso   1.00
H2467  H     0.75545   0.89910   0.57073   0.00000  Uiso   1.00
H2468  H     0.71406   0.86910   0.61847   0.00000  Uiso   1.00
H2469  H     0.76166   0.85832   0.62747   0.00000  Uiso   1.00
H2470  H     0.73834   0.89131   0.65761   0.00000  Uiso   1.00
H2471  H     0.76184   0.58471   0.39009   0.00000  Uiso   1.00
H2472  H     0.73343   0.59915   0.43042   0.00000  Uiso   1.00
H2473  H     0.68530   0.61967   0.38385   0.00000  Uiso   1.00
H2474  H     0.72865   0.64252   0.37629   0.00000  Uiso   1.00
H2475  H     0.64267   0.58320   0.02359   0.00000  Uiso   1.00
H2476  H     0.69324   0.91292   0.03553   0.00000  Uiso   1.00
H2477  H     0.71463   0.60631   0.34403   0.00000  Uiso   1.00
H2478  H     0.58357   0.76514   0.60961   0.00000  Uiso   1.00
H2479  H     0.60001   0.73661   0.57028   0.00000  Uiso   1.00
H2480  H     0.62401   0.69170   0.61828   0.00000  Uiso   1.00
H2481  H     0.64348   0.73673   0.62489   0.00000  Uiso   1.00
H2482  H     0.60809   0.72066   0.65727   0.00000  Uiso   1.00
H2483  H     0.91788   0.76981   0.39323   0.00000  Uiso   1.00
H2484  H     0.89886   0.74005   0.43013   0.00000  Uiso   1.00
H2485  H     0.87333   0.69970   0.37878   0.00000  Uiso   1.00
H2486  H     0.85711   0.74621   0.37419   0.00000  Uiso   1.00
H2487  H     0.58426   0.77859   0.03463   0.00000  Uiso   1.00
H2488  H     0.89236   0.72944   0.34204   0.00000  Uiso   1.00
H2489  H     0.72380   0.57982   0.60510   0.00000  Uiso   1.00
H2490  H     0.75304   0.60163   0.56945   0.00000  Uiso   1.00
H2491  H     0.78977   0.62956   0.62251   0.00000  Uiso   1.00
H2492  H     0.74189   0.64194   0.62565   0.00000  Uiso   1.00
H2493  H     0.76044   0.60782   0.65795   0.00000  Uiso   1.00
H2494  H     0.73988   0.91566   0.39043   0.00000  Uiso   1.00
H2495  H     0.76940   0.90138   0.42985   0.00000  Uiso   1.00
H2496  H     0.81573   0.87963   0.38224   0.00000  Uiso   1.00
H2497  H     0.77183   0.85761   0.37559   0.00000  Uiso   1.00
H2498  H     0.57923   0.82501   0.05197   0.00000  Uiso   1.00
H2499  H     0.78605   0.89351   0.34299   0.00000  Uiso   1.00
H2500  H     0.58336   0.84823   0.98464   0.00000  Uiso   1.00
H2501  H     0.62284   0.82083   0.99707   0.00000  Uiso   1.00
H2502  H     0.58718   0.80188   0.96678   0.00000  Uiso   1.00
H2503  H     0.58119   0.73128   0.98725   0.00000  Uiso   1.00
H2504  H     0.58684   0.69809   0.94870   0.00000  Uiso   1.00
H2505  H     0.59001   0.64821   0.99750   0.00000  Uiso   1.00
H2506  H     0.62455   0.68268   0.00603   0.00000  Uiso   1.00
H2507  H     0.66905   0.61492   0.99471   0.00000  Uiso   1.00
H2508  H     0.58390   0.68130   0.03595   0.00000  Uiso   1.00
H2509  H     0.97142   0.81965   0.48994   0.00000  Uiso   1.00
H2510  H     0.96041   0.83193   0.53968   0.00000  Uiso   1.00
H2511  H     0.89437   0.83480   0.52203   0.00000  Uiso   1.00
H2512  H     0.92178   0.86560   0.49312   0.00000  Uiso   1.00
H2513  H     0.90574   0.82310   0.47252   0.00000  Uiso   1.00
H2514  H     0.53271   0.81907   0.51001   0.00000  Uiso   1.00
H2515  H     0.54255   0.82992   0.45965   0.00000  Uiso   1.00
H2516  H     0.60918   0.83028   0.47465   0.00000  Uiso   1.00
H2517  H     0.58414   0.86277   0.50389   0.00000  Uiso   1.00
H2518  H     0.65364   0.57234   0.97376   0.00000  Uiso   1.00
H2519  H     0.59913   0.82002   0.52483   0.00000  Uiso   1.00
H2520  H     0.67381   0.96985   0.52250   0.00000  Uiso   1.00
H2521  H     0.67601   0.92681   0.54828   0.00000  Uiso   1.00
H2522  H     0.67966   0.89354   0.48558   0.00000  Uiso   1.00
H2523  H     0.63932   0.92212   0.48801   0.00000  Uiso   1.00
H2524  H     0.67849   0.93660   0.45980   0.00000  Uiso   1.00
H2525  H     0.66848   0.51579   0.47372   0.00000  Uiso   1.00
H2526  H     0.66378   0.56051   0.45185   0.00000  Uiso   1.00
H2527  H     0.66095   0.58883   0.51718   0.00000  Uiso   1.00
H2528  H     0.62610   0.55417   0.51134   0.00000  Uiso   1.00
H2529  H     0.78072   0.56996   0.01035   0.00000  Uiso   1.00
H2530  H     0.66686   0.54434   0.53922   0.00000  Uiso   1.00
H2531  H     0.51949   0.66432   0.52669   0.00000  Uiso   1.00
H2532  H     0.56222   0.66241   0.55324   0.00000  Uiso   1.00
H2533  H     0.59664   0.65842   0.49128   0.00000  Uiso   1.00
H2534  H     0.56304   0.62232   0.49534   0.00000  Uiso   1.00
H2535  H     0.55408   0.66132   0.46459   0.00000  Uiso   1.00
H2536  H     0.97710   0.66508   0.47403   0.00000  Uiso   1.00
H2537  H     0.93486   0.66514   0.44653   0.00000  Uiso   1.00
H2538  H     0.89906   0.66235   0.50764   0.00000  Uiso   1.00
H2539  H     0.93121   0.62491   0.50423   0.00000  Uiso   1.00
H2540  H     0.79051   0.58162   0.96016   0.00000  Uiso   1.00
H2541  H     0.94113   0.66341   0.53534   0.00000  Uiso   1.00
H2542  H     0.83411   0.53026   0.52977   0.00000  Uiso   1.00
H2543  H     0.82900   0.57413   0.55347   0.00000  Uiso   1.00
H2544  H     0.83048   0.60526   0.48962   0.00000  Uiso   1.00
H2545  H     0.87079   0.57742   0.49695   0.00000  Uiso   1.00
H2546  H     0.83449   0.56145   0.46563   0.00000  Uiso   1.00
H2547  H     0.83637   0.98663   0.47836   0.00000  Uiso   1.00
H2548  H     0.84168   0.94817   0.44575   0.00000  Uiso   1.00
H2549  H     0.84843   0.90648   0.50214   0.00000  Uiso   1.00
H2550  H     0.88195   0.94282   0.50320   0.00000  Uiso   1.00
H2551  H     0.85706   0.58352   0.97564   0.00000  Uiso   1.00
H2552  H     0.84245   0.94477   0.53476   0.00000  Uiso   1.00
H2553  H     0.62952   0.90377   0.14151   0.00000  Uiso   1.00
H2554  H     0.65598   0.93983   0.16242   0.00000  Uiso   1.00
H2555  H     0.67580   0.91161   0.12536   0.00000  Uiso   1.00
H2556  H     0.69997   0.89519   0.19075   0.00000  Uiso   1.00
H2557  H     0.67870   0.85840   0.16825   0.00000  Uiso   1.00
H2558  H     0.79201   0.66873   0.79808   0.00000  Uiso   1.00
H2559  H     0.77344   0.62672   0.77878   0.00000  Uiso   1.00
H2560  H     0.76712   0.63781   0.82914   0.00000  Uiso   1.00
H2561  H     0.81589   0.59087   0.82202   0.00000  Uiso   1.00
H2562  H     0.83100   0.61506   0.00507   0.00000  Uiso   1.00
H2563  H     0.83246   0.63088   0.84242   0.00000  Uiso   1.00
H2564  H     0.64942   0.72075   0.21060   0.00000  Uiso   1.00
H2565  H     0.64853   0.72177   0.15817   0.00000  Uiso   1.00
H2566  H     0.67806   0.69070   0.18267   0.00000  Uiso   1.00
H2567  H     0.61838   0.66132   0.15564   0.00000  Uiso   1.00
H2568  H     0.59394   0.69206   0.18376   0.00000  Uiso   1.00
H2569  H     0.83371   0.79541   0.80583   0.00000  Uiso   1.00
H2570  H     0.87469   0.77601   0.78473   0.00000  Uiso   1.00
H2571  H     0.86642   0.77175   0.83592   0.00000  Uiso   1.00
H2572  H     0.91270   0.82007   0.82429   0.00000  Uiso   1.00
O2573  O     0.75000   0.50000   0.25000   0.00000  Uiso   1.00
O2574  O     0.75000   0.96964   0.66317   0.00000  Uiso   1.00
O2575  O     0.96964   0.75000   0.33683   0.00000  Uiso   1.00
O2576  O     0.53036   0.75000   0.66317   0.00000  Uiso   1.00
O2577  O     0.50000   0.71964   0.83683   0.00000  Uiso   1.00
O2578  O     0.50000   0.78036   0.16317   0.00000  Uiso   1.00
O2579  O     0.78036   0.50000   0.83683   0.00000  Uiso   1.00
O2580  O     0.71964   0.50000   0.16317   0.00000  Uiso   1.00
O2581  O     0.50000   0.78036   0.83683   0.00000  Uiso   1.00
O2582  O     0.50000   0.71964   0.16317   0.00000  Uiso   1.00
O2583  O     0.71964   0.50000   0.83683   0.00000  Uiso   1.00
O2584  O     0.75000   0.50000   0.75000   0.00000  Uiso   1.00
O2585  O     0.78036   0.50000   0.16317   0.00000  Uiso   1.00
O2586  O     0.70726   0.57307   0.27282   0.00000  Uiso   1.00
O2587  O     0.79275   0.92693   0.72718   0.00000  Uiso   1.00
O2588  O     0.92693   0.70725   0.27282   0.00000  Uiso   1.00
O2589  O     0.57307   0.79274   0.72718   0.00000  Uiso   1.00
O2590  O     0.79275   0.92693   0.27282   0.00000  Uiso   1.00
O2591  O     0.70726   0.57307   0.72718   0.00000  Uiso   1.00
O2592  O     0.57307   0.79274   0.27282   0.00000  Uiso   1.00
O2593  O     0.92693   0.70725   0.72718   0.00000  Uiso   1.00
O2594  O     0.70726   0.92693   0.72718   0.00000  Uiso   1.00
O2595  O     0.50000   0.75000   0.25000   0.00000  Uiso   1.00
O2596  O     0.79275   0.57307   0.27282   0.00000  Uiso   1.00
O2597  O     0.92693   0.79274   0.72718   0.00000  Uiso   1.00
O2598  O     0.57307   0.70725   0.27282   0.00000  Uiso   1.00
O2599  O     0.79275   0.57307   0.72718   0.00000  Uiso   1.00
O2600  O     0.70726   0.92693   0.27282   0.00000  Uiso   1.00
O2601  O     0.57307   0.70725   0.72718   0.00000  Uiso   1.00
O2602  O     0.92693   0.79274   0.27282   0.00000  Uiso   1.00
O2603  O     0.95726   0.82307   0.77282   0.00000  Uiso   1.00
O2604  O     0.54275   0.67693   0.22718   0.00000  Uiso   1.00
O2605  O     0.67693   0.95725   0.77282   0.00000  Uiso   1.00
O2606  O     0.50000   0.75000   0.75000   0.00000  Uiso   1.00
O2607  O     0.82307   0.54274   0.22718   0.00000  Uiso   1.00
O2608  O     0.54275   0.67693   0.77282   0.00000  Uiso   1.00
O2609  O     0.95726   0.82307   0.22718   0.00000  Uiso   1.00
O2610  O     0.82307   0.54274   0.77282   0.00000  Uiso   1.00
O2611  O     0.67693   0.95725   0.22718   0.00000  Uiso   1.00
O2612  O     0.95726   0.67693   0.22718   0.00000  Uiso   1.00
O2613  O     0.54275   0.82307   0.77282   0.00000  Uiso   1.00
O2614  O     0.67693   0.54274   0.22718   0.00000  Uiso   1.00
O2615  O     0.82307   0.95725   0.77282   0.00000  Uiso   1.00
O2616  O     0.54275   0.82307   0.22718   0.00000  Uiso   1.00
O2617  O     0.75000   0.96964   0.33683   0.00000  Uiso   1.00
O2618  O     0.95726   0.67693   0.77282   0.00000  Uiso   1.00
O2619  O     0.82307   0.95725   0.22718   0.00000  Uiso   1.00
O2620  O     0.67693   0.54274   0.77282   0.00000  Uiso   1.00
O2621  O     0.69205   0.52979   0.02063   0.00000  Uiso   1.00
O2622  O     0.80800   0.52988   0.97931   0.00000  Uiso   1.00
O2623  O     0.96624   0.69385   0.02033   0.00000  Uiso   1.00
O2624  O     0.96352   0.80420   0.97976   0.00000  Uiso   1.00
O2625  O     0.80526   0.96159   0.02141   0.00000  Uiso   1.00
O2626  O     0.69473   0.96172   0.97856   0.00000  Uiso   1.00
O2627  O     0.53494   0.80605   0.02033   0.00000  Uiso   1.00
O2628  O     0.75000   0.53036   0.66317   0.00000  Uiso   1.00
O2629  O     0.53743   0.69514   0.97873   0.00000  Uiso   1.00
O2630  O     0.94261   0.78035   0.52060   0.00000  Uiso   1.00
O2631  O     0.55877   0.77794   0.47940   0.00000  Uiso   1.00
O2632  O     0.72392   0.94099   0.51975   0.00000  Uiso   1.00
O2633  O     0.71303   0.55235   0.48030   0.00000  Uiso   1.00
O2634  O     0.55457   0.71003   0.52169   0.00000  Uiso   1.00
O2635  O     0.94405   0.71226   0.47852   0.00000  Uiso   1.00
O2636  O     0.78399   0.55808   0.52102   0.00000  Uiso   1.00
O2637  O     0.79356   0.94813   0.47794   0.00000  Uiso   1.00
O2638  O     0.69184   0.53137   0.10106   0.00000  Uiso   1.00
O2639  O     0.53036   0.75000   0.33683   0.00000  Uiso   1.00
O2640  O     0.80765   0.53235   0.89898   0.00000  Uiso   1.00
O2641  O     0.96824   0.69188   0.10160   0.00000  Uiso   1.00
O2642  O     0.96583   0.80665   0.89834   0.00000  Uiso   1.00
O2643  O     0.80763   0.96629   0.10250   0.00000  Uiso   1.00
O2644  O     0.69218   0.96669   0.89758   0.00000  Uiso   1.00
O2645  O     0.53025   0.80910   0.10181   0.00000  Uiso   1.00
O2646  O     0.53460   0.69326   0.89787   0.00000  Uiso   1.00
O2647  O     0.94266   0.78258   0.60085   0.00000  Uiso   1.00
O2648  O     0.55881   0.78000   0.39913   0.00000  Uiso   1.00
O2649  O     0.72568   0.93869   0.60064   0.00000  Uiso   1.00
O2650  O     0.96964   0.75000   0.66317   0.00000  Uiso   1.00
O2651  O     0.71363   0.55471   0.39881   0.00000  Uiso   1.00
O2652  O     0.55691   0.71485   0.60269   0.00000  Uiso   1.00
O2653  O     0.94146   0.71769   0.39760   0.00000  Uiso   1.00
O2654  O     0.77797   0.56071   0.60206   0.00000  Uiso   1.00
O2655  O     0.78853   0.94535   0.39698   0.00000  Uiso   1.00
O2656  O     0.75000   0.53036   0.33683   0.00000  Uiso   1.00
Zn2657 Zn    0.70660   0.50000   0.21760   0.00000  Uiso   1.00
Zn2658 Zn    0.54340   0.75000   0.28240   0.00000  Uiso   1.00
Zn2659 Zn    0.75000   0.95660   0.71760   0.00000  Uiso   1.00
Zn2660 Zn    0.75000   0.54340   0.28240   0.00000  Uiso   1.00
Zn2661 Zn    0.54340   0.75000   0.71760   0.00000  Uiso   1.00
Zn2662 Zn    0.95660   0.75000   0.28240   0.00000  Uiso   1.00
Zn2663 Zn    0.75000   0.54340   0.71760   0.00000  Uiso   1.00
Zn2664 Zn    0.75000   0.95660   0.28240   0.00000  Uiso   1.00
Zn2665 Zn    0.79340   0.50000   0.78240   0.00000  Uiso   1.00
Zn2666 Zn    0.50000   0.70660   0.21760   0.00000  Uiso   1.00
Zn2667 Zn    0.50000   0.79340   0.78240   0.00000  Uiso   1.00
Zn2668 Zn    0.79340   0.50000   0.21760   0.00000  Uiso   1.00
Zn2669 Zn    0.70660   0.50000   0.78240   0.00000  Uiso   1.00
Zn2670 Zn    0.50000   0.79340   0.21760   0.00000  Uiso   1.00
Zn2671 Zn    0.50000   0.70660   0.78240   0.00000  Uiso   1.00
Zn2672 Zn    0.95660   0.75000   0.71760   0.00000  Uiso   1.00
loop_
_geom_bond_atom_site_label_1
_geom_bond_atom_site_label_2
_geom_bond_distance
_geom_bond_site_symmetry_2
_ccdc_geom_bond_type
C1     C79     1.402   .     A
C1     O617    1.384   .     S
C1     C1512   1.405   1_545 S
C2     C181    1.405   .     A
C2     C168    1.401   .     A
C2     O627    1.384   .     S
C3     C224    1.419   .     A
C3     C195    1.455   .     S
C3     C231    1.420   .     A
C4     C196    1.450   .     S
C4     C234    1.418   .     A
C4     C223    1.419   .     A
C5     C222    1.419   .     A
C5     C197    1.457   .     S
C5     C233    1.421   .     A
C6     C236    1.417   .     A
C6     C221    1.417   .     A
C6     C198    1.454   .     S
C7     C220    1.417   .     A
C7     C235    1.417   .     A
C7     C199    1.453   .     S
C8     C219    1.417   .     A
C8     C209    1.452   .     S
C8     C239    1.416   .     A
C9     C218    1.414   .     A
C9     C210    1.450   .     S
C9     C237    1.417   .     A
C10    C202    1.450   .     S
C10    C241    1.413   .     A
C10    C217    1.417   .     A
C11    C240    1.417   .     A
C11    C215    1.421   .     A
C11    C203    1.454   .     S
C12    C214    1.417   .     A
C12    C204    1.451   .     S
C12    C243    1.412   .     A
C13    C169    1.403   .     A
C13    C182    1.402   .     A
C13    O628    1.385   .     S
C14    C213    1.421   .     A
C14    C206    1.455   .     S
C14    C242    1.418   .     A
C15    C212    1.417   .     A
C15    C207    1.454   .     S
C15    C245    1.417   .     A
C16    C244    1.417   .     A
C16    C211    1.416   .     A
C16    C208    1.451   .     S
C17    C124    1.412   .     A
C17    C192    1.469   .     S
C17    C1415   1.413   .     S
C18    C135    1.412   .     A
C18    C1426   1.413   .     S
C18    C1527   1.469   .     S
C19    C146    1.413   .     A
C19    C769    1.412   1_455 S
C19    C858    1.470   1_455 S
C20    C189    1.468   .     S
C20    C157    1.412   .     A
C20    C781    1.412   1_455 S
C21    C856    1.468   .     S
C21    C167    1.412   .     A
C21    C839    1.412   .     S
C22    C168    1.413   .     A
C22    C187    1.470   .     S
C22    C841    1.412   1_455 S
C23    C186    1.473   .     S
C23    C169    1.414   .     A
C23    C1510   1.414   .     S
C24    C184    1.403   .     A
C24    C170    1.405   .     A
C24    O629    1.385   .     S
C25    C170    1.411   .     A
C25    C1511   1.411   1_545 S
C25    C185    1.466   .     S
C26    O617    1.410   .     S
C26    H360    1.116   .     S
C26    C27     1.521   .     S
C26    H249    1.111   1_554 S
C27    H471    1.111   .     S
C27    H503    1.111   1_554 S
C27    H514    1.111   1_554 S
C28    C29     1.521   .     S
C28    O618    1.411   .     S
C28    H536    1.116   .     S
C28    H525    1.111   1_556 S
C29    H547    1.111   .     S
C29    H250    1.111   1_556 S
C29    H558    1.111   1_556 S
C30    O619    1.413   .     S
C30    H272    1.111   .     S
C30    H261    1.116   .     S
C30    C31     1.521   1_554 S
C31    H283    1.111   .     S
C31    H305    1.111   .     S
C31    H294    1.111   .     S
C31    C30     1.521   1_556 S
C32    H327    1.111   .     S
C32    H316    1.116   .     S
C32    O620    1.413   .     S
C32    C33     1.521   1_556 S
C33    H349    1.110   .     S
C33    H338    1.111   .     S
C33    H361    1.111   .     S
C33    C32     1.521   1_554 S
C34    H372    1.116   .     S
C34    O621    1.413   .     S
C34    H383    1.111   .     S
C34    C36     1.521   1_554 S
C35    C171    1.404   .     A
C35    O630    1.385   .     S
C35    C848    1.403   1_455 S
C36    H394    1.111   .     S
C36    H405    1.111   .     S
C36    H416    1.111   .     S
C36    C34     1.521   1_556 S
C37    H427    1.116   .     S
C37    H438    1.111   .     S
C37    O622    1.413   .     S
C37    C38     1.521   1_556 S
C38    H472    1.111   .     S
C38    H460    1.110   .     S
C38    H449    1.111   .     S
C38    C37     1.521   1_554 S
C39    H483    1.116   .     S
C39    H494    1.111   .     S
C39    O623    1.414   .     S
C39    C40     1.521   1_554 S
C40    H496    1.111   .     S
C40    H497    1.111   .     S
C40    H498    1.111   .     S
C40    C39     1.521   1_556 S
C41    H500    1.112   .     S
C41    H499    1.113   .     S
C41    O625    1.411   .     S
C41    C42     1.521   1_556 S
C42    H502    1.110   .     S
C42    H504    1.111   .     S
C42    C41     1.521   1_554 S
C42    H501    1.111   1_554 S
C43    C44     1.521   .     S
C43    O626    1.410   .     S
C43    H506    1.116   .     S
C43    H505    1.111   .     S
C44    H508    1.111   .     S
C44    H507    1.111   .     S
C44    H509    1.111   .     S
C45    H511    1.116   .     S
C45    O627    1.411   .     S
C45    H510    1.111   .     S
C45    C47     1.521   .     S
C46    C173    1.404   .     A
C46    O631    1.385   .     S
C46    C849    1.403   .     S
C47    H515    1.111   .     S
C47    H513    1.111   .     S
C47    H512    1.111   .     S
C48    O628    1.413   .     S
C48    H516    1.116   .     S
C48    H517    1.111   .     S
C48    C49     1.521   .     S
C49    H519    1.111   .     S
C49    H518    1.111   .     S
C49    H520    1.111   .     S
C50    H522    1.111   .     S
C50    C51     1.521   .     S
C50    H521    1.116   .     S
C50    O629    1.413   .     S
C51    H526    1.111   .     S
C51    H524    1.110   .     S
C51    H523    1.111   .     S
C52    H527    1.116   .     S
C52    C53     1.521   .     S
C52    O630    1.413   .     S
C52    H528    1.111   .     S
C53    H530    1.110   .     S
C53    H529    1.111   .     S
C53    H531    1.111   .     S
C54    H533    1.111   .     S
C54    C55     1.521   .     S
C54    O631    1.413   .     S
C54    H532    1.116   .     S
C55    H535    1.110   .     S
C55    H537    1.111   .     S
C55    H534    1.111   .     S
C56    H538    1.116   .     S
C56    O632    1.414   .     S
C56    C58     1.521   .     S
C56    H539    1.111   .     S
C57    C174    1.405   .     A
C57    O632    1.386   .     S
C57    C1518   1.402   1_545 S
C58    H542    1.111   .     S
C58    H540    1.111   .     S
C58    H541    1.111   .     S
C59    H544    1.112   .     S
C59    C60     1.521   .     S
C59    O633    1.412   .     S
C59    H543    1.115   .     S
C60    H546    1.110   .     S
C60    H548    1.111   .     S
C60    H545    1.111   .     S
C61    C62     1.532   .     S
C61    H553    1.109   .     S
C61    H552    1.110   .     S
C61    C211    1.532   .     S
C62    H550    1.107   .     S
C62    H551    1.110   .     S
C62    H549    1.108   .     S
C63    C212    1.532   .     S
C63    H557    1.108   .     S
C63    H559    1.105   .     S
C63    C64     1.527   .     S
C64    H554    1.110   .     S
C64    H556    1.110   .     S
C64    H555    1.110   .     S
C65    H564    1.106   .     S
C65    H563    1.109   .     S
C65    C213    1.532   .     S
C65    C66     1.527   .     S
C66    H562    1.104   .     S
C66    H560    1.110   .     S
C66    H561    1.108   .     S
C67    C69     1.527   .     S
C67    H568    1.107   .     S
C67    C214    1.533   .     S
C67    H251    1.104   .     S
C68    C175    1.404   .     A
C68    O633    1.385   .     S
C68    C1520   1.403   .     S
C69    H565    1.111   .     S
C69    H567    1.111   .     S
C69    H566    1.110   .     S
C70    H256    1.109   .     S
C70    C215    1.536   .     S
C70    C71     1.528   .     S
C70    H255    1.102   .     S
C71    H254    1.111   .     S
C71    H253    1.108   .     S
C71    H252    1.110   .     S
C72    C73     1.527   .     S
C72    H262    1.104   .     S
C72    C217    1.533   .     S
C72    H260    1.107   .     S
C73    H257    1.111   .     S
C73    H259    1.111   .     S
C73    H258    1.110   .     S
C74    H267    1.107   .     S
C74    C218    1.534   .     S
C74    C75     1.529   .     S
C74    H266    1.109   .     S
C75    H263    1.110   .     S
C75    H265    1.109   .     S
C75    H264    1.109   .     S
C76    C77     1.528   .     S
C76    H273    1.105   .     S
C76    C219    1.532   .     S
C76    H271    1.108   .     S
C77    H269    1.110   .     S
C77    H268    1.110   .     S
C77    H270    1.111   .     S
C78    H278    1.109   .     S
C78    C80     1.530   .     S
C78    C220    1.530   .     S
C78    H277    1.109   .     S
C79    O634    1.386   .     S
C79    C1353   1.413   1_545 S
C80    H276    1.110   .     S
C80    H274    1.109   .     S
C80    H275    1.109   .     S
C81    H282    1.107   .     S
C81    C221    1.527   .     S
C81    C82     1.526   .     S
C81    H284    1.107   .     S
C82    H280    1.110   .     S
C82    H279    1.110   .     S
C82    H281    1.109   .     S
C83    H289    1.109   .     S
C83    C84     1.530   .     S
C83    C222    1.531   .     S
C83    H288    1.109   .     S
C84    H285    1.109   .     S
C84    H286    1.109   .     S
C84    H287    1.111   .     S
C85    C86     1.529   .     S
C85    H293    1.103   .     S
C85    H295    1.108   .     S
C85    C223    1.540   .     S
C86    H290    1.105   .     S
C86    H291    1.111   .     S
C86    H292    1.111   .     S
C87    C88     1.529   .     S
C87    H300    1.109   .     S
C87    C224    1.530   .     S
C87    H299    1.109   .     S
C88    H298    1.110   .     S
C88    H296    1.109   .     S
C88    H297    1.109   .     S
C89    H304    1.109   .     S
C89    H306    1.102   .     S
C89    C91     1.535   .     S
C89    C225    1.539   .     S
C90    C112    1.402   .     A
C90    O636    1.385   .     S
C90    C1354   1.413   1_545 S
C91    H302    1.110   .     S
C91    H303    1.108   .     S
C91    H301    1.111   .     S
C92    C226    1.531   .     S
C92    C93     1.530   .     S
C92    H310    1.110   .     S
C92    H311    1.109   .     S
C93    H307    1.109   .     S
C93    H309    1.111   .     S
C93    H308    1.109   .     S
C94    H315    1.106   .     S
C94    C228    1.533   .     S
C94    C95     1.522   .     S
C94    H317    1.103   .     S
C95    H314    1.110   .     S
C95    H313    1.108   .     S
C95    H312    1.111   .     S
C96    H322    1.108   .     S
C96    C229    1.532   .     S
C96    C97     1.530   .     S
C96    H321    1.109   .     S
C97    H318    1.109   .     S
C97    H319    1.109   .     S
C97    H320    1.111   .     S
C98    H328    1.104   .     S
C98    C99     1.528   .     S
C98    H326    1.107   .     S
C98    C230    1.534   .     S
C99    H324    1.109   .     S
C99    H323    1.111   .     S
C99    H325    1.111   .     S
C100   H333    1.105   .     S
C100   H332    1.107   .     S
C100   C231    1.531   .     S
C100   C102    1.524   .     S
C101   C172    1.404   .     A
C101   O637    1.385   .     S
C101   C687    1.412   .     S
C102   H331    1.109   .     S
C102   H329    1.109   .     S
C102   H330    1.110   .     S
C103   C104    1.528   .     S
C103   H337    1.108   .     S
C103   H339    1.105   .     S
C103   C232    1.533   .     S
C104   H335    1.110   .     S
C104   H334    1.110   .     S
C104   H336    1.111   .     S
C105   H344    1.104   .     S
C105   C233    1.529   .     S
C105   C106    1.522   .     S
C105   H343    1.107   .     S
C106   H342    1.109   .     S
C106   H340    1.110   .     S
C106   H341    1.110   .     S
C107   H350    1.104   .     S
C107   H348    1.106   .     S
C107   C234    1.535   .     S
C107   C108    1.528   .     S
C108   H346    1.110   .     S
C108   H345    1.111   .     S
C108   H347    1.111   .     S
C109   H354    1.109   .     S
C109   H355    1.109   .     S
C109   C110    1.530   .     S
C109   C235    1.530   .     S
C110   H352    1.108   .     S
C110   H353    1.109   .     S
C110   H351    1.111   .     S
C111   C236    1.532   .     S
C111   H359    1.108   .     S
C111   H362    1.105   .     S
C111   C114    1.527   .     S
C112   O618    1.385   .     S
C112   C1513   1.405   1_545 S
C113   C183    1.405   .     A
C113   O638    1.385   .     S
C113   C688    1.412   .     S
C114   H356    1.110   .     S
C114   H357    1.110   .     S
C114   H358    1.111   .     S
C115   C237    1.530   .     S
C115   C116    1.530   .     S
C115   H366    1.110   .     S
C115   H367    1.109   .     S
C116   H364    1.109   .     S
C116   H363    1.109   .     S
C116   H365    1.111   .     S
C117   C239    1.532   .     S
C117   H373    1.105   .     S
C117   C118    1.527   .     S
C117   H371    1.108   .     S
C118   H370    1.110   .     S
C118   H369    1.110   .     S
C118   H368    1.110   .     S
C119   C240    1.532   .     S
C119   H378    1.109   .     S
C119   H377    1.109   .     S
C119   C120    1.530   .     S
C120   H376    1.110   .     S
C120   H375    1.109   .     S
C120   H374    1.109   .     S
C121   C241    1.536   .     S
C121   H382    1.109   .     S
C121   C122    1.530   .     S
C121   H384    1.102   .     S
C122   H380    1.107   .     S
C122   H381    1.111   .     S
C122   H379    1.111   .     S
C123   H389    1.109   .     S
C123   C125    1.530   .     S
C123   H388    1.110   .     S
C123   C242    1.531   .     S
C124   C194    1.404   .     A
C124   O639    1.385   .     S
C125   H386    1.108   .     S
C125   H385    1.109   .     S
C125   H387    1.111   .     S
C126   C127    1.527   .     S
C126   H395    1.102   .     S
C126   C243    1.532   .     S
C126   H393    1.109   .     S
C127   H391    1.109   .     S
C127   H392    1.109   .     S
C127   H390    1.111   .     S
C128   H399    1.110   .     S
C128   C129    1.531   .     S
C128   H400    1.109   .     S
C128   C244    1.532   .     S
C129   H397    1.109   .     S
C129   H396    1.109   .     S
C129   H398    1.111   .     S
C130   C131    1.526   .     S
C130   H404    1.108   .     S
C130   C245    1.529   .     S
C130   H406    1.106   .     S
C131   H402    1.110   .     S
C131   H403    1.109   .     S
C131   H401    1.110   .     S
C132   H408    1.111   .     S
C132   C133    1.521   .     S
C132   O634    1.414   .     S
C132   H1743   1.115   1_545 S
C133   H409    1.111   .     S
C133   H411    1.110   .     S
C133   H410    1.110   .     S
C134   H413    1.111   .     S
C134   C136    1.521   .     S
C134   O636    1.413   .     S
C134   H1748   1.114   1_545 S
C135   C205    1.404   .     A
C135   O640    1.385   .     S
C136   H417    1.110   .     S
C136   H415    1.110   .     S
C136   H414    1.111   .     S
C137   O637    1.413   .     S
C137   C138    1.521   .     S
C137   H419    1.112   .     S
C137   H1086   1.115   .     S
C138   H420    1.111   .     S
C138   H421    1.110   .     S
C138   H422    1.110   .     S
C139   H424    1.112   .     S
C139   C140    1.521   .     S
C139   O638    1.413   .     S
C139   H1091   1.115   .     S
C140   H426    1.110   .     S
C140   H428    1.110   .     S
C140   H425    1.111   .     S
C141   H430    1.112   .     S
C141   O639    1.413   .     S
C141   C142    1.521   .     S
C141   H1765   1.115   .     S
C142   H432    1.110   .     S
C142   H433    1.110   .     S
C142   H431    1.111   .     S
C143   C144    1.521   .     S
C143   O640    1.413   .     S
C143   H435    1.112   .     S
C143   H1770   1.115   .     S
C144   H437    1.110   .     S
C144   H439    1.110   .     S
C144   H436    1.111   .     S
C145   C147    1.521   .     S
C145   O641    1.414   .     S
C145   H441    1.112   .     S
C145   H1108   1.115   1_455 S
C146   O641    1.385   .     S
C146   C216    1.406   .     A
C147   H444    1.110   .     S
C147   H442    1.111   .     S
C147   H1111   1.110   1_455 S
C148   H446    1.112   .     S
C148   C149    1.521   .     S
C148   O642    1.413   .     S
C148   H1113   1.115   1_455 S
C149   H450    1.110   .     S
C149   H448    1.110   .     S
C149   H447    1.111   .     S
C150   H451    1.115   .     S
C150   O643    1.414   .     S
C150   C151    1.521   .     S
C150   H452    1.112   .     S
C151   H454    1.110   .     S
C151   H455    1.110   .     S
C151   H453    1.111   .     S
C152   O644    1.414   .     S
C152   H456    1.115   .     S
C152   H457    1.111   .     S
C152   C153    1.521   .     S
C153   H461    1.110   .     S
C153   H459    1.110   .     S
C153   H458    1.111   .     S
C154   C155    1.521   .     S
C154   O645    1.413   .     S
C154   H462    1.116   .     S
C154   H463    1.112   .     S
C155   H466    1.111   .     S
C155   H465    1.110   .     S
C155   H464    1.111   .     S
C156   O647    1.413   .     S
C156   H468    1.112   .     S
C156   C158    1.521   .     S
C156   H467    1.115   .     S
C157   C227    1.403   .     A
C157   O642    1.385   .     S
C158   H473    1.110   .     S
C158   H469    1.111   .     S
C158   H470    1.110   .     S
C159   H474    1.115   .     S
C159   H475    1.112   .     S
C159   C160    1.521   .     S
C159   O648    1.413   .     S
C160   H476    1.111   .     S
C160   H477    1.110   .     S
C160   H478    1.110   .     S
C161   H479    1.115   .     S
C161   C162    1.521   .     S
C161   O649    1.413   .     S
C161   H480    1.112   .     S
C162   H481    1.111   .     S
C162   H484    1.110   .     S
C162   H482    1.110   .     S
C163   H485    1.115   .     S
C163   H486    1.112   .     S
C163   O650    1.413   .     S
C163   C164    1.521   .     S
C164   H487    1.111   .     S
C164   H489    1.111   .     S
C164   H488    1.110   .     S
C165   H491    1.112   .     S
C165   O651    1.413   .     S
C165   C166    1.521   .     S
C165   H490    1.115   .     S
C166   H493    1.110   .     S
C166   H492    1.111   .     S
C166   H495    1.110   .     S
C167   C238    1.401   .     A
C167   O643    1.385   .     S
C168   O644    1.385   .     S
C169   O645    1.384   .     S
C170   O647    1.385   .     S
C171   O648    1.384   .     S
C171   C689    1.412   1_455 S
C172   O619    1.385   .     S
C172   C846    1.402   .     S
C173   O649    1.385   .     S
C173   C690    1.412   .     S
C174   O650    1.384   .     S
C174   C1359   1.414   1_545 S
C175   O651    1.385   .     S
C175   C1361   1.411   .     S
C176   C194    1.403   .     A
C176   C1337   1.405   .     S
C176   C177    1.465   1_554 S
C177   C205    1.403   .     A
C177   C176    1.465   1_556 S
C177   C1448   1.405   .     S
C178   C216    1.402   .     A
C178   C840    1.402   1_455 S
C178   C179    1.466   1_554 S
C179   C227    1.403   .     A
C179   C178    1.466   1_556 S
C179   C851    1.403   1_455 S
C180   C238    1.406   .     A
C180   C703    1.403   .     S
C180   C849    1.466   .     S
C181   C714    1.403   1_455 S
C181   C848    1.466   1_455 S
C182   C1393   1.402   .     S
C182   C1520   1.467   .     S
C183   O620    1.385   .     S
C183   C847    1.403   .     S
C184   C1404   1.403   1_545 S
C184   C1518   1.467   1_545 S
C185   O1949   1.279   1_545 A
C185   O652    1.280   .     S
C186   O570    1.281   .     A
C186   O1960   1.282   .     S
C187   O635    1.278   .     A
C187   O1239   1.279   1_455 S
C188   C689    1.468   1_455 S
C188   O1314   1.278   1_455 A
C188   O572    1.279   .     S
C189   O573    1.280   .     A
C189   O577    1.280   .     A
C190   C687    1.470   .     S
C190   O1242   1.281   .     S
C190   O1246   1.281   .     S
C191   O579    1.279   .     A
C191   O575    1.278   .     A
C191   C1354   1.469   1_545 S
C192   O1912   1.278   .     S
C192   O1917   1.279   .     S
C193   O610    1.274   .     A
C193   C248    1.449   .     S
C193   O582    1.275   .     A
C194   O621    1.385   .     S
C195   O611    1.283   .     A
C195   O583    1.269   .     A
C196   O608    1.273   .     A
C196   O584    1.275   .     A
C197   O609    1.282   .     A
C197   O585    1.270   .     A
C198   O586    1.275   .     A
C198   O615    1.275   .     A
C199   O616    1.274   .     A
C199   O587    1.274   .     A
C200   O588    1.278   .     A
C200   O612    1.273   .     A
C200   C246    1.454   .     S
C201   O614    1.275   .     A
C201   C247    1.451   .     S
C201   O589    1.274   .     A
C202   O590    1.276   .     A
C202   O601    1.271   .     A
C203   O603    1.279   .     A
C203   O592    1.272   .     A
C204   O593    1.277   .     A
C204   O599    1.272   .     A
C205   O622    1.385   .     S
C206   O600    1.276   .     A
C206   O594    1.275   .     A
C207   O606    1.275   .     A
C207   O595    1.275   .     A
C208   O607    1.274   .     A
C208   O596    1.275   .     A
C209   O597    1.275   .     A
C209   O604    1.274   .     A
C210   O598    1.273   .     A
C210   O605    1.275   .     A
C211   C228    1.411   .     A
C212   C226    1.413   .     A
C213   C225    1.417   .     A
C214   C224    1.414   .     A
C215   C223    1.416   .     A
C216   O623    1.387   .     S
C217   C222    1.414   .     A
C218   C221    1.411   .     A
C219   C220    1.413   .     A
C225   C248    1.416   .     A
C226   C247    1.417   .     A
C227   O625    1.384   .     S
C228   C246    1.420   .     A
C229   C245    1.412   .     A
C229   C247    1.415   .     A
C230   C246    1.418   .     A
C230   C244    1.413   .     A
C231   C243    1.407   .     A
C232   C248    1.416   .     A
C232   C242    1.412   .     A
C233   C241    1.409   .     A
C234   C240    1.411   .     A
C235   C239    1.413   .     A
C236   C237    1.413   .     A
C238   O626    1.385   .     S
H249   C26     1.111   1_556 S
H250   C29     1.111   1_554 S
H407   C1468   1.115   .     S
H412   C1470   1.114   .     S
H418   C805    1.115   1_455 S
H423   C807    1.115   1_455 S
H429   C1477   1.115   1_545 S
H434   C1479   1.115   1_545 S
H440   C813    1.115   .     S
H443   C815    1.110   .     S
H445   C816    1.115   .     S
H501   C42     1.111   1_556 S
H503   C27     1.111   1_556 S
H514   C27     1.111   1_556 S
H525   C28     1.111   1_554 S
H558   C29     1.111   1_554 S
O569   Zn653   1.940   .     S
O569   Zn664   1.939   .     S
O569   Zn656   1.943   .     S
O569   Zn1996  1.943   1_545 S
O570   Zn655   1.940   .     S
O571   Zn658   1.940   .     S
O571   C855    1.279   .     S
O572   Zn657   1.940   .     S
O573   Zn667   1.940   .     S
O574   Zn666   1.940   .     S
O574   C858    1.281   1_455 S
O575   Zn661   1.939   .     S
O576   Zn653   1.939   .     S
O576   C1528   1.278   1_545 S
O577   Zn663   1.940   .     S
O578   Zn662   1.940   .     S
O578   C858    1.281   1_455 S
O579   Zn665   1.940   .     S
O580   Zn661   1.940   .     S
O580   Zn659   1.943   .     S
O580   Zn665   1.939   .     S
O580   Zn1991  1.943   1_545 S
O581   Zn664   1.940   .     S
O581   C1528   1.279   1_545 S
O582   Zn656   1.929   .     S
O583   Zn655   1.929   .     S
O584   Zn658   1.931   .     S
O585   Zn657   1.931   .     S
O586   Zn660   1.929   .     S
O587   Zn659   1.929   .     S
O588   Zn654   1.931   .     S
O589   Zn668   1.931   .     S
O590   Zn655   1.929   .     S
O591   Zn654   1.940   .     S
O591   Zn662   1.943   .     S
O591   Zn666   1.943   .     S
O591   Zn1326  1.939   1_455 S
O592   Zn656   1.929   .     S
O593   Zn668   1.930   .     S
O594   Zn654   1.930   .     S
O595   Zn659   1.930   .     S
O596   Zn660   1.930   .     S
O597   Zn657   1.931   .     S
O598   Zn658   1.931   .     S
O599   Zn1331  1.929   .     S
O600   Zn662   1.929   .     S
O601   Zn2001  1.931   .     S
O602   Zn657   1.939   .     S
O602   Zn663   1.943   .     S
O602   Zn667   1.943   .     S
O602   Zn1336  1.940   1_455 S
O603   Zn664   1.931   .     S
O604   Zn667   1.929   .     S
O605   Zn1334  1.929   .     S
O606   Zn661   1.931   .     S
O607   Zn1989  1.931   .     S
O608   Zn1330  1.929   .     S
O609   Zn663   1.929   .     S
O610   Zn653   1.930   .     S
O611   Zn1997  1.930   .     S
O612   Zn666   1.930   .     S
O613   Zn660   1.940   .     S
O613   C1521   1.279   .     A
O614   Zn1335  1.930   .     S
O615   Zn2000  1.931   .     S
O616   Zn665   1.931   .     S
O624   Zn659   1.940   .     S
O624   C1522   1.282   1_545 S
O635   Zn654   1.939   .     S
O646   Zn668   1.939   .     S
O646   C856    1.278   .     A
O652   Zn656   1.940   .     S
Zn653  O1943   1.931   1_545 S
Zn655  O1916   1.943   .     S
Zn658  O1259   1.939   .     S
Zn660  O1905   1.943   .     S
Zn661  O1947   1.930   1_545 S
Zn662  O1276   1.929   1_455 S
Zn663  O1267   1.929   1_455 S
Zn664  O1951   1.931   1_545 S
Zn665  O1937   1.931   1_545 S
Zn666  O1273   1.929   1_455 S
Zn667  O1282   1.930   1_455 S
Zn668  O1270   1.940   .     S
C669   C747    1.402   .     A
C669   O1285   1.384   .     S
C669   C2180   1.405   1_545 S
C670   C849    1.405   .     A
C670   C836    1.401   .     A
C670   O1295   1.384   .     S
C671   C892    1.419   .     A
C671   C863    1.455   .     S
C671   C899    1.420   .     A
C672   C864    1.450   .     S
C672   C902    1.418   .     A
C672   C891    1.419   .     A
C673   C890    1.419   .     A
C673   C865    1.457   .     S
C673   C901    1.421   .     A
C674   C904    1.417   .     A
C674   C889    1.417   .     A
C674   C866    1.454   .     S
C675   C888    1.417   .     A
C675   C903    1.417   .     A
C675   C867    1.453   .     S
C676   C887    1.417   .     A
C676   C877    1.452   .     S
C676   C907    1.416   .     A
C677   C886    1.414   .     A
C677   C878    1.450   .     S
C677   C905    1.417   .     A
C678   C870    1.450   .     S
C678   C909    1.413   .     A
C678   C885    1.417   .     A
C679   C908    1.417   .     A
C679   C883    1.421   .     A
C679   C871    1.454   .     S
C680   C882    1.417   .     A
C680   C872    1.451   .     S
C680   C911    1.412   .     A
C681   C837    1.403   .     A
C681   C850    1.402   .     A
C681   O1296   1.385   .     S
C682   C881    1.421   .     A
C682   C874    1.455   .     S
C682   C910    1.418   .     A
C683   C880    1.417   .     A
C683   C875    1.454   .     S
C683   C913    1.417   .     A
C684   C912    1.417   .     A
C684   C879    1.416   .     A
C684   C876    1.451   .     S
C685   C792    1.412   .     A
C685   C860    1.469   .     S
C685   C2083   1.413   .     S
C686   C803    1.412   .     A
C686   C2094   1.413   .     S
C686   C2195   1.469   .     S
C687   C814    1.413   .     A
C688   C857    1.468   .     S
C688   C825    1.412   .     A
C689   C188    1.468   1_655 S
C689   C835    1.412   .     A
C689   C171    1.412   1_655 S
C690   C836    1.413   .     A
C690   C855    1.470   .     S
C691   C854    1.473   .     S
C691   C837    1.414   .     A
C691   C2178   1.414   .     S
C692   C852    1.403   .     A
C692   C838    1.405   .     A
C692   O1297   1.385   .     S
C693   C838    1.411   .     A
C693   C2179   1.411   1_545 S
C693   C853    1.466   .     S
C694   O1285   1.410   .     S
C694   H1028   1.116   .     S
C694   C695    1.521   .     S
C694   H917    1.111   1_554 S
C695   H1139   1.111   .     S
C695   H1171   1.111   1_554 S
C695   H1182   1.111   1_554 S
C696   C697    1.521   .     S
C696   O1286   1.411   .     S
C696   H1204   1.116   .     S
C696   H1193   1.111   1_556 S
C697   H1215   1.111   .     S
C697   H918    1.111   1_556 S
C697   H1226   1.111   1_556 S
C698   O1287   1.413   .     S
C698   H940    1.111   .     S
C698   H929    1.116   .     S
C698   C699    1.521   1_554 S
C699   H951    1.111   .     S
C699   H973    1.111   .     S
C699   H962    1.111   .     S
C699   C698    1.521   1_556 S
C700   H995    1.111   .     S
C700   H984    1.116   .     S
C700   O1288   1.413   .     S
C700   C701    1.521   1_556 S
C701   H1017   1.110   .     S
C701   H1006   1.111   .     S
C701   H1029   1.111   .     S
C701   C700    1.521   1_554 S
C702   H1040   1.116   .     S
C702   O1289   1.413   .     S
C702   H1051   1.111   .     S
C702   C704    1.521   1_554 S
C703   C839    1.404   .     A
C703   O1298   1.385   .     S
C704   H1062   1.111   .     S
C704   H1073   1.111   .     S
C704   H1084   1.111   .     S
C704   C702    1.521   1_556 S
C705   H1095   1.116   .     S
C705   H1106   1.111   .     S
C705   O1290   1.413   .     S
C705   C706    1.521   1_556 S
C706   H1140   1.111   .     S
C706   H1128   1.110   .     S
C706   H1117   1.111   .     S
C706   C705    1.521   1_554 S
C707   H1151   1.116   .     S
C707   H1162   1.111   .     S
C707   O1291   1.414   .     S
C707   C708    1.521   1_554 S
C708   H1164   1.111   .     S
C708   H1165   1.111   .     S
C708   H1166   1.111   .     S
C708   C707    1.521   1_556 S
C709   H1168   1.112   .     S
C709   H1167   1.113   .     S
C709   O1293   1.411   .     S
C709   C710    1.521   1_556 S
C710   H1170   1.110   .     S
C710   H1172   1.111   .     S
C710   C709    1.521   1_554 S
C710   H1169   1.111   1_554 S
C711   C712    1.521   .     S
C711   O1294   1.410   .     S
C711   H1174   1.116   .     S
C711   H1173   1.111   .     S
C712   H1176   1.111   .     S
C712   H1175   1.111   .     S
C712   H1177   1.111   .     S
C713   H1179   1.116   .     S
C713   O1295   1.411   .     S
C713   H1178   1.111   .     S
C713   C715    1.521   .     S
C714   C841    1.404   .     A
C714   O1299   1.385   .     S
C714   C181    1.403   1_655 S
C715   H1183   1.111   .     S
C715   H1181   1.111   .     S
C715   H1180   1.111   .     S
C716   O1296   1.413   .     S
C716   H1184   1.116   .     S
C716   H1185   1.111   .     S
C716   C717    1.521   .     S
C717   H1187   1.111   .     S
C717   H1186   1.111   .     S
C717   H1188   1.111   .     S
C718   H1190   1.111   .     S
C718   C719    1.521   .     S
C718   H1189   1.116   .     S
C718   O1297   1.413   .     S
C719   H1194   1.111   .     S
C719   H1192   1.110   .     S
C719   H1191   1.111   .     S
C720   H1195   1.116   .     S
C720   C721    1.521   .     S
C720   O1298   1.413   .     S
C720   H1196   1.111   .     S
C721   H1198   1.110   .     S
C721   H1197   1.111   .     S
C721   H1199   1.111   .     S
C722   H1201   1.111   .     S
C722   C723    1.521   .     S
C722   O1299   1.413   .     S
C722   H1200   1.116   .     S
C723   H1203   1.110   .     S
C723   H1205   1.111   .     S
C723   H1202   1.111   .     S
C724   H1206   1.116   .     S
C724   O1300   1.414   .     S
C724   C726    1.521   .     S
C724   H1207   1.111   .     S
C725   C842    1.405   .     A
C725   O1300   1.386   .     S
C725   C2186   1.402   1_545 S
C726   H1210   1.111   .     S
C726   H1208   1.111   .     S
C726   H1209   1.111   .     S
C727   H1212   1.112   .     S
C727   C728    1.521   .     S
C727   O1301   1.412   .     S
C727   H1211   1.115   .     S
C728   H1214   1.110   .     S
C728   H1216   1.111   .     S
C728   H1213   1.111   .     S
C729   C730    1.532   .     S
C729   H1221   1.109   .     S
C729   H1220   1.110   .     S
C729   C879    1.532   .     S
C730   H1218   1.107   .     S
C730   H1219   1.110   .     S
C730   H1217   1.108   .     S
C731   C880    1.532   .     S
C731   H1225   1.108   .     S
C731   H1227   1.105   .     S
C731   C732    1.527   .     S
C732   H1222   1.110   .     S
C732   H1224   1.110   .     S
C732   H1223   1.110   .     S
C733   H1232   1.106   .     S
C733   H1231   1.109   .     S
C733   C881    1.532   .     S
C733   C734    1.527   .     S
C734   H1230   1.104   .     S
C734   H1228   1.110   .     S
C734   H1229   1.108   .     S
C735   C737    1.527   .     S
C735   H1236   1.107   .     S
C735   C882    1.533   .     S
C735   H919    1.104   .     S
C736   C843    1.404   .     A
C736   O1301   1.385   .     S
C736   C2188   1.403   .     S
C737   H1233   1.111   .     S
C737   H1235   1.111   .     S
C737   H1234   1.110   .     S
C738   H924    1.109   .     S
C738   C883    1.536   .     S
C738   C739    1.528   .     S
C738   H923    1.102   .     S
C739   H922    1.111   .     S
C739   H921    1.108   .     S
C739   H920    1.110   .     S
C740   C741    1.527   .     S
C740   H930    1.104   .     S
C740   C885    1.533   .     S
C740   H928    1.107   .     S
C741   H925    1.111   .     S
C741   H927    1.111   .     S
C741   H926    1.110   .     S
C742   H935    1.107   .     S
C742   C886    1.534   .     S
C742   C743    1.529   .     S
C742   H934    1.109   .     S
C743   H931    1.110   .     S
C743   H933    1.109   .     S
C743   H932    1.109   .     S
C744   C745    1.528   .     S
C744   H941    1.105   .     S
C744   C887    1.532   .     S
C744   H939    1.108   .     S
C745   H937    1.110   .     S
C745   H936    1.110   .     S
C745   H938    1.111   .     S
C746   H946    1.109   .     S
C746   C748    1.530   .     S
C746   C888    1.530   .     S
C746   H945    1.109   .     S
C747   O1302   1.386   .     S
C747   C2021   1.413   1_545 S
C748   H944    1.110   .     S
C748   H942    1.109   .     S
C748   H943    1.109   .     S
C749   H950    1.107   .     S
C749   C889    1.527   .     S
C749   C750    1.526   .     S
C749   H952    1.107   .     S
C750   H948    1.110   .     S
C750   H947    1.110   .     S
C750   H949    1.109   .     S
C751   H957    1.109   .     S
C751   C752    1.530   .     S
C751   C890    1.531   .     S
C751   H956    1.109   .     S
C752   H953    1.109   .     S
C752   H954    1.109   .     S
C752   H955    1.111   .     S
C753   C754    1.529   .     S
C753   H961    1.103   .     S
C753   H963    1.108   .     S
C753   C891    1.540   .     S
C754   H958    1.105   .     S
C754   H959    1.111   .     S
C754   H960    1.111   .     S
C755   C756    1.529   .     S
C755   H968    1.109   .     S
C755   C892    1.530   .     S
C755   H967    1.109   .     S
C756   H966    1.110   .     S
C756   H964    1.109   .     S
C756   H965    1.109   .     S
C757   H972    1.109   .     S
C757   H974    1.102   .     S
C757   C759    1.535   .     S
C757   C893    1.539   .     S
C758   C780    1.402   .     A
C758   O1304   1.385   .     S
C758   C2022   1.413   1_545 S
C759   H970    1.110   .     S
C759   H971    1.108   .     S
C759   H969    1.111   .     S
C760   C894    1.531   .     S
C760   C761    1.530   .     S
C760   H978    1.110   .     S
C760   H979    1.109   .     S
C761   H975    1.109   .     S
C761   H977    1.111   .     S
C761   H976    1.109   .     S
C762   H983    1.106   .     S
C762   C896    1.533   .     S
C762   C763    1.522   .     S
C762   H985    1.103   .     S
C763   H982    1.110   .     S
C763   H981    1.108   .     S
C763   H980    1.111   .     S
C764   H990    1.108   .     S
C764   C897    1.532   .     S
C764   C765    1.530   .     S
C764   H989    1.109   .     S
C765   H986    1.109   .     S
C765   H987    1.109   .     S
C765   H988    1.111   .     S
C766   H996    1.104   .     S
C766   C767    1.528   .     S
C766   H994    1.107   .     S
C766   C898    1.534   .     S
C767   H992    1.109   .     S
C767   H991    1.111   .     S
C767   H993    1.111   .     S
C768   H1001   1.105   .     S
C768   H1000   1.107   .     S
C768   C899    1.531   .     S
C768   C770    1.524   .     S
C769   C840    1.404   .     A
C769   O1305   1.385   .     S
C769   C19     1.412   1_655 S
C770   H999    1.109   .     S
C770   H997    1.109   .     S
C770   H998    1.110   .     S
C771   C772    1.528   .     S
C771   H1005   1.108   .     S
C771   H1007   1.105   .     S
C771   C900    1.533   .     S
C772   H1003   1.110   .     S
C772   H1002   1.110   .     S
C772   H1004   1.111   .     S
C773   H1012   1.104   .     S
C773   C901    1.529   .     S
C773   C774    1.522   .     S
C773   H1011   1.107   .     S
C774   H1010   1.109   .     S
C774   H1008   1.110   .     S
C774   H1009   1.110   .     S
C775   H1018   1.104   .     S
C775   H1016   1.106   .     S
C775   C902    1.535   .     S
C775   C776    1.528   .     S
C776   H1014   1.110   .     S
C776   H1013   1.111   .     S
C776   H1015   1.111   .     S
C777   H1022   1.109   .     S
C777   H1023   1.109   .     S
C777   C778    1.530   .     S
C777   C903    1.530   .     S
C778   H1020   1.108   .     S
C778   H1021   1.109   .     S
C778   H1019   1.111   .     S
C779   C904    1.532   .     S
C779   H1027   1.108   .     S
C779   H1030   1.105   .     S
C779   C782    1.527   .     S
C780   O1286   1.385   .     S
C780   C2181   1.405   1_545 S
C781   C851    1.405   .     A
C781   O1306   1.385   .     S
C781   C20     1.412   1_655 S
C782   H1024   1.110   .     S
C782   H1025   1.110   .     S
C782   H1026   1.111   .     S
C783   C905    1.530   .     S
C783   C784    1.530   .     S
C783   H1034   1.110   .     S
C783   H1035   1.109   .     S
C784   H1032   1.109   .     S
C784   H1031   1.109   .     S
C784   H1033   1.111   .     S
C785   C907    1.532   .     S
C785   H1041   1.105   .     S
C785   C786    1.527   .     S
C785   H1039   1.108   .     S
C786   H1038   1.110   .     S
C786   H1037   1.110   .     S
C786   H1036   1.110   .     S
C787   C908    1.532   .     S
C787   H1046   1.109   .     S
C787   H1045   1.109   .     S
C787   C788    1.530   .     S
C788   H1044   1.110   .     S
C788   H1043   1.109   .     S
C788   H1042   1.109   .     S
C789   C909    1.536   .     S
C789   H1050   1.109   .     S
C789   C790    1.530   .     S
C789   H1052   1.102   .     S
C790   H1048   1.107   .     S
C790   H1049   1.111   .     S
C790   H1047   1.111   .     S
C791   H1057   1.109   .     S
C791   C793    1.530   .     S
C791   H1056   1.110   .     S
C791   C910    1.531   .     S
C792   C862    1.404   .     A
C792   O1307   1.385   .     S
C793   H1054   1.108   .     S
C793   H1053   1.109   .     S
C793   H1055   1.111   .     S
C794   C795    1.527   .     S
C794   H1063   1.102   .     S
C794   C911    1.532   .     S
C794   H1061   1.109   .     S
C795   H1059   1.109   .     S
C795   H1060   1.109   .     S
C795   H1058   1.111   .     S
C796   H1067   1.110   .     S
C796   C797    1.531   .     S
C796   H1068   1.109   .     S
C796   C912    1.532   .     S
C797   H1065   1.109   .     S
C797   H1064   1.109   .     S
C797   H1066   1.111   .     S
C798   C799    1.526   .     S
C798   H1072   1.108   .     S
C798   C913    1.529   .     S
C798   H1074   1.106   .     S
C799   H1070   1.110   .     S
C799   H1071   1.109   .     S
C799   H1069   1.110   .     S
C800   H1076   1.111   .     S
C800   C801    1.521   .     S
C800   O1302   1.414   .     S
C800   H2411   1.115   1_545 S
C801   H1077   1.111   .     S
C801   H1079   1.110   .     S
C801   H1078   1.110   .     S
C802   H1081   1.111   .     S
C802   C804    1.521   .     S
C802   O1304   1.413   .     S
C802   H2416   1.114   1_545 S
C803   C873    1.404   .     A
C803   O1308   1.385   .     S
C804   H1085   1.110   .     S
C804   H1083   1.110   .     S
C804   H1082   1.111   .     S
C805   O1305   1.413   .     S
C805   C806    1.521   .     S
C805   H1087   1.112   .     S
C805   H418    1.115   1_655 S
C806   H1088   1.111   .     S
C806   H1089   1.110   .     S
C806   H1090   1.110   .     S
C807   H1092   1.112   .     S
C807   C808    1.521   .     S
C807   O1306   1.413   .     S
C807   H423    1.115   1_655 S
C808   H1094   1.110   .     S
C808   H1096   1.110   .     S
C808   H1093   1.111   .     S
C809   H1098   1.112   .     S
C809   O1307   1.413   .     S
C809   C810    1.521   .     S
C809   H2433   1.115   .     S
C810   H1100   1.110   .     S
C810   H1101   1.110   .     S
C810   H1099   1.111   .     S
C811   C812    1.521   .     S
C811   O1308   1.413   .     S
C811   H1103   1.112   .     S
C811   H2438   1.115   .     S
C812   H1105   1.110   .     S
C812   H1107   1.110   .     S
C812   H1104   1.111   .     S
C813   C815    1.521   .     S
C813   O1309   1.414   .     S
C813   H1109   1.112   .     S
C814   O1309   1.385   .     S
C814   C884    1.406   .     A
C815   H1112   1.110   .     S
C815   H1110   1.111   .     S
C816   H1114   1.112   .     S
C816   C817    1.521   .     S
C816   O1310   1.413   .     S
C817   H1118   1.110   .     S
C817   H1116   1.110   .     S
C817   H1115   1.111   .     S
C818   H1119   1.115   .     S
C818   O1311   1.414   .     S
C818   C819    1.521   .     S
C818   H1120   1.112   .     S
C819   H1122   1.110   .     S
C819   H1123   1.110   .     S
C819   H1121   1.111   .     S
C820   O1312   1.414   .     S
C820   H1124   1.115   .     S
C820   H1125   1.111   .     S
C820   C821    1.521   .     S
C821   H1129   1.110   .     S
C821   H1127   1.110   .     S
C821   H1126   1.111   .     S
C822   C823    1.521   .     S
C822   O1313   1.413   .     S
C822   H1130   1.116   .     S
C822   H1131   1.112   .     S
C823   H1134   1.111   .     S
C823   H1133   1.110   .     S
C823   H1132   1.111   .     S
C824   O1315   1.413   .     S
C824   H1136   1.112   .     S
C824   C826    1.521   .     S
C824   H1135   1.115   .     S
C825   C895    1.403   .     A
C825   O1310   1.385   .     S
C826   H1141   1.110   .     S
C826   H1137   1.111   .     S
C826   H1138   1.110   .     S
C827   H1142   1.115   .     S
C827   H1143   1.112   .     S
C827   C828    1.521   .     S
C827   O1316   1.413   .     S
C828   H1144   1.111   .     S
C828   H1145   1.110   .     S
C828   H1146   1.110   .     S
C829   H1147   1.115   .     S
C829   C830    1.521   .     S
C829   O1317   1.413   .     S
C829   H1148   1.112   .     S
C830   H1149   1.111   .     S
C830   H1152   1.110   .     S
C830   H1150   1.110   .     S
C831   H1153   1.115   .     S
C831   H1154   1.112   .     S
C831   O1318   1.413   .     S
C831   C832    1.521   .     S
C832   H1155   1.111   .     S
C832   H1157   1.111   .     S
C832   H1156   1.110   .     S
C833   H1159   1.112   .     S
C833   O1319   1.413   .     S
C833   C834    1.521   .     S
C833   H1158   1.115   .     S
C834   H1161   1.110   .     S
C834   H1160   1.111   .     S
C834   H1163   1.110   .     S
C835   C906    1.401   .     A
C835   O1311   1.385   .     S
C836   O1312   1.385   .     S
C837   O1313   1.384   .     S
C838   O1315   1.385   .     S
C839   O1316   1.384   .     S
C840   O1287   1.385   .     S
C840   C178    1.402   1_655 S
C841   O1317   1.385   .     S
C841   C22     1.412   1_655 S
C842   O1318   1.384   .     S
C842   C2027   1.414   1_545 S
C843   O1319   1.385   .     S
C843   C2029   1.411   .     S
C844   C862    1.403   .     A
C844   C2005   1.405   .     S
C844   C845    1.465   1_554 S
C845   C873    1.403   .     A
C845   C844    1.465   1_556 S
C845   C2116   1.405   .     S
C846   C884    1.402   .     A
C846   C847    1.466   1_554 S
C847   C895    1.403   .     A
C847   C846    1.466   1_556 S
C848   C906    1.406   .     A
C848   C35     1.403   1_655 S
C848   C181    1.466   1_655 S
C850   C2061   1.402   .     S
C850   C2188   1.467   .     S
C851   O1288   1.385   .     S
C851   C179    1.403   1_655 S
C852   C2072   1.403   1_545 S
C852   C2186   1.467   1_545 S
C853   O2617   1.279   1_545 A
C853   O1320   1.280   .     S
C854   O1238   1.281   .     A
C854   O2628   1.282   .     S
C855   O1303   1.278   .     A
C856   O1240   1.279   .     S
C857   O1241   1.280   .     A
C857   O1245   1.280   .     A
C858   C19     1.470   1_655 S
C858   O574    1.281   1_655 S
C858   O578    1.281   1_655 S
C859   O1247   1.279   .     A
C859   O1243   1.278   .     A
C859   C2022   1.469   1_545 S
C860   O2580   1.278   .     S
C860   O2585   1.279   .     S
C861   O1278   1.274   .     A
C861   C916    1.449   .     S
C861   O1250   1.275   .     A
C862   O1289   1.385   .     S
C863   O1279   1.283   .     A
C863   O1251   1.269   .     A
C864   O1276   1.273   .     A
C864   O1252   1.275   .     A
C865   O1277   1.282   .     A
C865   O1253   1.270   .     A
C866   O1254   1.275   .     A
C866   O1283   1.275   .     A
C867   O1284   1.274   .     A
C867   O1255   1.274   .     A
C868   O1256   1.278   .     A
C868   O1280   1.273   .     A
C868   C914    1.454   .     S
C869   O1282   1.275   .     A
C869   C915    1.451   .     S
C869   O1257   1.274   .     A
C870   O1258   1.276   .     A
C870   O1269   1.271   .     A
C871   O1271   1.279   .     A
C871   O1260   1.272   .     A
C872   O1261   1.277   .     A
C872   O1267   1.272   .     A
C873   O1290   1.385   .     S
C874   O1268   1.276   .     A
C874   O1262   1.275   .     A
C875   O1274   1.275   .     A
C875   O1263   1.275   .     A
C876   O1275   1.274   .     A
C876   O1264   1.275   .     A
C877   O1265   1.275   .     A
C877   O1272   1.274   .     A
C878   O1266   1.273   .     A
C878   O1273   1.275   .     A
C879   C896    1.411   .     A
C880   C894    1.413   .     A
C881   C893    1.417   .     A
C882   C892    1.414   .     A
C883   C891    1.416   .     A
C884   O1291   1.387   .     S
C885   C890    1.414   .     A
C886   C889    1.411   .     A
C887   C888    1.413   .     A
C893   C916    1.416   .     A
C894   C915    1.417   .     A
C895   O1293   1.384   .     S
C896   C914    1.420   .     A
C897   C913    1.412   .     A
C897   C915    1.415   .     A
C898   C914    1.418   .     A
C898   C912    1.413   .     A
C899   C911    1.407   .     A
C900   C916    1.416   .     A
C900   C910    1.412   .     A
C901   C909    1.409   .     A
C902   C908    1.411   .     A
C903   C907    1.413   .     A
C904   C905    1.413   .     A
C906   O1294   1.385   .     S
H917   C694    1.111   1_556 S
H918   C697    1.111   1_554 S
H1075  C2136   1.115   .     S
H1080  C2138   1.114   .     S
H1097  C2145   1.115   1_545 S
H1102  C2147   1.115   1_545 S
H1108  C145    1.115   1_655 S
H1111  C147    1.110   1_655 S
H1113  C148    1.115   1_655 S
H1169  C710    1.111   1_556 S
H1171  C695    1.111   1_556 S
H1182  C695    1.111   1_556 S
H1193  C696    1.111   1_554 S
H1226  C697    1.111   1_554 S
O1237  Zn1321  1.940   .     S
O1237  Zn1332  1.939   .     S
O1237  Zn1324  1.943   .     S
O1237  Zn2664  1.943   1_545 S
O1238  Zn1323  1.940   .     S
O1239  Zn1326  1.940   .     S
O1239  C187    1.279   1_655 S
O1240  Zn1325  1.940   .     S
O1241  Zn1335  1.940   .     S
O1242  Zn1334  1.940   .     S
O1243  Zn1329  1.939   .     S
O1244  Zn1321  1.939   .     S
O1244  C2196   1.278   1_545 S
O1245  Zn1331  1.940   .     S
O1246  Zn1330  1.940   .     S
O1247  Zn1333  1.940   .     S
O1248  Zn1329  1.940   .     S
O1248  Zn1327  1.943   .     S
O1248  Zn1333  1.939   .     S
O1248  Zn2659  1.943   1_545 S
O1249  Zn1332  1.940   .     S
O1249  C2196   1.279   1_545 S
O1250  Zn1324  1.929   .     S
O1251  Zn1323  1.929   .     S
O1252  Zn1326  1.931   .     S
O1253  Zn1325  1.931   .     S
O1254  Zn1328  1.929   .     S
O1255  Zn1327  1.929   .     S
O1256  Zn1322  1.931   .     S
O1257  Zn1336  1.931   .     S
O1258  Zn1323  1.929   .     S
O1259  Zn1322  1.940   .     S
O1259  Zn1330  1.943   .     S
O1259  Zn1334  1.943   .     S
O1260  Zn1324  1.929   .     S
O1261  Zn1336  1.930   .     S
O1262  Zn1322  1.930   .     S
O1263  Zn1327  1.930   .     S
O1264  Zn1328  1.930   .     S
O1265  Zn1325  1.931   .     S
O1266  Zn1326  1.931   .     S
O1267  Zn663   1.929   1_655 S
O1268  Zn1330  1.929   .     S
O1269  Zn2669  1.931   .     S
O1270  Zn1325  1.939   .     S
O1270  Zn1331  1.943   .     S
O1270  Zn1335  1.943   .     S
O1271  Zn1332  1.931   .     S
O1272  Zn1335  1.929   .     S
O1273  Zn666   1.929   1_655 S
O1274  Zn1329  1.931   .     S
O1275  Zn2657  1.931   .     S
O1276  Zn662   1.929   1_655 S
O1277  Zn1331  1.929   .     S
O1278  Zn1321  1.930   .     S
O1279  Zn2665  1.930   .     S
O1280  Zn1334  1.930   .     S
O1281  Zn1328  1.940   .     S
O1281  C2189   1.279   .     A
O1282  Zn667   1.930   1_655 S
O1283  Zn2668  1.931   .     S
O1284  Zn1333  1.931   .     S
O1292  Zn1327  1.940   .     S
O1292  C2190   1.282   1_545 S
O1303  Zn1322  1.939   .     S
O1314  Zn1336  1.939   .     S
O1314  C188    1.278   1_655 A
O1320  Zn1324  1.940   .     S
Zn1321 O2611   1.931   1_545 S
Zn1323 O2584   1.943   .     S
Zn1326 O591    1.939   1_655 S
Zn1328 O2573   1.943   .     S
Zn1329 O2615   1.930   1_545 S
Zn1332 O2619   1.931   1_545 S
Zn1333 O2605   1.931   1_545 S
Zn1336 O602    1.940   1_655 S
C1337  C1415   1.402   .     A
C1337  O1953   1.384   .     S
C1338  C1517   1.405   .     A
C1338  C1504   1.401   .     A
C1338  O1963   1.384   .     S
C1339  C1560   1.419   .     A
C1339  C1531   1.455   .     S
C1339  C1567   1.420   .     A
C1340  C1532   1.450   .     S
C1340  C1570   1.418   .     A
C1340  C1559   1.419   .     A
C1341  C1558   1.419   .     A
C1341  C1533   1.457   .     S
C1341  C1569   1.421   .     A
C1342  C1572   1.417   .     A
C1342  C1557   1.417   .     A
C1342  C1534   1.454   .     S
C1343  C1556   1.417   .     A
C1343  C1571   1.417   .     A
C1343  C1535   1.453   .     S
C1344  C1555   1.417   .     A
C1344  C1545   1.452   .     S
C1344  C1575   1.416   .     A
C1345  C1554   1.414   .     A
C1345  C1546   1.450   .     S
C1345  C1573   1.417   .     A
C1346  C1538   1.450   .     S
C1346  C1577   1.413   .     A
C1346  C1553   1.417   .     A
C1347  C1576   1.417   .     A
C1347  C1551   1.421   .     A
C1347  C1539   1.454   .     S
C1348  C1550   1.417   .     A
C1348  C1540   1.451   .     S
C1348  C1579   1.412   .     A
C1349  C1505   1.403   .     A
C1349  C1518   1.402   .     A
C1349  O1964   1.385   .     S
C1350  C1549   1.421   .     A
C1350  C1542   1.455   .     S
C1350  C1578   1.418   .     A
C1351  C1548   1.417   .     A
C1351  C1543   1.454   .     S
C1351  C1581   1.417   .     A
C1352  C1580   1.417   .     A
C1352  C1547   1.416   .     A
C1352  C1544   1.451   .     S
C1353  C1460   1.412   .     A
C1353  C1528   1.469   .     S
C1353  C79     1.413   1_565 S
C1354  C1471   1.412   .     A
C1354  C90     1.413   1_565 S
C1354  C191    1.469   1_565 S
C1355  C1482   1.413   .     A
C1355  C2105   1.412   1_455 S
C1355  C2194   1.470   1_455 S
C1356  C1525   1.468   .     S
C1356  C1493   1.412   .     A
C1356  C2117   1.412   1_455 S
C1357  C2192   1.468   .     S
C1357  C1503   1.412   .     A
C1357  C2175   1.412   .     S
C1358  C1504   1.413   .     A
C1358  C1523   1.470   .     S
C1358  C2177   1.412   1_455 S
C1359  C1522   1.473   .     S
C1359  C1505   1.414   .     A
C1359  C174    1.414   1_565 S
C1360  C1520   1.403   .     A
C1360  C1506   1.405   .     A
C1360  O1965   1.385   .     S
C1361  C1506   1.411   .     A
C1361  C1521   1.466   .     S
C1362  O1953   1.410   .     S
C1362  H1696   1.116   .     S
C1362  C1363   1.521   .     S
C1362  H1585   1.111   1_554 S
C1363  H1807   1.111   .     S
C1363  H1839   1.111   1_554 S
C1363  H1850   1.111   1_554 S
C1364  C1365   1.521   .     S
C1364  O1954   1.411   .     S
C1364  H1872   1.116   .     S
C1364  H1861   1.111   1_556 S
C1365  H1883   1.111   .     S
C1365  H1586   1.111   1_556 S
C1365  H1894   1.111   1_556 S
C1366  O1955   1.413   .     S
C1366  H1608   1.111   .     S
C1366  H1597   1.116   .     S
C1366  C1367   1.521   1_554 S
C1367  H1619   1.111   .     S
C1367  H1641   1.111   .     S
C1367  H1630   1.111   .     S
C1367  C1366   1.521   1_556 S
C1368  H1663   1.111   .     S
C1368  H1652   1.116   .     S
C1368  O1956   1.413   .     S
C1368  C1369   1.521   1_556 S
C1369  H1685   1.110   .     S
C1369  H1674   1.111   .     S
C1369  H1697   1.111   .     S
C1369  C1368   1.521   1_554 S
C1370  H1708   1.116   .     S
C1370  O1957   1.413   .     S
C1370  H1719   1.111   .     S
C1370  C1372   1.521   1_554 S
C1371  C1507   1.404   .     A
C1371  O1966   1.385   .     S
C1371  C2184   1.403   1_455 S
C1372  H1730   1.111   .     S
C1372  H1741   1.111   .     S
C1372  H1752   1.111   .     S
C1372  C1370   1.521   1_556 S
C1373  H1763   1.116   .     S
C1373  H1774   1.111   .     S
C1373  O1958   1.413   .     S
C1373  C1374   1.521   1_556 S
C1374  H1808   1.111   .     S
C1374  H1796   1.110   .     S
C1374  H1785   1.111   .     S
C1374  C1373   1.521   1_554 S
C1375  H1819   1.116   .     S
C1375  H1830   1.111   .     S
C1375  O1959   1.414   .     S
C1375  C1376   1.521   1_554 S
C1376  H1832   1.111   .     S
C1376  H1833   1.111   .     S
C1376  H1834   1.111   .     S
C1376  C1375   1.521   1_556 S
C1377  H1836   1.112   .     S
C1377  H1835   1.113   .     S
C1377  O1961   1.411   .     S
C1377  C1378   1.521   1_556 S
C1378  H1838   1.110   .     S
C1378  H1840   1.111   .     S
C1378  C1377   1.521   1_554 S
C1378  H1837   1.111   1_554 S
C1379  C1380   1.521   .     S
C1379  O1962   1.410   .     S
C1379  H1842   1.116   .     S
C1379  H1841   1.111   .     S
C1380  H1844   1.111   .     S
C1380  H1843   1.111   .     S
C1380  H1845   1.111   .     S
C1381  H1847   1.116   .     S
C1381  O1963   1.411   .     S
C1381  H1846   1.111   .     S
C1381  C1383   1.521   .     S
C1382  C1509   1.404   .     A
C1382  O1967   1.385   .     S
C1382  C2185   1.403   .     S
C1383  H1851   1.111   .     S
C1383  H1849   1.111   .     S
C1383  H1848   1.111   .     S
C1384  O1964   1.413   .     S
C1384  H1852   1.116   .     S
C1384  H1853   1.111   .     S
C1384  C1385   1.521   .     S
C1385  H1855   1.111   .     S
C1385  H1854   1.111   .     S
C1385  H1856   1.111   .     S
C1386  H1858   1.111   .     S
C1386  C1387   1.521   .     S
C1386  H1857   1.116   .     S
C1386  O1965   1.413   .     S
C1387  H1862   1.111   .     S
C1387  H1860   1.110   .     S
C1387  H1859   1.111   .     S
C1388  H1863   1.116   .     S
C1388  C1389   1.521   .     S
C1388  O1966   1.413   .     S
C1388  H1864   1.111   .     S
C1389  H1866   1.110   .     S
C1389  H1865   1.111   .     S
C1389  H1867   1.111   .     S
C1390  H1869   1.111   .     S
C1390  C1391   1.521   .     S
C1390  O1967   1.413   .     S
C1390  H1868   1.116   .     S
C1391  H1871   1.110   .     S
C1391  H1873   1.111   .     S
C1391  H1870   1.111   .     S
C1392  H1874   1.116   .     S
C1392  O1968   1.414   .     S
C1392  C1394   1.521   .     S
C1392  H1875   1.111   .     S
C1393  C1510   1.405   .     A
C1393  O1968   1.386   .     S
C1394  H1878   1.111   .     S
C1394  H1876   1.111   .     S
C1394  H1877   1.111   .     S
C1395  H1880   1.112   .     S
C1395  C1396   1.521   .     S
C1395  O1969   1.412   .     S
C1395  H1879   1.115   .     S
C1396  H1882   1.110   .     S
C1396  H1884   1.111   .     S
C1396  H1881   1.111   .     S
C1397  C1398   1.532   .     S
C1397  H1889   1.109   .     S
C1397  H1888   1.110   .     S
C1397  C1547   1.532   .     S
C1398  H1886   1.107   .     S
C1398  H1887   1.110   .     S
C1398  H1885   1.108   .     S
C1399  C1548   1.532   .     S
C1399  H1893   1.108   .     S
C1399  H1895   1.105   .     S
C1399  C1400   1.527   .     S
C1400  H1890   1.110   .     S
C1400  H1892   1.110   .     S
C1400  H1891   1.110   .     S
C1401  H1900   1.106   .     S
C1401  H1899   1.109   .     S
C1401  C1549   1.532   .     S
C1401  C1402   1.527   .     S
C1402  H1898   1.104   .     S
C1402  H1896   1.110   .     S
C1402  H1897   1.108   .     S
C1403  C1405   1.527   .     S
C1403  H1904   1.107   .     S
C1403  C1550   1.533   .     S
C1403  H1587   1.104   .     S
C1404  C1511   1.404   .     A
C1404  O1969   1.385   .     S
C1404  C184    1.403   1_565 S
C1405  H1901   1.111   .     S
C1405  H1903   1.111   .     S
C1405  H1902   1.110   .     S
C1406  H1592   1.109   .     S
C1406  C1551   1.536   .     S
C1406  C1407   1.528   .     S
C1406  H1591   1.102   .     S
C1407  H1590   1.111   .     S
C1407  H1589   1.108   .     S
C1407  H1588   1.110   .     S
C1408  C1409   1.527   .     S
C1408  H1598   1.104   .     S
C1408  C1553   1.533   .     S
C1408  H1596   1.107   .     S
C1409  H1593   1.111   .     S
C1409  H1595   1.111   .     S
C1409  H1594   1.110   .     S
C1410  H1603   1.107   .     S
C1410  C1554   1.534   .     S
C1410  C1411   1.529   .     S
C1410  H1602   1.109   .     S
C1411  H1599   1.110   .     S
C1411  H1601   1.109   .     S
C1411  H1600   1.109   .     S
C1412  C1413   1.528   .     S
C1412  H1609   1.105   .     S
C1412  C1555   1.532   .     S
C1412  H1607   1.108   .     S
C1413  H1605   1.110   .     S
C1413  H1604   1.110   .     S
C1413  H1606   1.111   .     S
C1414  H1614   1.109   .     S
C1414  C1416   1.530   .     S
C1414  C1556   1.530   .     S
C1414  H1613   1.109   .     S
C1415  O1970   1.386   .     S
C1416  H1612   1.110   .     S
C1416  H1610   1.109   .     S
C1416  H1611   1.109   .     S
C1417  H1618   1.107   .     S
C1417  C1557   1.527   .     S
C1417  C1418   1.526   .     S
C1417  H1620   1.107   .     S
C1418  H1616   1.110   .     S
C1418  H1615   1.110   .     S
C1418  H1617   1.109   .     S
C1419  H1625   1.109   .     S
C1419  C1420   1.530   .     S
C1419  C1558   1.531   .     S
C1419  H1624   1.109   .     S
C1420  H1621   1.109   .     S
C1420  H1622   1.109   .     S
C1420  H1623   1.111   .     S
C1421  C1422   1.529   .     S
C1421  H1629   1.103   .     S
C1421  H1631   1.108   .     S
C1421  C1559   1.540   .     S
C1422  H1626   1.105   .     S
C1422  H1627   1.111   .     S
C1422  H1628   1.111   .     S
C1423  C1424   1.529   .     S
C1423  H1636   1.109   .     S
C1423  C1560   1.530   .     S
C1423  H1635   1.109   .     S
C1424  H1634   1.110   .     S
C1424  H1632   1.109   .     S
C1424  H1633   1.109   .     S
C1425  H1640   1.109   .     S
C1425  H1642   1.102   .     S
C1425  C1427   1.535   .     S
C1425  C1561   1.539   .     S
C1426  C1448   1.402   .     A
C1426  O1972   1.385   .     S
C1427  H1638   1.110   .     S
C1427  H1639   1.108   .     S
C1427  H1637   1.111   .     S
C1428  C1562   1.531   .     S
C1428  C1429   1.530   .     S
C1428  H1646   1.110   .     S
C1428  H1647   1.109   .     S
C1429  H1643   1.109   .     S
C1429  H1645   1.111   .     S
C1429  H1644   1.109   .     S
C1430  H1651   1.106   .     S
C1430  C1564   1.533   .     S
C1430  C1431   1.522   .     S
C1430  H1653   1.103   .     S
C1431  H1650   1.110   .     S
C1431  H1649   1.108   .     S
C1431  H1648   1.111   .     S
C1432  H1658   1.108   .     S
C1432  C1565   1.532   .     S
C1432  C1433   1.530   .     S
C1432  H1657   1.109   .     S
C1433  H1654   1.109   .     S
C1433  H1655   1.109   .     S
C1433  H1656   1.111   .     S
C1434  H1664   1.104   .     S
C1434  C1435   1.528   .     S
C1434  H1662   1.107   .     S
C1434  C1566   1.534   .     S
C1435  H1660   1.109   .     S
C1435  H1659   1.111   .     S
C1435  H1661   1.111   .     S
C1436  H1669   1.105   .     S
C1436  H1668   1.107   .     S
C1436  C1567   1.531   .     S
C1436  C1438   1.524   .     S
C1437  C1508   1.404   .     A
C1437  O1973   1.385   .     S
C1437  C2023   1.412   .     S
C1438  H1667   1.109   .     S
C1438  H1665   1.109   .     S
C1438  H1666   1.110   .     S
C1439  C1440   1.528   .     S
C1439  H1673   1.108   .     S
C1439  H1675   1.105   .     S
C1439  C1568   1.533   .     S
C1440  H1671   1.110   .     S
C1440  H1670   1.110   .     S
C1440  H1672   1.111   .     S
C1441  H1680   1.104   .     S
C1441  C1569   1.529   .     S
C1441  C1442   1.522   .     S
C1441  H1679   1.107   .     S
C1442  H1678   1.109   .     S
C1442  H1676   1.110   .     S
C1442  H1677   1.110   .     S
C1443  H1686   1.104   .     S
C1443  H1684   1.106   .     S
C1443  C1570   1.535   .     S
C1443  C1444   1.528   .     S
C1444  H1682   1.110   .     S
C1444  H1681   1.111   .     S
C1444  H1683   1.111   .     S
C1445  H1690   1.109   .     S
C1445  H1691   1.109   .     S
C1445  C1446   1.530   .     S
C1445  C1571   1.530   .     S
C1446  H1688   1.108   .     S
C1446  H1689   1.109   .     S
C1446  H1687   1.111   .     S
C1447  C1572   1.532   .     S
C1447  H1695   1.108   .     S
C1447  H1698   1.105   .     S
C1447  C1450   1.527   .     S
C1448  O1954   1.385   .     S
C1449  C1519   1.405   .     A
C1449  O1974   1.385   .     S
C1449  C2024   1.412   .     S
C1450  H1692   1.110   .     S
C1450  H1693   1.110   .     S
C1450  H1694   1.111   .     S
C1451  C1573   1.530   .     S
C1451  C1452   1.530   .     S
C1451  H1702   1.110   .     S
C1451  H1703   1.109   .     S
C1452  H1700   1.109   .     S
C1452  H1699   1.109   .     S
C1452  H1701   1.111   .     S
C1453  C1575   1.532   .     S
C1453  H1709   1.105   .     S
C1453  C1454   1.527   .     S
C1453  H1707   1.108   .     S
C1454  H1706   1.110   .     S
C1454  H1705   1.110   .     S
C1454  H1704   1.110   .     S
C1455  C1576   1.532   .     S
C1455  H1714   1.109   .     S
C1455  H1713   1.109   .     S
C1455  C1456   1.530   .     S
C1456  H1712   1.110   .     S
C1456  H1711   1.109   .     S
C1456  H1710   1.109   .     S
C1457  C1577   1.536   .     S
C1457  H1718   1.109   .     S
C1457  C1458   1.530   .     S
C1457  H1720   1.102   .     S
C1458  H1716   1.107   .     S
C1458  H1717   1.111   .     S
C1458  H1715   1.111   .     S
C1459  H1725   1.109   .     S
C1459  C1461   1.530   .     S
C1459  H1724   1.110   .     S
C1459  C1578   1.531   .     S
C1460  C1530   1.404   .     A
C1460  O1975   1.385   .     S
C1461  H1722   1.108   .     S
C1461  H1721   1.109   .     S
C1461  H1723   1.111   .     S
C1462  C1463   1.527   .     S
C1462  H1731   1.102   .     S
C1462  C1579   1.532   .     S
C1462  H1729   1.109   .     S
C1463  H1727   1.109   .     S
C1463  H1728   1.109   .     S
C1463  H1726   1.111   .     S
C1464  H1735   1.110   .     S
C1464  C1465   1.531   .     S
C1464  H1736   1.109   .     S
C1464  C1580   1.532   .     S
C1465  H1733   1.109   .     S
C1465  H1732   1.109   .     S
C1465  H1734   1.111   .     S
C1466  C1467   1.526   .     S
C1466  H1740   1.108   .     S
C1466  C1581   1.529   .     S
C1466  H1742   1.106   .     S
C1467  H1738   1.110   .     S
C1467  H1739   1.109   .     S
C1467  H1737   1.110   .     S
C1468  H1744   1.111   .     S
C1468  C1469   1.521   .     S
C1468  O1970   1.414   .     S
C1469  H1745   1.111   .     S
C1469  H1747   1.110   .     S
C1469  H1746   1.110   .     S
C1470  H1749   1.111   .     S
C1470  C1472   1.521   .     S
C1470  O1972   1.413   .     S
C1471  C1541   1.404   .     A
C1471  O1976   1.385   .     S
C1472  H1753   1.110   .     S
C1472  H1751   1.110   .     S
C1472  H1750   1.111   .     S
C1473  O1973   1.413   .     S
C1473  C1474   1.521   .     S
C1473  H1755   1.112   .     S
C1473  H2422   1.115   .     S
C1474  H1756   1.111   .     S
C1474  H1757   1.110   .     S
C1474  H1758   1.110   .     S
C1475  H1760   1.112   .     S
C1475  C1476   1.521   .     S
C1475  O1974   1.413   .     S
C1475  H2427   1.115   .     S
C1476  H1762   1.110   .     S
C1476  H1764   1.110   .     S
C1476  H1761   1.111   .     S
C1477  H1766   1.112   .     S
C1477  O1975   1.413   .     S
C1477  C1478   1.521   .     S
C1477  H429    1.115   1_565 S
C1478  H1768   1.110   .     S
C1478  H1769   1.110   .     S
C1478  H1767   1.111   .     S
C1479  C1480   1.521   .     S
C1479  O1976   1.413   .     S
C1479  H1771   1.112   .     S
C1479  H434    1.115   1_565 S
C1480  H1773   1.110   .     S
C1480  H1775   1.110   .     S
C1480  H1772   1.111   .     S
C1481  C1483   1.521   .     S
C1481  O1977   1.414   .     S
C1481  H1777   1.112   .     S
C1481  H2444   1.115   1_455 S
C1482  O1977   1.385   .     S
C1482  C1552   1.406   .     A
C1483  H1780   1.110   .     S
C1483  H1778   1.111   .     S
C1483  H2447   1.110   1_455 S
C1484  H1782   1.112   .     S
C1484  C1485   1.521   .     S
C1484  O1978   1.413   .     S
C1484  H2449   1.115   1_455 S
C1485  H1786   1.110   .     S
C1485  H1784   1.110   .     S
C1485  H1783   1.111   .     S
C1486  H1787   1.115   .     S
C1486  O1979   1.414   .     S
C1486  C1487   1.521   .     S
C1486  H1788   1.112   .     S
C1487  H1790   1.110   .     S
C1487  H1791   1.110   .     S
C1487  H1789   1.111   .     S
C1488  O1980   1.414   .     S
C1488  H1792   1.115   .     S
C1488  H1793   1.111   .     S
C1488  C1489   1.521   .     S
C1489  H1797   1.110   .     S
C1489  H1795   1.110   .     S
C1489  H1794   1.111   .     S
C1490  C1491   1.521   .     S
C1490  O1981   1.413   .     S
C1490  H1798   1.116   .     S
C1490  H1799   1.112   .     S
C1491  H1802   1.111   .     S
C1491  H1801   1.110   .     S
C1491  H1800   1.111   .     S
C1492  O1983   1.413   .     S
C1492  H1804   1.112   .     S
C1492  C1494   1.521   .     S
C1492  H1803   1.115   .     S
C1493  C1563   1.403   .     A
C1493  O1978   1.385   .     S
C1494  H1809   1.110   .     S
C1494  H1805   1.111   .     S
C1494  H1806   1.110   .     S
C1495  H1810   1.115   .     S
C1495  H1811   1.112   .     S
C1495  C1496   1.521   .     S
C1495  O1984   1.413   .     S
C1496  H1812   1.111   .     S
C1496  H1813   1.110   .     S
C1496  H1814   1.110   .     S
C1497  H1815   1.115   .     S
C1497  C1498   1.521   .     S
C1497  O1985   1.413   .     S
C1497  H1816   1.112   .     S
C1498  H1817   1.111   .     S
C1498  H1820   1.110   .     S
C1498  H1818   1.110   .     S
C1499  H1821   1.115   .     S
C1499  H1822   1.112   .     S
C1499  O1986   1.413   .     S
C1499  C1500   1.521   .     S
C1500  H1823   1.111   .     S
C1500  H1825   1.111   .     S
C1500  H1824   1.110   .     S
C1501  H1827   1.112   .     S
C1501  O1987   1.413   .     S
C1501  C1502   1.521   .     S
C1501  H1826   1.115   .     S
C1502  H1829   1.110   .     S
C1502  H1828   1.111   .     S
C1502  H1831   1.110   .     S
C1503  C1574   1.401   .     A
C1503  O1979   1.385   .     S
C1504  O1980   1.385   .     S
C1505  O1981   1.384   .     S
C1506  O1983   1.385   .     S
C1507  O1984   1.384   .     S
C1507  C2025   1.412   1_455 S
C1508  O1955   1.385   .     S
C1508  C2182   1.402   .     S
C1509  O1985   1.385   .     S
C1509  C2026   1.412   .     S
C1510  O1986   1.384   .     S
C1511  O1987   1.385   .     S
C1511  C25     1.411   1_565 S
C1512  C1530   1.403   .     A
C1512  C1      1.405   1_565 S
C1512  C1513   1.465   1_554 S
C1513  C1541   1.403   .     A
C1513  C1512   1.465   1_556 S
C1513  C112    1.405   1_565 S
C1514  C1552   1.402   .     A
C1514  C2176   1.402   1_455 S
C1514  C1515   1.466   1_554 S
C1515  C1563   1.403   .     A
C1515  C1514   1.466   1_556 S
C1515  C2187   1.403   1_455 S
C1516  C1574   1.406   .     A
C1516  C2039   1.403   .     S
C1516  C2185   1.466   .     S
C1517  C2050   1.403   1_455 S
C1517  C2184   1.466   1_455 S
C1518  C57     1.402   1_565 S
C1518  C184    1.467   1_565 S
C1519  O1956   1.385   .     S
C1519  C2183   1.403   .     S
C1521  O1988   1.280   .     S
C1522  O1906   1.281   .     A
C1522  O624    1.282   1_565 S
C1523  O1971   1.278   .     A
C1523  O2575   1.279   1_455 S
C1524  C2025   1.468   1_455 S
C1524  O2650   1.278   1_455 A
C1524  O1908   1.279   .     S
C1525  O1909   1.280   .     A
C1525  O1913   1.280   .     A
C1526  C2023   1.470   .     S
C1526  O2578   1.281   .     S
C1526  O2582   1.281   .     S
C1527  O1915   1.279   .     A
C1527  O1911   1.278   .     A
C1528  O576    1.278   1_565 S
C1528  O581    1.279   1_565 S
C1529  O1946   1.274   .     A
C1529  C1584   1.449   .     S
C1529  O1918   1.275   .     A
C1530  O1957   1.385   .     S
C1531  O1947   1.283   .     A
C1531  O1919   1.269   .     A
C1532  O1944   1.273   .     A
C1532  O1920   1.275   .     A
C1533  O1945   1.282   .     A
C1533  O1921   1.270   .     A
C1534  O1922   1.275   .     A
C1534  O1951   1.275   .     A
C1535  O1952   1.274   .     A
C1535  O1923   1.274   .     A
C1536  O1924   1.278   .     A
C1536  O1948   1.273   .     A
C1536  C1582   1.454   .     S
C1537  O1950   1.275   .     A
C1537  C1583   1.451   .     S
C1537  O1925   1.274   .     A
C1538  O1926   1.276   .     A
C1538  O1937   1.271   .     A
C1539  O1939   1.279   .     A
C1539  O1928   1.272   .     A
C1540  O1929   1.277   .     A
C1540  O1935   1.272   .     A
C1541  O1958   1.385   .     S
C1542  O1936   1.276   .     A
C1542  O1930   1.275   .     A
C1543  O1942   1.275   .     A
C1543  O1931   1.275   .     A
C1544  O1943   1.274   .     A
C1544  O1932   1.275   .     A
C1545  O1933   1.275   .     A
C1545  O1940   1.274   .     A
C1546  O1934   1.273   .     A
C1546  O1941   1.275   .     A
C1547  C1564   1.411   .     A
C1548  C1562   1.413   .     A
C1549  C1561   1.417   .     A
C1550  C1560   1.414   .     A
C1551  C1559   1.416   .     A
C1552  O1959   1.387   .     S
C1553  C1558   1.414   .     A
C1554  C1557   1.411   .     A
C1555  C1556   1.413   .     A
C1561  C1584   1.416   .     A
C1562  C1583   1.417   .     A
C1563  O1961   1.384   .     S
C1564  C1582   1.420   .     A
C1565  C1581   1.412   .     A
C1565  C1583   1.415   .     A
C1566  C1582   1.418   .     A
C1566  C1580   1.413   .     A
C1567  C1579   1.407   .     A
C1568  C1584   1.416   .     A
C1568  C1578   1.412   .     A
C1569  C1577   1.409   .     A
C1570  C1576   1.411   .     A
C1571  C1575   1.413   .     A
C1572  C1573   1.413   .     A
C1574  O1962   1.385   .     S
H1585  C1362   1.111   1_556 S
H1586  C1365   1.111   1_554 S
H1743  C132    1.115   1_565 S
H1748  C134    1.114   1_565 S
H1754  C2141   1.115   1_455 S
H1759  C2143   1.115   1_455 S
H1776  C2149   1.115   .     S
H1779  C2151   1.110   .     S
H1781  C2152   1.115   .     S
H1837  C1378   1.111   1_556 S
H1839  C1363   1.111   1_556 S
H1850  C1363   1.111   1_556 S
H1861  C1364   1.111   1_554 S
H1894  C1365   1.111   1_554 S
O1905  Zn1989  1.940   .     S
O1905  Zn2000  1.939   .     S
O1905  Zn1992  1.943   .     S
O1906  Zn1991  1.940   .     S
O1907  Zn1994  1.940   .     S
O1907  C2191   1.279   .     S
O1908  Zn1993  1.940   .     S
O1909  Zn2003  1.940   .     S
O1910  Zn2002  1.940   .     S
O1910  C2194   1.281   1_455 S
O1911  Zn1997  1.939   .     S
O1912  Zn1989  1.939   .     S
O1913  Zn1999  1.940   .     S
O1914  Zn1998  1.940   .     S
O1914  C2194   1.281   1_455 S
O1915  Zn2001  1.940   .     S
O1916  Zn1997  1.940   .     S
O1916  Zn1995  1.943   .     S
O1916  Zn2001  1.939   .     S
O1917  Zn2000  1.940   .     S
O1918  Zn1992  1.929   .     S
O1919  Zn1991  1.929   .     S
O1920  Zn1994  1.931   .     S
O1921  Zn1993  1.931   .     S
O1922  Zn1996  1.929   .     S
O1923  Zn1995  1.929   .     S
O1924  Zn1990  1.931   .     S
O1925  Zn2004  1.931   .     S
O1926  Zn1991  1.929   .     S
O1927  Zn1990  1.940   .     S
O1927  Zn1998  1.943   .     S
O1927  Zn2002  1.943   .     S
O1927  Zn2662  1.939   1_455 S
O1928  Zn1992  1.929   .     S
O1929  Zn2004  1.930   .     S
O1930  Zn1990  1.930   .     S
O1931  Zn1995  1.930   .     S
O1932  Zn1996  1.930   .     S
O1933  Zn1993  1.931   .     S
O1934  Zn1994  1.931   .     S
O1935  Zn2667  1.929   .     S
O1936  Zn1998  1.929   .     S
O1937  Zn665   1.931   1_565 S
O1938  Zn1993  1.939   .     S
O1938  Zn1999  1.943   .     S
O1938  Zn2003  1.943   .     S
O1938  Zn2672  1.940   1_455 S
O1939  Zn2000  1.931   .     S
O1940  Zn2003  1.929   .     S
O1941  Zn2670  1.929   .     S
O1942  Zn1997  1.931   .     S
O1943  Zn653   1.931   1_565 S
O1944  Zn2666  1.929   .     S
O1945  Zn1999  1.929   .     S
O1946  Zn1989  1.930   .     S
O1947  Zn661   1.930   1_565 S
O1948  Zn2002  1.930   .     S
O1949  Zn1996  1.940   .     S
O1949  C185    1.279   1_565 A
O1950  Zn2671  1.930   .     S
O1951  Zn664   1.931   1_565 S
O1952  Zn2001  1.931   .     S
O1960  Zn1995  1.940   .     S
O1971  Zn1990  1.939   .     S
O1982  Zn2004  1.939   .     S
O1982  C2192   1.278   .     A
O1988  Zn1992  1.940   .     S
Zn1991 O580    1.943   1_565 S
Zn1994 O2595   1.939   .     S
Zn1996 O569    1.943   1_565 S
Zn1998 O2612   1.929   1_455 S
Zn1999 O2603   1.929   1_455 S
Zn2002 O2609   1.929   1_455 S
Zn2003 O2618   1.930   1_455 S
Zn2004 O2606   1.940   .     S
C2005  C2083   1.402   .     A
C2005  O2621   1.384   .     S
C2006  C2185   1.405   .     A
C2006  C2172   1.401   .     A
C2006  O2631   1.384   .     S
C2007  C2228   1.419   .     A
C2007  C2199   1.455   .     S
C2007  C2235   1.420   .     A
C2008  C2200   1.450   .     S
C2008  C2238   1.418   .     A
C2008  C2227   1.419   .     A
C2009  C2226   1.419   .     A
C2009  C2201   1.457   .     S
C2009  C2237   1.421   .     A
C2010  C2240   1.417   .     A
C2010  C2225   1.417   .     A
C2010  C2202   1.454   .     S
C2011  C2224   1.417   .     A
C2011  C2239   1.417   .     A
C2011  C2203   1.453   .     S
C2012  C2223   1.417   .     A
C2012  C2213   1.452   .     S
C2012  C2243   1.416   .     A
C2013  C2222   1.414   .     A
C2013  C2214   1.450   .     S
C2013  C2241   1.417   .     A
C2014  C2206   1.450   .     S
C2014  C2245   1.413   .     A
C2014  C2221   1.417   .     A
C2015  C2244   1.417   .     A
C2015  C2219   1.421   .     A
C2015  C2207   1.454   .     S
C2016  C2218   1.417   .     A
C2016  C2208   1.451   .     S
C2016  C2247   1.412   .     A
C2017  C2173   1.403   .     A
C2017  C2186   1.402   .     A
C2017  O2632   1.385   .     S
C2018  C2217   1.421   .     A
C2018  C2210   1.455   .     S
C2018  C2246   1.418   .     A
C2019  C2216   1.417   .     A
C2019  C2211   1.454   .     S
C2019  C2249   1.417   .     A
C2020  C2248   1.417   .     A
C2020  C2215   1.416   .     A
C2020  C2212   1.451   .     S
C2021  C2128   1.412   .     A
C2021  C2196   1.469   .     S
C2021  C747    1.413   1_565 S
C2022  C2139   1.412   .     A
C2022  C758    1.413   1_565 S
C2022  C859    1.469   1_565 S
C2023  C2150   1.413   .     A
C2024  C2193   1.468   .     S
C2024  C2161   1.412   .     A
C2025  C1524   1.468   1_655 S
C2025  C2171   1.412   .     A
C2025  C1507   1.412   1_655 S
C2026  C2172   1.413   .     A
C2026  C2191   1.470   .     S
C2027  C2190   1.473   .     S
C2027  C2173   1.414   .     A
C2027  C842    1.414   1_565 S
C2028  C2188   1.403   .     A
C2028  C2174   1.405   .     A
C2028  O2633   1.385   .     S
C2029  C2174   1.411   .     A
C2029  C2189   1.466   .     S
C2030  O2621   1.410   .     S
C2030  H2364   1.116   .     S
C2030  C2031   1.521   .     S
C2030  H2253   1.111   1_554 S
C2031  H2475   1.111   .     S
C2031  H2507   1.111   1_554 S
C2031  H2518   1.111   1_554 S
C2032  C2033   1.521   .     S
C2032  O2622   1.411   .     S
C2032  H2540   1.116   .     S
C2032  H2529   1.111   1_556 S
C2033  H2551   1.111   .     S
C2033  H2254   1.111   1_556 S
C2033  H2562   1.111   1_556 S
C2034  O2623   1.413   .     S
C2034  H2276   1.111   .     S
C2034  H2265   1.116   .     S
C2034  C2035   1.521   1_554 S
C2035  H2287   1.111   .     S
C2035  H2309   1.111   .     S
C2035  H2298   1.111   .     S
C2035  C2034   1.521   1_556 S
C2036  H2331   1.111   .     S
C2036  H2320   1.116   .     S
C2036  O2624   1.413   .     S
C2036  C2037   1.521   1_556 S
C2037  H2353   1.110   .     S
C2037  H2342   1.111   .     S
C2037  H2365   1.111   .     S
C2037  C2036   1.521   1_554 S
C2038  H2376   1.116   .     S
C2038  O2625   1.413   .     S
C2038  H2387   1.111   .     S
C2038  C2040   1.521   1_554 S
C2039  C2175   1.404   .     A
C2039  O2634   1.385   .     S
C2040  H2398   1.111   .     S
C2040  H2409   1.111   .     S
C2040  H2420   1.111   .     S
C2040  C2038   1.521   1_556 S
C2041  H2431   1.116   .     S
C2041  H2442   1.111   .     S
C2041  O2626   1.413   .     S
C2041  C2042   1.521   1_556 S
C2042  H2476   1.111   .     S
C2042  H2464   1.110   .     S
C2042  H2453   1.111   .     S
C2042  C2041   1.521   1_554 S
C2043  H2487   1.116   .     S
C2043  H2498   1.111   .     S
C2043  O2627   1.414   .     S
C2043  C2044   1.521   1_554 S
C2044  H2500   1.111   .     S
C2044  H2501   1.111   .     S
C2044  H2502   1.111   .     S
C2044  C2043   1.521   1_556 S
C2045  H2504   1.112   .     S
C2045  H2503   1.113   .     S
C2045  O2629   1.411   .     S
C2045  C2046   1.521   1_556 S
C2046  H2506   1.110   .     S
C2046  H2508   1.111   .     S
C2046  C2045   1.521   1_554 S
C2046  H2505   1.111   1_554 S
C2047  C2048   1.521   .     S
C2047  O2630   1.410   .     S
C2047  H2510   1.116   .     S
C2047  H2509   1.111   .     S
C2048  H2512   1.111   .     S
C2048  H2511   1.111   .     S
C2048  H2513   1.111   .     S
C2049  H2515   1.116   .     S
C2049  O2631   1.411   .     S
C2049  H2514   1.111   .     S
C2049  C2051   1.521   .     S
C2050  C2177   1.404   .     A
C2050  O2635   1.385   .     S
C2050  C1517   1.403   1_655 S
C2051  H2519   1.111   .     S
C2051  H2517   1.111   .     S
C2051  H2516   1.111   .     S
C2052  O2632   1.413   .     S
C2052  H2520   1.116   .     S
C2052  H2521   1.111   .     S
C2052  C2053   1.521   .     S
C2053  H2523   1.111   .     S
C2053  H2522   1.111   .     S
C2053  H2524   1.111   .     S
C2054  H2526   1.111   .     S
C2054  C2055   1.521   .     S
C2054  H2525   1.116   .     S
C2054  O2633   1.413   .     S
C2055  H2530   1.111   .     S
C2055  H2528   1.110   .     S
C2055  H2527   1.111   .     S
C2056  H2531   1.116   .     S
C2056  C2057   1.521   .     S
C2056  O2634   1.413   .     S
C2056  H2532   1.111   .     S
C2057  H2534   1.110   .     S
C2057  H2533   1.111   .     S
C2057  H2535   1.111   .     S
C2058  H2537   1.111   .     S
C2058  C2059   1.521   .     S
C2058  O2635   1.413   .     S
C2058  H2536   1.116   .     S
C2059  H2539   1.110   .     S
C2059  H2541   1.111   .     S
C2059  H2538   1.111   .     S
C2060  H2542   1.116   .     S
C2060  O2636   1.414   .     S
C2060  C2062   1.521   .     S
C2060  H2543   1.111   .     S
C2061  C2178   1.405   .     A
C2061  O2636   1.386   .     S
C2062  H2546   1.111   .     S
C2062  H2544   1.111   .     S
C2062  H2545   1.111   .     S
C2063  H2548   1.112   .     S
C2063  C2064   1.521   .     S
C2063  O2637   1.412   .     S
C2063  H2547   1.115   .     S
C2064  H2550   1.110   .     S
C2064  H2552   1.111   .     S
C2064  H2549   1.111   .     S
C2065  C2066   1.532   .     S
C2065  H2557   1.109   .     S
C2065  H2556   1.110   .     S
C2065  C2215   1.532   .     S
C2066  H2554   1.107   .     S
C2066  H2555   1.110   .     S
C2066  H2553   1.108   .     S
C2067  C2216   1.532   .     S
C2067  H2561   1.108   .     S
C2067  H2563   1.105   .     S
C2067  C2068   1.527   .     S
C2068  H2558   1.110   .     S
C2068  H2560   1.110   .     S
C2068  H2559   1.110   .     S
C2069  H2568   1.106   .     S
C2069  H2567   1.109   .     S
C2069  C2217   1.532   .     S
C2069  C2070   1.527   .     S
C2070  H2566   1.104   .     S
C2070  H2564   1.110   .     S
C2070  H2565   1.108   .     S
C2071  C2073   1.527   .     S
C2071  H2572   1.107   .     S
C2071  C2218   1.533   .     S
C2071  H2255   1.104   .     S
C2072  C2179   1.404   .     A
C2072  O2637   1.385   .     S
C2072  C852    1.403   1_565 S
C2073  H2569   1.111   .     S
C2073  H2571   1.111   .     S
C2073  H2570   1.110   .     S
C2074  H2260   1.109   .     S
C2074  C2219   1.536   .     S
C2074  C2075   1.528   .     S
C2074  H2259   1.102   .     S
C2075  H2258   1.111   .     S
C2075  H2257   1.108   .     S
C2075  H2256   1.110   .     S
C2076  C2077   1.527   .     S
C2076  H2266   1.104   .     S
C2076  C2221   1.533   .     S
C2076  H2264   1.107   .     S
C2077  H2261   1.111   .     S
C2077  H2263   1.111   .     S
C2077  H2262   1.110   .     S
C2078  H2271   1.107   .     S
C2078  C2222   1.534   .     S
C2078  C2079   1.529   .     S
C2078  H2270   1.109   .     S
C2079  H2267   1.110   .     S
C2079  H2269   1.109   .     S
C2079  H2268   1.109   .     S
C2080  C2081   1.528   .     S
C2080  H2277   1.105   .     S
C2080  C2223   1.532   .     S
C2080  H2275   1.108   .     S
C2081  H2273   1.110   .     S
C2081  H2272   1.110   .     S
C2081  H2274   1.111   .     S
C2082  H2282   1.109   .     S
C2082  C2084   1.530   .     S
C2082  C2224   1.530   .     S
C2082  H2281   1.109   .     S
C2083  O2638   1.386   .     S
C2084  H2280   1.110   .     S
C2084  H2278   1.109   .     S
C2084  H2279   1.109   .     S
C2085  H2286   1.107   .     S
C2085  C2225   1.527   .     S
C2085  C2086   1.526   .     S
C2085  H2288   1.107   .     S
C2086  H2284   1.110   .     S
C2086  H2283   1.110   .     S
C2086  H2285   1.109   .     S
C2087  H2293   1.109   .     S
C2087  C2088   1.530   .     S
C2087  C2226   1.531   .     S
C2087  H2292   1.109   .     S
C2088  H2289   1.109   .     S
C2088  H2290   1.109   .     S
C2088  H2291   1.111   .     S
C2089  C2090   1.529   .     S
C2089  H2297   1.103   .     S
C2089  H2299   1.108   .     S
C2089  C2227   1.540   .     S
C2090  H2294   1.105   .     S
C2090  H2295   1.111   .     S
C2090  H2296   1.111   .     S
C2091  C2092   1.529   .     S
C2091  H2304   1.109   .     S
C2091  C2228   1.530   .     S
C2091  H2303   1.109   .     S
C2092  H2302   1.110   .     S
C2092  H2300   1.109   .     S
C2092  H2301   1.109   .     S
C2093  H2308   1.109   .     S
C2093  H2310   1.102   .     S
C2093  C2095   1.535   .     S
C2093  C2229   1.539   .     S
C2094  C2116   1.402   .     A
C2094  O2640   1.385   .     S
C2095  H2306   1.110   .     S
C2095  H2307   1.108   .     S
C2095  H2305   1.111   .     S
C2096  C2230   1.531   .     S
C2096  C2097   1.530   .     S
C2096  H2314   1.110   .     S
C2096  H2315   1.109   .     S
C2097  H2311   1.109   .     S
C2097  H2313   1.111   .     S
C2097  H2312   1.109   .     S
C2098  H2319   1.106   .     S
C2098  C2232   1.533   .     S
C2098  C2099   1.522   .     S
C2098  H2321   1.103   .     S
C2099  H2318   1.110   .     S
C2099  H2317   1.108   .     S
C2099  H2316   1.111   .     S
C2100  H2326   1.108   .     S
C2100  C2233   1.532   .     S
C2100  C2101   1.530   .     S
C2100  H2325   1.109   .     S
C2101  H2322   1.109   .     S
C2101  H2323   1.109   .     S
C2101  H2324   1.111   .     S
C2102  H2332   1.104   .     S
C2102  C2103   1.528   .     S
C2102  H2330   1.107   .     S
C2102  C2234   1.534   .     S
C2103  H2328   1.109   .     S
C2103  H2327   1.111   .     S
C2103  H2329   1.111   .     S
C2104  H2337   1.105   .     S
C2104  H2336   1.107   .     S
C2104  C2235   1.531   .     S
C2104  C2106   1.524   .     S
C2105  C2176   1.404   .     A
C2105  O2641   1.385   .     S
C2105  C1355   1.412   1_655 S
C2106  H2335   1.109   .     S
C2106  H2333   1.109   .     S
C2106  H2334   1.110   .     S
C2107  C2108   1.528   .     S
C2107  H2341   1.108   .     S
C2107  H2343   1.105   .     S
C2107  C2236   1.533   .     S
C2108  H2339   1.110   .     S
C2108  H2338   1.110   .     S
C2108  H2340   1.111   .     S
C2109  H2348   1.104   .     S
C2109  C2237   1.529   .     S
C2109  C2110   1.522   .     S
C2109  H2347   1.107   .     S
C2110  H2346   1.109   .     S
C2110  H2344   1.110   .     S
C2110  H2345   1.110   .     S
C2111  H2354   1.104   .     S
C2111  H2352   1.106   .     S
C2111  C2238   1.535   .     S
C2111  C2112   1.528   .     S
C2112  H2350   1.110   .     S
C2112  H2349   1.111   .     S
C2112  H2351   1.111   .     S
C2113  H2358   1.109   .     S
C2113  H2359   1.109   .     S
C2113  C2114   1.530   .     S
C2113  C2239   1.530   .     S
C2114  H2356   1.108   .     S
C2114  H2357   1.109   .     S
C2114  H2355   1.111   .     S
C2115  C2240   1.532   .     S
C2115  H2363   1.108   .     S
C2115  H2366   1.105   .     S
C2115  C2118   1.527   .     S
C2116  O2622   1.385   .     S
C2117  C2187   1.405   .     A
C2117  O2642   1.385   .     S
C2117  C1356   1.412   1_655 S
C2118  H2360   1.110   .     S
C2118  H2361   1.110   .     S
C2118  H2362   1.111   .     S
C2119  C2241   1.530   .     S
C2119  C2120   1.530   .     S
C2119  H2370   1.110   .     S
C2119  H2371   1.109   .     S
C2120  H2368   1.109   .     S
C2120  H2367   1.109   .     S
C2120  H2369   1.111   .     S
C2121  C2243   1.532   .     S
C2121  H2377   1.105   .     S
C2121  C2122   1.527   .     S
C2121  H2375   1.108   .     S
C2122  H2374   1.110   .     S
C2122  H2373   1.110   .     S
C2122  H2372   1.110   .     S
C2123  C2244   1.532   .     S
C2123  H2382   1.109   .     S
C2123  H2381   1.109   .     S
C2123  C2124   1.530   .     S
C2124  H2380   1.110   .     S
C2124  H2379   1.109   .     S
C2124  H2378   1.109   .     S
C2125  C2245   1.536   .     S
C2125  H2386   1.109   .     S
C2125  C2126   1.530   .     S
C2125  H2388   1.102   .     S
C2126  H2384   1.107   .     S
C2126  H2385   1.111   .     S
C2126  H2383   1.111   .     S
C2127  H2393   1.109   .     S
C2127  C2129   1.530   .     S
C2127  H2392   1.110   .     S
C2127  C2246   1.531   .     S
C2128  C2198   1.404   .     A
C2128  O2643   1.385   .     S
C2129  H2390   1.108   .     S
C2129  H2389   1.109   .     S
C2129  H2391   1.111   .     S
C2130  C2131   1.527   .     S
C2130  H2399   1.102   .     S
C2130  C2247   1.532   .     S
C2130  H2397   1.109   .     S
C2131  H2395   1.109   .     S
C2131  H2396   1.109   .     S
C2131  H2394   1.111   .     S
C2132  H2403   1.110   .     S
C2132  C2133   1.531   .     S
C2132  H2404   1.109   .     S
C2132  C2248   1.532   .     S
C2133  H2401   1.109   .     S
C2133  H2400   1.109   .     S
C2133  H2402   1.111   .     S
C2134  C2135   1.526   .     S
C2134  H2408   1.108   .     S
C2134  C2249   1.529   .     S
C2134  H2410   1.106   .     S
C2135  H2406   1.110   .     S
C2135  H2407   1.109   .     S
C2135  H2405   1.110   .     S
C2136  H2412   1.111   .     S
C2136  C2137   1.521   .     S
C2136  O2638   1.414   .     S
C2137  H2413   1.111   .     S
C2137  H2415   1.110   .     S
C2137  H2414   1.110   .     S
C2138  H2417   1.111   .     S
C2138  C2140   1.521   .     S
C2138  O2640   1.413   .     S
C2139  C2209   1.404   .     A
C2139  O2644   1.385   .     S
C2140  H2421   1.110   .     S
C2140  H2419   1.110   .     S
C2140  H2418   1.111   .     S
C2141  O2641   1.413   .     S
C2141  C2142   1.521   .     S
C2141  H2423   1.112   .     S
C2141  H1754   1.115   1_655 S
C2142  H2424   1.111   .     S
C2142  H2425   1.110   .     S
C2142  H2426   1.110   .     S
C2143  H2428   1.112   .     S
C2143  C2144   1.521   .     S
C2143  O2642   1.413   .     S
C2143  H1759   1.115   1_655 S
C2144  H2430   1.110   .     S
C2144  H2432   1.110   .     S
C2144  H2429   1.111   .     S
C2145  H2434   1.112   .     S
C2145  O2643   1.413   .     S
C2145  C2146   1.521   .     S
C2145  H1097   1.115   1_565 S
C2146  H2436   1.110   .     S
C2146  H2437   1.110   .     S
C2146  H2435   1.111   .     S
C2147  C2148   1.521   .     S
C2147  O2644   1.413   .     S
C2147  H2439   1.112   .     S
C2147  H1102   1.115   1_565 S
C2148  H2441   1.110   .     S
C2148  H2443   1.110   .     S
C2148  H2440   1.111   .     S
C2149  C2151   1.521   .     S
C2149  O2645   1.414   .     S
C2149  H2445   1.112   .     S
C2150  O2645   1.385   .     S
C2150  C2220   1.406   .     A
C2151  H2448   1.110   .     S
C2151  H2446   1.111   .     S
C2152  H2450   1.112   .     S
C2152  C2153   1.521   .     S
C2152  O2646   1.413   .     S
C2153  H2454   1.110   .     S
C2153  H2452   1.110   .     S
C2153  H2451   1.111   .     S
C2154  H2455   1.115   .     S
C2154  O2647   1.414   .     S
C2154  C2155   1.521   .     S
C2154  H2456   1.112   .     S
C2155  H2458   1.110   .     S
C2155  H2459   1.110   .     S
C2155  H2457   1.111   .     S
C2156  O2648   1.414   .     S
C2156  H2460   1.115   .     S
C2156  H2461   1.111   .     S
C2156  C2157   1.521   .     S
C2157  H2465   1.110   .     S
C2157  H2463   1.110   .     S
C2157  H2462   1.111   .     S
C2158  C2159   1.521   .     S
C2158  O2649   1.413   .     S
C2158  H2466   1.116   .     S
C2158  H2467   1.112   .     S
C2159  H2470   1.111   .     S
C2159  H2469   1.110   .     S
C2159  H2468   1.111   .     S
C2160  O2651   1.413   .     S
C2160  H2472   1.112   .     S
C2160  C2162   1.521   .     S
C2160  H2471   1.115   .     S
C2161  C2231   1.403   .     A
C2161  O2646   1.385   .     S
C2162  H2477   1.110   .     S
C2162  H2473   1.111   .     S
C2162  H2474   1.110   .     S
C2163  H2478   1.115   .     S
C2163  H2479   1.112   .     S
C2163  C2164   1.521   .     S
C2163  O2652   1.413   .     S
C2164  H2480   1.111   .     S
C2164  H2481   1.110   .     S
C2164  H2482   1.110   .     S
C2165  H2483   1.115   .     S
C2165  C2166   1.521   .     S
C2165  O2653   1.413   .     S
C2165  H2484   1.112   .     S
C2166  H2485   1.111   .     S
C2166  H2488   1.110   .     S
C2166  H2486   1.110   .     S
C2167  H2489   1.115   .     S
C2167  H2490   1.112   .     S
C2167  O2654   1.413   .     S
C2167  C2168   1.521   .     S
C2168  H2491   1.111   .     S
C2168  H2493   1.111   .     S
C2168  H2492   1.110   .     S
C2169  H2495   1.112   .     S
C2169  O2655   1.413   .     S
C2169  C2170   1.521   .     S
C2169  H2494   1.115   .     S
C2170  H2497   1.110   .     S
C2170  H2496   1.111   .     S
C2170  H2499   1.110   .     S
C2171  C2242   1.401   .     A
C2171  O2647   1.385   .     S
C2172  O2648   1.385   .     S
C2173  O2649   1.384   .     S
C2174  O2651   1.385   .     S
C2175  O2652   1.384   .     S
C2176  O2623   1.385   .     S
C2176  C1514   1.402   1_655 S
C2177  O2653   1.385   .     S
C2177  C1358   1.412   1_655 S
C2178  O2654   1.384   .     S
C2179  O2655   1.385   .     S
C2179  C693    1.411   1_565 S
C2180  C2198   1.403   .     A
C2180  C669    1.405   1_565 S
C2180  C2181   1.465   1_554 S
C2181  C2209   1.403   .     A
C2181  C2180   1.465   1_556 S
C2181  C780    1.405   1_565 S
C2182  C2220   1.402   .     A
C2182  C2183   1.466   1_554 S
C2183  C2231   1.403   .     A
C2183  C2182   1.466   1_556 S
C2184  C2242   1.406   .     A
C2184  C1371   1.403   1_655 S
C2184  C1517   1.466   1_655 S
C2186  C725    1.402   1_565 S
C2186  C852    1.467   1_565 S
C2187  O2624   1.385   .     S
C2187  C1515   1.403   1_655 S
C2189  O2656   1.280   .     S
C2190  O2574   1.281   .     A
C2190  O1292   1.282   1_565 S
C2191  O2639   1.278   .     A
C2192  O2576   1.279   .     S
C2193  O2577   1.280   .     A
C2193  O2581   1.280   .     A
C2194  C1355   1.470   1_655 S
C2194  O1910   1.281   1_655 S
C2194  O1914   1.281   1_655 S
C2195  O2583   1.279   .     A
C2195  O2579   1.278   .     A
C2196  O1244   1.278   1_565 S
C2196  O1249   1.279   1_565 S
C2197  O2614   1.274   .     A
C2197  C2252   1.449   .     S
C2197  O2586   1.275   .     A
C2198  O2625   1.385   .     S
C2199  O2615   1.283   .     A
C2199  O2587   1.269   .     A
C2200  O2612   1.273   .     A
C2200  O2588   1.275   .     A
C2201  O2613   1.282   .     A
C2201  O2589   1.270   .     A
C2202  O2590   1.275   .     A
C2202  O2619   1.275   .     A
C2203  O2620   1.274   .     A
C2203  O2591   1.274   .     A
C2204  O2592   1.278   .     A
C2204  O2616   1.273   .     A
C2204  C2250   1.454   .     S
C2205  O2618   1.275   .     A
C2205  C2251   1.451   .     S
C2205  O2593   1.274   .     A
C2206  O2594   1.276   .     A
C2206  O2605   1.271   .     A
C2207  O2607   1.279   .     A
C2207  O2596   1.272   .     A
C2208  O2597   1.277   .     A
C2208  O2603   1.272   .     A
C2209  O2626   1.385   .     S
C2210  O2604   1.276   .     A
C2210  O2598   1.275   .     A
C2211  O2610   1.275   .     A
C2211  O2599   1.275   .     A
C2212  O2611   1.274   .     A
C2212  O2600   1.275   .     A
C2213  O2601   1.275   .     A
C2213  O2608   1.274   .     A
C2214  O2602   1.273   .     A
C2214  O2609   1.275   .     A
C2215  C2232   1.411   .     A
C2216  C2230   1.413   .     A
C2217  C2229   1.417   .     A
C2218  C2228   1.414   .     A
C2219  C2227   1.416   .     A
C2220  O2627   1.387   .     S
C2221  C2226   1.414   .     A
C2222  C2225   1.411   .     A
C2223  C2224   1.413   .     A
C2229  C2252   1.416   .     A
C2230  C2251   1.417   .     A
C2231  O2629   1.384   .     S
C2232  C2250   1.420   .     A
C2233  C2249   1.412   .     A
C2233  C2251   1.415   .     A
C2234  C2250   1.418   .     A
C2234  C2248   1.413   .     A
C2235  C2247   1.407   .     A
C2236  C2252   1.416   .     A
C2236  C2246   1.412   .     A
C2237  C2245   1.409   .     A
C2238  C2244   1.411   .     A
C2239  C2243   1.413   .     A
C2240  C2241   1.413   .     A
C2242  O2630   1.385   .     S
H2253  C2030   1.111   1_556 S
H2254  C2033   1.111   1_554 S
H2411  C800    1.115   1_565 S
H2416  C802    1.114   1_565 S
H2444  C1481   1.115   1_655 S
H2447  C1483   1.110   1_655 S
H2449  C1484   1.115   1_655 S
H2505  C2046   1.111   1_556 S
H2507  C2031   1.111   1_556 S
H2518  C2031   1.111   1_556 S
H2529  C2032   1.111   1_554 S
H2562  C2033   1.111   1_554 S
O2573  Zn2657  1.940   .     S
O2573  Zn2668  1.939   .     S
O2573  Zn2660  1.943   .     S
O2574  Zn2659  1.940   .     S
O2575  Zn2662  1.940   .     S
O2575  C1523   1.279   1_655 S
O2576  Zn2661  1.940   .     S
O2577  Zn2671  1.940   .     S
O2578  Zn2670  1.940   .     S
O2579  Zn2665  1.939   .     S
O2580  Zn2657  1.939   .     S
O2581  Zn2667  1.940   .     S
O2582  Zn2666  1.940   .     S
O2583  Zn2669  1.940   .     S
O2584  Zn2665  1.940   .     S
O2584  Zn2663  1.943   .     S
O2584  Zn2669  1.939   .     S
O2585  Zn2668  1.940   .     S
O2586  Zn2660  1.929   .     S
O2587  Zn2659  1.929   .     S
O2588  Zn2662  1.931   .     S
O2589  Zn2661  1.931   .     S
O2590  Zn2664  1.929   .     S
O2591  Zn2663  1.929   .     S
O2592  Zn2658  1.931   .     S
O2593  Zn2672  1.931   .     S
O2594  Zn2659  1.929   .     S
O2595  Zn2658  1.940   .     S
O2595  Zn2666  1.943   .     S
O2595  Zn2670  1.943   .     S
O2596  Zn2660  1.929   .     S
O2597  Zn2672  1.930   .     S
O2598  Zn2658  1.930   .     S
O2599  Zn2663  1.930   .     S
O2600  Zn2664  1.930   .     S
O2601  Zn2661  1.931   .     S
O2602  Zn2662  1.931   .     S
O2603  Zn1999  1.929   1_655 S
O2604  Zn2666  1.929   .     S
O2605  Zn1333  1.931   1_565 S
O2606  Zn2661  1.939   .     S
O2606  Zn2667  1.943   .     S
O2606  Zn2671  1.943   .     S
O2607  Zn2668  1.931   .     S
O2608  Zn2671  1.929   .     S
O2609  Zn2002  1.929   1_655 S
O2610  Zn2665  1.931   .     S
O2611  Zn1321  1.931   1_565 S
O2612  Zn1998  1.929   1_655 S
O2613  Zn2667  1.929   .     S
O2614  Zn2657  1.930   .     S
O2615  Zn1329  1.930   1_565 S
O2616  Zn2670  1.930   .     S
O2617  Zn2664  1.940   .     S
O2617  C853    1.279   1_565 A
O2618  Zn2003  1.930   1_655 S
O2619  Zn1332  1.931   1_565 S
O2620  Zn2669  1.931   .     S
O2628  Zn2663  1.940   .     S
O2639  Zn2658  1.939   .     S
O2650  Zn2672  1.939   .     S
O2650  C1524   1.278   1_655 A
O2656  Zn2660  1.940   .     S
Zn2659 O1248   1.943   1_565 S
Zn2662 O1927   1.939   1_655 S
Zn2664 O1237   1.943   1_565 S
Zn2672 O1938   1.940   1_655 S
