data_str_m1_o1_o17_pcu_sym.92
_audit_creation_date              2020-01-03
_audit_creation_method            'Materials Studio'
_symmetry_space_group_name_H-M    'P1'
_symmetry_Int_Tables_number       1
_symmetry_cell_setting            triclinic
loop_
_symmetry_equiv_pos_as_xyz
  x,y,z
_cell_length_a                    36.5260
_cell_length_b                    36.5264
_cell_length_c                    34.5140
_cell_angle_alpha                 89.9973
_cell_angle_beta                  89.9992
_cell_angle_gamma                 89.9953
loop_
_atom_site_label
_atom_site_type_symbol
_atom_site_fract_x
_atom_site_fract_y
_atom_site_fract_z
_atom_site_U_iso_or_equiv
_atom_site_adp_type
_atom_site_occupancy
Br1    Br    0.17201   0.39233   0.16892   0.00000  Uiso   1.00
Br2    Br    0.32699   0.39138   0.16940   0.00000  Uiso   1.00
Br3    Br    0.10760   0.32805   0.83110   0.00000  Uiso   1.00
Br4    Br    0.46138   0.10300   0.27199   0.00000  Uiso   1.00
Br5    Br    0.32773   0.39209   0.83093   0.00000  Uiso   1.00
Br6    Br    0.17314   0.10873   0.16946   0.00000  Uiso   1.00
Br7    Br    0.39240   0.17193   0.83111   0.00000  Uiso   1.00
Br8    Br    0.10766   0.32800   0.16892   0.00000  Uiso   1.00
Br9    Br    0.42195   0.14239   0.66892   0.00000  Uiso   1.00
Br10   Br    0.07798   0.35768   0.33105   0.00000  Uiso   1.00
Br11   Br    0.35787   0.42223   0.66902   0.00000  Uiso   1.00
Br12   Br    0.32806   0.10760   0.83110   0.00000  Uiso   1.00
Br13   Br    0.14142   0.07703   0.33065   0.00000  Uiso   1.00
Br14   Br    0.07805   0.35762   0.66892   0.00000  Uiso   1.00
Br15   Br    0.35300   0.21138   0.22799   0.00000  Uiso   1.00
Br16   Br    0.14213   0.07777   0.66902   0.00000  Uiso   1.00
Br17   Br    0.35866   0.42306   0.33060   0.00000  Uiso   1.00
Br18   Br    0.42299   0.35860   0.33063   0.00000  Uiso   1.00
Br19   Br    0.07774   0.14210   0.66904   0.00000  Uiso   1.00
Br20   Br    0.28862   0.14700   0.22798   0.00000  Uiso   1.00
Br21   Br    0.14235   0.42199   0.66894   0.00000  Uiso   1.00
Br22   Br    0.07689   0.14128   0.33057   0.00000  Uiso   1.00
Br23   Br    0.10864   0.17303   0.16940   0.00000  Uiso   1.00
Br24   Br    0.42226   0.35790   0.66904   0.00000  Uiso   1.00
Br25   Br    0.14229   0.42205   0.33103   0.00000  Uiso   1.00
Br26   Br    0.35764   0.07802   0.66894   0.00000  Uiso   1.00
Br27   Br    0.39208   0.32772   0.83093   0.00000  Uiso   1.00
Br28   Br    0.39701   0.03862   0.27197   0.00000  Uiso   1.00
Br29   Br    0.17194   0.39239   0.83110   0.00000  Uiso   1.00
Br30   Br    0.39127   0.32688   0.16945   0.00000  Uiso   1.00
Br31   Br    0.10792   0.17227   0.83093   0.00000  Uiso   1.00
Br32   Br    0.17228   0.10791   0.83093   0.00000  Uiso   1.00
C33    C     0.02943   0.26568   0.41861   0.00000  Uiso   1.00
C34    C     0.22062   0.48422   0.08139   0.00000  Uiso   1.00
C35    C     0.23399   0.02957   0.54081   0.00000  Uiso   1.00
C36    C     0.02969   0.26582   0.45920   0.00000  Uiso   1.00
C37    C     0.47027   0.23436   0.54081   0.00000  Uiso   1.00
C38    C     0.23395   0.02956   0.45919   0.00000  Uiso   1.00
C39    C     0.26586   0.47037   0.54081   0.00000  Uiso   1.00
C40    C     0.22036   0.48409   0.95919   0.00000  Uiso   1.00
C41    C     0.27968   0.01573   0.04080   0.00000  Uiso   1.00
C42    C     0.01592   0.27964   0.95918   0.00000  Uiso   1.00
C43    C     0.48427   0.22032   0.04080   0.00000  Uiso   1.00
C44    C     0.27968   0.01575   0.95919   0.00000  Uiso   1.00
C45    C     0.48434   0.22060   0.91861   0.00000  Uiso   1.00
C46    C     0.22036   0.48407   0.04080   0.00000  Uiso   1.00
C47    C     0.48425   0.22032   0.95919   0.00000  Uiso   1.00
C48    C     0.01593   0.27964   0.04080   0.00000  Uiso   1.00
C49    C     0.09807   0.34807   0.24999   0.00000  Uiso   1.00
C50    C     0.40193   0.15193   0.75001   0.00000  Uiso   1.00
C51    C     0.15194   0.09808   0.25001   0.00000  Uiso   1.00
C52    C     0.34807   0.40193   0.74999   0.00000  Uiso   1.00
C53    C     0.40193   0.15193   0.25000   0.00000  Uiso   1.00
C54    C     0.09808   0.34807   0.75001   0.00000  Uiso   1.00
C55    C     0.34808   0.40194   0.25001   0.00000  Uiso   1.00
C56    C     0.01578   0.27938   0.08139   0.00000  Uiso   1.00
C57    C     0.15193   0.09807   0.74999   0.00000  Uiso   1.00
C58    C     0.09807   0.15192   0.74999   0.00000  Uiso   1.00
C59    C     0.40192   0.34807   0.25001   0.00000  Uiso   1.00
C60    C     0.15193   0.40193   0.75001   0.00000  Uiso   1.00
C61    C     0.34807   0.09807   0.24999   0.00000  Uiso   1.00
C62    C     0.40193   0.34807   0.74999   0.00000  Uiso   1.00
C63    C     0.09806   0.15192   0.25000   0.00000  Uiso   1.00
C64    C     0.34807   0.09808   0.75001   0.00000  Uiso   1.00
C65    C     0.15193   0.40192   0.24999   0.00000  Uiso   1.00
C66    C     0.49998   0.25010   0.47959   0.00000  Uiso   1.00
C67    C     0.22062   0.48424   0.91860   0.00000  Uiso   1.00
C68    C     0.49998   0.25009   0.52042   0.00000  Uiso   1.00
C69    C     0.24990   0.49996   0.47958   0.00000  Uiso   1.00
C70    C     0.24991   0.49997   0.52042   0.00000  Uiso   1.00
C71    C     0.25002   0.49991   0.97957   0.00000  Uiso   1.00
C72    C     0.25002   0.49990   0.02041   0.00000  Uiso   1.00
C73    C     0.00009   0.24998   0.97957   0.00000  Uiso   1.00
C74    C     0.00010   0.24998   0.02041   0.00000  Uiso   1.00
C75    C     0.27940   0.01563   0.08138   0.00000  Uiso   1.00
C76    C     0.01577   0.27938   0.91860   0.00000  Uiso   1.00
C77    C     0.48437   0.22060   0.08139   0.00000  Uiso   1.00
C78    C     0.49999   0.25006   0.39840   0.00000  Uiso   1.00
C79    C    -0.00000   0.25004   0.60161   0.00000  Uiso   1.00
C80    C     0.24994   0.49998   0.39839   0.00000  Uiso   1.00
C81    C     0.47055   0.23445   0.58139   0.00000  Uiso   1.00
C82    C     0.24997   0.49999   0.60161   0.00000  Uiso   1.00
C83    C     0.25000   0.49996   0.89839   0.00000  Uiso   1.00
C84    C     0.25001   0.49994   0.10160   0.00000  Uiso   1.00
C85    C     0.00004   0.25000   0.89839   0.00000  Uiso   1.00
C86    C     0.00006   0.25000   0.10160   0.00000  Uiso   1.00
C87    C     0.44094   0.21883   0.47985   0.00000  Uiso   1.00
C88    C     0.05900   0.28139   0.52016   0.00000  Uiso   1.00
C89    C     0.28163   0.44116   0.47985   0.00000  Uiso   1.00
C90    C     0.21817   0.05876   0.52016   0.00000  Uiso   1.00
C91    C     0.05900   0.28140   0.47985   0.00000  Uiso   1.00
C92    C     0.23409   0.02929   0.41860   0.00000  Uiso   1.00
C93    C     0.44094   0.21882   0.52016   0.00000  Uiso   1.00
C94    C     0.21815   0.05875   0.47984   0.00000  Uiso   1.00
C95    C     0.28164   0.44117   0.52016   0.00000  Uiso   1.00
C96    C     0.19112   0.46839   0.97984   0.00000  Uiso   1.00
C97    C     0.30894   0.03139   0.02015   0.00000  Uiso   1.00
C98    C     0.03161   0.30888   0.97983   0.00000  Uiso   1.00
C99    C     0.46860   0.19106   0.02015   0.00000  Uiso   1.00
C100   C     0.30894   0.03141   0.97983   0.00000  Uiso   1.00
C101   C     0.19112   0.46838   0.02015   0.00000  Uiso   1.00
C102   C     0.46859   0.19106   0.97984   0.00000  Uiso   1.00
C103   C     0.26577   0.47065   0.58140   0.00000  Uiso   1.00
C104   C     0.03162   0.30888   0.02015   0.00000  Uiso   1.00
C105   C     0.24998  -0.00000   0.35597   0.00000  Uiso   1.00
C106   C     0.25000   0.00000   0.64403   0.00000  Uiso   1.00
C107   C     0.00000   0.25002   0.35597   0.00000  Uiso   1.00
C108   C     0.00000   0.25001   0.64403   0.00000  Uiso   1.00
C109   C     0.00001   0.25000   0.85597   0.00000  Uiso   1.00
C110   C     0.00002   0.25000   0.14402   0.00000  Uiso   1.00
C111   C     0.25000   0.49999   0.85597   0.00000  Uiso   1.00
C112   C     0.25000   0.49998   0.14402   0.00000  Uiso   1.00
C113   C     0.18000   0.07001   0.25000   0.00000  Uiso   1.00
C114   C     0.47054   0.23448   0.41862   0.00000  Uiso   1.00
C115   C     0.32001   0.43000   0.74999   0.00000  Uiso   1.00
C116   C     0.42999   0.17999   0.25000   0.00000  Uiso   1.00
C117   C     0.07001   0.32000   0.75000   0.00000  Uiso   1.00
C118   C     0.32001   0.43000   0.25001   0.00000  Uiso   1.00
C119   C     0.17999   0.07000   0.74999   0.00000  Uiso   1.00
C120   C     0.07001   0.32000   0.25000   0.00000  Uiso   1.00
C121   C     0.42999   0.18000   0.75000   0.00000  Uiso   1.00
C122   C     0.18000   0.42999   0.75001   0.00000  Uiso   1.00
C123   C     0.32001   0.07001   0.25000   0.00000  Uiso   1.00
C124   C     0.43000   0.32001   0.75000   0.00000  Uiso   1.00
C125   C     0.02944   0.26566   0.58140   0.00000  Uiso   1.00
C126   C     0.07000   0.17999   0.25001   0.00000  Uiso   1.00
C127   C     0.32000   0.07001   0.75001   0.00000  Uiso   1.00
C128   C     0.18000   0.42999   0.24999   0.00000  Uiso   1.00
C129   C     0.07000   0.17999   0.75000   0.00000  Uiso   1.00
C130   C     0.42999   0.32000   0.25000   0.00000  Uiso   1.00
C131   C     0.14428   0.38278   0.21555   0.00000  Uiso   1.00
C132   C     0.35575   0.11719   0.78446   0.00000  Uiso   1.00
C133   C     0.11766   0.14472   0.21575   0.00000  Uiso   1.00
C134   C     0.38267   0.35561   0.78438   0.00000  Uiso   1.00
C135   C     0.38449   0.08845   0.25851   0.00000  Uiso   1.00
C136   C     0.26574   0.47064   0.41861   0.00000  Uiso   1.00
C137   C     0.14425   0.38281   0.78446   0.00000  Uiso   1.00
C138   C     0.38233   0.35527   0.21576   0.00000  Uiso   1.00
C139   C     0.11733   0.14438   0.78438   0.00000  Uiso   1.00
C140   C     0.14439   0.11732   0.78438   0.00000  Uiso   1.00
C141   C     0.35529   0.38235   0.21575   0.00000  Uiso   1.00
C142   C     0.11719   0.35575   0.78445   0.00000  Uiso   1.00
C143   C     0.41155   0.11551   0.25851   0.00000  Uiso   1.00
C144   C     0.35562   0.38268   0.78438   0.00000  Uiso   1.00
C145   C     0.14474   0.11768   0.21576   0.00000  Uiso   1.00
C146   C     0.38281   0.14424   0.78446   0.00000  Uiso   1.00
C147   C     0.23414   0.02932   0.58140   0.00000  Uiso   1.00
C148   C     0.11722   0.35572   0.21556   0.00000  Uiso   1.00
C149   C     0.39425   0.13281   0.71556   0.00000  Uiso   1.00
C150   C     0.10572   0.36722   0.28442   0.00000  Uiso   1.00
C151   C     0.36731   0.39438   0.71559   0.00000  Uiso   1.00
C152   C     0.13236   0.10529   0.28427   0.00000  Uiso   1.00
C153   C     0.10575   0.36719   0.71557   0.00000  Uiso   1.00
C154   C     0.36551   0.16155   0.24147   0.00000  Uiso   1.00
C155   C     0.13269   0.10563   0.71559   0.00000  Uiso   1.00
C156   C     0.36766   0.39472   0.28427   0.00000  Uiso   1.00
C157   C     0.39471   0.36765   0.28427   0.00000  Uiso   1.00
C158   C     0.27940   0.01566   0.91860   0.00000  Uiso   1.00
C159   C     0.10562   0.13268   0.71560   0.00000  Uiso   1.00
C160   C     0.33845   0.13449   0.24147   0.00000  Uiso   1.00
C161   C     0.13280   0.39426   0.71557   0.00000  Uiso   1.00
C162   C     0.10527   0.13233   0.28426   0.00000  Uiso   1.00
C163   C     0.39438   0.36732   0.71559   0.00000  Uiso   1.00
C164   C     0.13277   0.39428   0.28442   0.00000  Uiso   1.00
C165   C     0.36720   0.10575   0.71557   0.00000  Uiso   1.00
C166   C     0.47026   0.23439   0.45920   0.00000  Uiso   1.00
C167   C     0.02970   0.26581   0.54081   0.00000  Uiso   1.00
C168   C     0.26584   0.47036   0.45919   0.00000  Uiso   1.00
F169   F     0.41195   0.20356   0.46125   0.00000  Uiso   1.00
F170   F     0.33787   0.04678   0.03875   0.00000  Uiso   1.00
F171   F     0.04704   0.33779   0.96122   0.00000  Uiso   1.00
F172   F     0.45321   0.16213   0.03876   0.00000  Uiso   1.00
F173   F     0.33786   0.04682   0.96123   0.00000  Uiso   1.00
F174   F     0.16221   0.45295   0.03876   0.00000  Uiso   1.00
F175   F     0.45318   0.16214   0.96124   0.00000  Uiso   1.00
F176   F     0.04705   0.33779   0.03875   0.00000  Uiso   1.00
F177   F     0.05735   0.28145   0.39858   0.00000  Uiso   1.00
F178   F     0.44264   0.21865   0.60142   0.00000  Uiso   1.00
F179   F     0.21810   0.05709   0.39856   0.00000  Uiso   1.00
F180   F     0.08797   0.29670   0.53877   0.00000  Uiso   1.00
F181   F     0.28176   0.44285   0.60143   0.00000  Uiso   1.00
F182   F     0.44264   0.21868   0.39860   0.00000  Uiso   1.00
F183   F     0.05735   0.28143   0.60143   0.00000  Uiso   1.00
F184   F     0.28174   0.44285   0.39857   0.00000  Uiso   1.00
F185   F     0.21819   0.05713   0.60143   0.00000  Uiso   1.00
F186   F     0.30725   0.03155   0.89858   0.00000  Uiso   1.00
F187   F     0.19276   0.46836   0.10143   0.00000  Uiso   1.00
F188   F     0.46845   0.19275   0.89858   0.00000  Uiso   1.00
F189   F     0.03164   0.30724   0.10142   0.00000  Uiso   1.00
F190   F     0.19276   0.46837   0.89856   0.00000  Uiso   1.00
F191   F     0.29715   0.41230   0.46124   0.00000  Uiso   1.00
F192   F     0.30725   0.03153   0.10141   0.00000  Uiso   1.00
F193   F     0.03163   0.30724   0.89856   0.00000  Uiso   1.00
F194   F     0.46847   0.19275   0.10142   0.00000  Uiso   1.00
F195   F     0.20265   0.08762   0.53877   0.00000  Uiso   1.00
F196   F     0.08797   0.29671   0.46124   0.00000  Uiso   1.00
F197   F     0.41197   0.20352   0.53877   0.00000  Uiso   1.00
F198   F     0.20261   0.08760   0.46123   0.00000  Uiso   1.00
F199   F     0.29716   0.41231   0.53877   0.00000  Uiso   1.00
F200   F     0.16220   0.45297   0.96123   0.00000  Uiso   1.00
O201   O     0.25000   0.00000   0.25000   0.00000  Uiso   1.00
O202   O     0.25000   0.46963   0.66245   0.00000  Uiso   1.00
O203   O     0.46964   0.25000   0.33755   0.00000  Uiso   1.00
O204   O     0.03037   0.25000   0.66245   0.00000  Uiso   1.00
O205   O     0.00000   0.21963   0.83755   0.00000  Uiso   1.00
O206   O     0.00000   0.28036   0.16245   0.00000  Uiso   1.00
O207   O     0.28037  -0.00000   0.83755   0.00000  Uiso   1.00
O208   O     0.21964   0.00000   0.16245   0.00000  Uiso   1.00
O209   O     0.00000   0.28037   0.83755   0.00000  Uiso   1.00
O210   O     0.00000   0.21963   0.16245   0.00000  Uiso   1.00
O211   O     0.21964  -0.00000   0.83755   0.00000  Uiso   1.00
O212   O     0.25000   0.00000   0.75000   0.00000  Uiso   1.00
O213   O     0.28037   0.00000   0.16245   0.00000  Uiso   1.00
O214   O     0.20725   0.07308   0.27302   0.00000  Uiso   1.00
O215   O     0.29276   0.42692   0.72698   0.00000  Uiso   1.00
O216   O     0.42693   0.20725   0.27302   0.00000  Uiso   1.00
O217   O     0.07308   0.29275   0.72698   0.00000  Uiso   1.00
O218   O     0.29276   0.42692   0.27302   0.00000  Uiso   1.00
O219   O     0.20725   0.07308   0.72698   0.00000  Uiso   1.00
O220   O     0.07308   0.29275   0.27302   0.00000  Uiso   1.00
O221   O     0.42693   0.20725   0.72698   0.00000  Uiso   1.00
O222   O     0.20725   0.42692   0.72698   0.00000  Uiso   1.00
O223   O     0.00000   0.25000   0.25000   0.00000  Uiso   1.00
O224   O     0.29276   0.07308   0.27302   0.00000  Uiso   1.00
O225   O     0.42693   0.29276   0.72698   0.00000  Uiso   1.00
O226   O     0.07308   0.20724   0.27302   0.00000  Uiso   1.00
O227   O     0.29276   0.07308   0.72698   0.00000  Uiso   1.00
O228   O     0.20725   0.42692   0.27302   0.00000  Uiso   1.00
O229   O     0.07308   0.20724   0.72698   0.00000  Uiso   1.00
O230   O     0.42693   0.29276   0.27302   0.00000  Uiso   1.00
O231   O     0.45725   0.32308   0.77302   0.00000  Uiso   1.00
O232   O     0.04276   0.17692   0.22698   0.00000  Uiso   1.00
O233   O     0.17693   0.45724   0.77302   0.00000  Uiso   1.00
O234   O     0.00000   0.25000   0.75000   0.00000  Uiso   1.00
O235   O     0.32308   0.04276   0.22698   0.00000  Uiso   1.00
O236   O     0.04276   0.17692   0.77302   0.00000  Uiso   1.00
O237   O     0.45725   0.32308   0.22698   0.00000  Uiso   1.00
O238   O     0.32308   0.04276   0.77302   0.00000  Uiso   1.00
O239   O     0.17693   0.45724   0.22698   0.00000  Uiso   1.00
O240   O     0.45725   0.17693   0.22698   0.00000  Uiso   1.00
O241   O     0.04276   0.32307   0.77302   0.00000  Uiso   1.00
O242   O     0.17693   0.04276   0.22698   0.00000  Uiso   1.00
O243   O     0.32308   0.45724   0.77302   0.00000  Uiso   1.00
O244   O     0.04276   0.32307   0.22698   0.00000  Uiso   1.00
O245   O     0.25000   0.46963   0.33755   0.00000  Uiso   1.00
O246   O     0.45725   0.17693   0.77302   0.00000  Uiso   1.00
O247   O     0.32308   0.45724   0.22698   0.00000  Uiso   1.00
O248   O     0.17693   0.04276   0.77302   0.00000  Uiso   1.00
O249   O     0.25000   0.03037   0.66245   0.00000  Uiso   1.00
O250   O     0.03037   0.25000   0.33755   0.00000  Uiso   1.00
O251   O     0.46964   0.25000   0.66245   0.00000  Uiso   1.00
O252   O     0.25000   0.03037   0.33755   0.00000  Uiso   1.00
Zn253  Zn    0.20660   0.00000   0.21735   0.00000  Uiso   1.00
Zn254  Zn    0.04341   0.25000   0.28265   0.00000  Uiso   1.00
Zn255  Zn    0.25000   0.45659   0.71735   0.00000  Uiso   1.00
Zn256  Zn    0.25000   0.04341   0.28265   0.00000  Uiso   1.00
Zn257  Zn    0.04341   0.25000   0.71735   0.00000  Uiso   1.00
Zn258  Zn    0.45660   0.25000   0.28265   0.00000  Uiso   1.00
Zn259  Zn    0.25000   0.04341   0.71735   0.00000  Uiso   1.00
Zn260  Zn    0.25000   0.45659   0.28265   0.00000  Uiso   1.00
Zn261  Zn    0.29341   0.00000   0.78265   0.00000  Uiso   1.00
Zn262  Zn    0.00000   0.20660   0.21735   0.00000  Uiso   1.00
Zn263  Zn    0.00000   0.29340   0.78265   0.00000  Uiso   1.00
Zn264  Zn    0.29341   0.00000   0.21735   0.00000  Uiso   1.00
Zn265  Zn    0.20660   0.00000   0.78265   0.00000  Uiso   1.00
Zn266  Zn    0.00000   0.29340   0.21735   0.00000  Uiso   1.00
Zn267  Zn    0.00000   0.20659   0.78265   0.00000  Uiso   1.00
Zn268  Zn    0.45660   0.25000   0.71735   0.00000  Uiso   1.00
Br269  Br    0.67201   0.39233   0.16892   0.00000  Uiso   1.00
Br270  Br    0.82699   0.39138   0.16940   0.00000  Uiso   1.00
Br271  Br    0.60760   0.32805   0.83110   0.00000  Uiso   1.00
Br272  Br    0.96138   0.10300   0.27199   0.00000  Uiso   1.00
Br273  Br    0.82773   0.39209   0.83093   0.00000  Uiso   1.00
Br274  Br    0.67314   0.10873   0.16946   0.00000  Uiso   1.00
Br275  Br    0.89240   0.17193   0.83111   0.00000  Uiso   1.00
Br276  Br    0.60766   0.32800   0.16892   0.00000  Uiso   1.00
Br277  Br    0.92195   0.14239   0.66892   0.00000  Uiso   1.00
Br278  Br    0.57798   0.35768   0.33105   0.00000  Uiso   1.00
Br279  Br    0.85787   0.42223   0.66902   0.00000  Uiso   1.00
Br280  Br    0.82806   0.10760   0.83110   0.00000  Uiso   1.00
Br281  Br    0.64142   0.07703   0.33065   0.00000  Uiso   1.00
Br282  Br    0.57805   0.35762   0.66892   0.00000  Uiso   1.00
Br283  Br    0.85300   0.21138   0.22799   0.00000  Uiso   1.00
Br284  Br    0.64213   0.07777   0.66902   0.00000  Uiso   1.00
Br285  Br    0.85866   0.42306   0.33060   0.00000  Uiso   1.00
Br286  Br    0.92299   0.35860   0.33063   0.00000  Uiso   1.00
Br287  Br    0.57774   0.14210   0.66904   0.00000  Uiso   1.00
Br288  Br    0.78862   0.14700   0.22798   0.00000  Uiso   1.00
Br289  Br    0.64235   0.42199   0.66894   0.00000  Uiso   1.00
Br290  Br    0.57689   0.14128   0.33057   0.00000  Uiso   1.00
Br291  Br    0.60864   0.17303   0.16940   0.00000  Uiso   1.00
Br292  Br    0.92226   0.35790   0.66904   0.00000  Uiso   1.00
Br293  Br    0.64229   0.42205   0.33103   0.00000  Uiso   1.00
Br294  Br    0.85764   0.07802   0.66894   0.00000  Uiso   1.00
Br295  Br    0.89208   0.32772   0.83093   0.00000  Uiso   1.00
Br296  Br    0.89701   0.03862   0.27197   0.00000  Uiso   1.00
Br297  Br    0.67194   0.39239   0.83110   0.00000  Uiso   1.00
Br298  Br    0.89127   0.32688   0.16945   0.00000  Uiso   1.00
Br299  Br    0.60792   0.17227   0.83093   0.00000  Uiso   1.00
Br300  Br    0.67228   0.10791   0.83093   0.00000  Uiso   1.00
C301   C     0.52943   0.26568   0.41861   0.00000  Uiso   1.00
C302   C     0.72062   0.48422   0.08139   0.00000  Uiso   1.00
C303   C     0.73399   0.02957   0.54081   0.00000  Uiso   1.00
C304   C     0.52969   0.26582   0.45920   0.00000  Uiso   1.00
C305   C     0.97027   0.23436   0.54081   0.00000  Uiso   1.00
C306   C     0.73395   0.02956   0.45919   0.00000  Uiso   1.00
C307   C     0.76586   0.47037   0.54081   0.00000  Uiso   1.00
C308   C     0.72036   0.48409   0.95919   0.00000  Uiso   1.00
C309   C     0.77968   0.01573   0.04080   0.00000  Uiso   1.00
C310   C     0.51592   0.27964   0.95918   0.00000  Uiso   1.00
C311   C     0.98427   0.22032   0.04080   0.00000  Uiso   1.00
C312   C     0.77968   0.01575   0.95919   0.00000  Uiso   1.00
C313   C     0.98434   0.22060   0.91861   0.00000  Uiso   1.00
C314   C     0.72036   0.48407   0.04080   0.00000  Uiso   1.00
C315   C     0.98425   0.22032   0.95919   0.00000  Uiso   1.00
C316   C     0.51593   0.27964   0.04080   0.00000  Uiso   1.00
C317   C     0.59807   0.34807   0.24999   0.00000  Uiso   1.00
C318   C     0.90193   0.15193   0.75001   0.00000  Uiso   1.00
C319   C     0.65194   0.09808   0.25001   0.00000  Uiso   1.00
C320   C     0.84807   0.40193   0.74999   0.00000  Uiso   1.00
C321   C     0.90193   0.15193   0.25000   0.00000  Uiso   1.00
C322   C     0.59808   0.34807   0.75001   0.00000  Uiso   1.00
C323   C     0.84808   0.40194   0.25001   0.00000  Uiso   1.00
C324   C     0.51578   0.27938   0.08139   0.00000  Uiso   1.00
C325   C     0.65193   0.09807   0.74999   0.00000  Uiso   1.00
C326   C     0.59807   0.15192   0.74999   0.00000  Uiso   1.00
C327   C     0.90192   0.34807   0.25001   0.00000  Uiso   1.00
C328   C     0.65193   0.40193   0.75001   0.00000  Uiso   1.00
C329   C     0.84807   0.09807   0.24999   0.00000  Uiso   1.00
C330   C     0.90193   0.34807   0.74999   0.00000  Uiso   1.00
C331   C     0.59806   0.15192   0.25000   0.00000  Uiso   1.00
C332   C     0.84807   0.09808   0.75001   0.00000  Uiso   1.00
C333   C     0.65193   0.40192   0.24999   0.00000  Uiso   1.00
C334   C     0.99998   0.25010   0.47959   0.00000  Uiso   1.00
C335   C     0.72062   0.48424   0.91860   0.00000  Uiso   1.00
C336   C     0.99998   0.25009   0.52042   0.00000  Uiso   1.00
C337   C     0.74990   0.49996   0.47958   0.00000  Uiso   1.00
C338   C     0.74991   0.49997   0.52042   0.00000  Uiso   1.00
C339   C     0.75002   0.49991   0.97957   0.00000  Uiso   1.00
C340   C     0.75002   0.49990   0.02041   0.00000  Uiso   1.00
C341   C     0.50009   0.24998   0.97957   0.00000  Uiso   1.00
C342   C     0.50010   0.24998   0.02041   0.00000  Uiso   1.00
C343   C     0.77940   0.01563   0.08138   0.00000  Uiso   1.00
C344   C     0.51577   0.27938   0.91860   0.00000  Uiso   1.00
C345   C     0.98437   0.22060   0.08139   0.00000  Uiso   1.00
C346   C     0.99999   0.25006   0.39840   0.00000  Uiso   1.00
C347   C     0.50000   0.25004   0.60161   0.00000  Uiso   1.00
C348   C     0.74994   0.49998   0.39839   0.00000  Uiso   1.00
C349   C     0.97055   0.23445   0.58139   0.00000  Uiso   1.00
C350   C     0.74997   0.49999   0.60161   0.00000  Uiso   1.00
C351   C     0.75000   0.49996   0.89839   0.00000  Uiso   1.00
C352   C     0.75001   0.49994   0.10160   0.00000  Uiso   1.00
C353   C     0.50004   0.25000   0.89839   0.00000  Uiso   1.00
C354   C     0.50006   0.25000   0.10160   0.00000  Uiso   1.00
C355   C     0.94094   0.21883   0.47985   0.00000  Uiso   1.00
C356   C     0.55900   0.28139   0.52016   0.00000  Uiso   1.00
C357   C     0.78163   0.44116   0.47985   0.00000  Uiso   1.00
C358   C     0.71817   0.05876   0.52016   0.00000  Uiso   1.00
C359   C     0.55900   0.28140   0.47985   0.00000  Uiso   1.00
C360   C     0.73409   0.02929   0.41860   0.00000  Uiso   1.00
C361   C     0.94094   0.21882   0.52016   0.00000  Uiso   1.00
C362   C     0.71815   0.05875   0.47984   0.00000  Uiso   1.00
C363   C     0.78164   0.44117   0.52016   0.00000  Uiso   1.00
C364   C     0.69112   0.46839   0.97984   0.00000  Uiso   1.00
C365   C     0.80894   0.03139   0.02015   0.00000  Uiso   1.00
C366   C     0.53161   0.30888   0.97983   0.00000  Uiso   1.00
C367   C     0.96860   0.19106   0.02015   0.00000  Uiso   1.00
C368   C     0.80894   0.03141   0.97983   0.00000  Uiso   1.00
C369   C     0.69112   0.46838   0.02015   0.00000  Uiso   1.00
C370   C     0.96859   0.19106   0.97984   0.00000  Uiso   1.00
C371   C     0.76577   0.47065   0.58140   0.00000  Uiso   1.00
C372   C     0.53162   0.30888   0.02015   0.00000  Uiso   1.00
C373   C     0.74998  -0.00000   0.35597   0.00000  Uiso   1.00
C374   C     0.75000   0.00000   0.64403   0.00000  Uiso   1.00
C375   C     0.50000   0.25002   0.35597   0.00000  Uiso   1.00
C376   C     0.50000   0.25001   0.64403   0.00000  Uiso   1.00
C377   C     0.50001   0.25000   0.85597   0.00000  Uiso   1.00
C378   C     0.50002   0.25000   0.14402   0.00000  Uiso   1.00
C379   C     0.75000   0.49999   0.85597   0.00000  Uiso   1.00
C380   C     0.75000   0.49998   0.14402   0.00000  Uiso   1.00
C381   C     0.68000   0.07001   0.25000   0.00000  Uiso   1.00
C382   C     0.97054   0.23448   0.41862   0.00000  Uiso   1.00
C383   C     0.82001   0.43000   0.74999   0.00000  Uiso   1.00
C384   C     0.92999   0.17999   0.25000   0.00000  Uiso   1.00
C385   C     0.57001   0.32000   0.75000   0.00000  Uiso   1.00
C386   C     0.82001   0.43000   0.25001   0.00000  Uiso   1.00
C387   C     0.67999   0.07000   0.74999   0.00000  Uiso   1.00
C388   C     0.57001   0.32000   0.25000   0.00000  Uiso   1.00
C389   C     0.92999   0.18000   0.75000   0.00000  Uiso   1.00
C390   C     0.68000   0.42999   0.75001   0.00000  Uiso   1.00
C391   C     0.82001   0.07001   0.25000   0.00000  Uiso   1.00
C392   C     0.93000   0.32001   0.75000   0.00000  Uiso   1.00
C393   C     0.52944   0.26566   0.58140   0.00000  Uiso   1.00
C394   C     0.57000   0.17999   0.25001   0.00000  Uiso   1.00
C395   C     0.82000   0.07001   0.75001   0.00000  Uiso   1.00
C396   C     0.68000   0.42999   0.24999   0.00000  Uiso   1.00
C397   C     0.57000   0.17999   0.75000   0.00000  Uiso   1.00
C398   C     0.92999   0.32000   0.25000   0.00000  Uiso   1.00
C399   C     0.64428   0.38278   0.21555   0.00000  Uiso   1.00
C400   C     0.85575   0.11719   0.78446   0.00000  Uiso   1.00
C401   C     0.61766   0.14472   0.21575   0.00000  Uiso   1.00
C402   C     0.88267   0.35561   0.78438   0.00000  Uiso   1.00
C403   C     0.88449   0.08845   0.25851   0.00000  Uiso   1.00
C404   C     0.76574   0.47064   0.41861   0.00000  Uiso   1.00
C405   C     0.64425   0.38281   0.78446   0.00000  Uiso   1.00
C406   C     0.88233   0.35527   0.21576   0.00000  Uiso   1.00
C407   C     0.61733   0.14438   0.78438   0.00000  Uiso   1.00
C408   C     0.64439   0.11732   0.78438   0.00000  Uiso   1.00
C409   C     0.85529   0.38235   0.21575   0.00000  Uiso   1.00
C410   C     0.61719   0.35575   0.78445   0.00000  Uiso   1.00
C411   C     0.91155   0.11551   0.25851   0.00000  Uiso   1.00
C412   C     0.85562   0.38268   0.78438   0.00000  Uiso   1.00
C413   C     0.64474   0.11768   0.21576   0.00000  Uiso   1.00
C414   C     0.88281   0.14424   0.78446   0.00000  Uiso   1.00
C415   C     0.73414   0.02932   0.58140   0.00000  Uiso   1.00
C416   C     0.61722   0.35572   0.21556   0.00000  Uiso   1.00
C417   C     0.89425   0.13281   0.71556   0.00000  Uiso   1.00
C418   C     0.60572   0.36722   0.28442   0.00000  Uiso   1.00
C419   C     0.86731   0.39438   0.71559   0.00000  Uiso   1.00
C420   C     0.63236   0.10529   0.28427   0.00000  Uiso   1.00
C421   C     0.60575   0.36719   0.71557   0.00000  Uiso   1.00
C422   C     0.86551   0.16155   0.24147   0.00000  Uiso   1.00
C423   C     0.63269   0.10563   0.71559   0.00000  Uiso   1.00
C424   C     0.86766   0.39472   0.28427   0.00000  Uiso   1.00
C425   C     0.89471   0.36765   0.28427   0.00000  Uiso   1.00
C426   C     0.77940   0.01566   0.91860   0.00000  Uiso   1.00
C427   C     0.60562   0.13268   0.71560   0.00000  Uiso   1.00
C428   C     0.83845   0.13449   0.24147   0.00000  Uiso   1.00
C429   C     0.63280   0.39426   0.71557   0.00000  Uiso   1.00
C430   C     0.60527   0.13233   0.28426   0.00000  Uiso   1.00
C431   C     0.89438   0.36732   0.71559   0.00000  Uiso   1.00
C432   C     0.63277   0.39428   0.28442   0.00000  Uiso   1.00
C433   C     0.86720   0.10575   0.71557   0.00000  Uiso   1.00
C434   C     0.97026   0.23439   0.45920   0.00000  Uiso   1.00
C435   C     0.52970   0.26581   0.54081   0.00000  Uiso   1.00
C436   C     0.76584   0.47036   0.45919   0.00000  Uiso   1.00
F437   F     0.91195   0.20356   0.46125   0.00000  Uiso   1.00
F438   F     0.83787   0.04678   0.03875   0.00000  Uiso   1.00
F439   F     0.54704   0.33779   0.96122   0.00000  Uiso   1.00
F440   F     0.95321   0.16213   0.03876   0.00000  Uiso   1.00
F441   F     0.83786   0.04682   0.96123   0.00000  Uiso   1.00
F442   F     0.66221   0.45295   0.03876   0.00000  Uiso   1.00
F443   F     0.95318   0.16214   0.96124   0.00000  Uiso   1.00
F444   F     0.54705   0.33779   0.03875   0.00000  Uiso   1.00
F445   F     0.55735   0.28145   0.39858   0.00000  Uiso   1.00
F446   F     0.94264   0.21865   0.60142   0.00000  Uiso   1.00
F447   F     0.71810   0.05709   0.39856   0.00000  Uiso   1.00
F448   F     0.58797   0.29670   0.53877   0.00000  Uiso   1.00
F449   F     0.78176   0.44285   0.60143   0.00000  Uiso   1.00
F450   F     0.94264   0.21868   0.39860   0.00000  Uiso   1.00
F451   F     0.55735   0.28143   0.60143   0.00000  Uiso   1.00
F452   F     0.78174   0.44285   0.39857   0.00000  Uiso   1.00
F453   F     0.71819   0.05713   0.60143   0.00000  Uiso   1.00
F454   F     0.80725   0.03155   0.89858   0.00000  Uiso   1.00
F455   F     0.69276   0.46836   0.10143   0.00000  Uiso   1.00
F456   F     0.96845   0.19275   0.89858   0.00000  Uiso   1.00
F457   F     0.53164   0.30724   0.10142   0.00000  Uiso   1.00
F458   F     0.69276   0.46837   0.89856   0.00000  Uiso   1.00
F459   F     0.79715   0.41230   0.46124   0.00000  Uiso   1.00
F460   F     0.80725   0.03153   0.10141   0.00000  Uiso   1.00
F461   F     0.53163   0.30724   0.89856   0.00000  Uiso   1.00
F462   F     0.96847   0.19275   0.10142   0.00000  Uiso   1.00
F463   F     0.70265   0.08762   0.53877   0.00000  Uiso   1.00
F464   F     0.58797   0.29671   0.46124   0.00000  Uiso   1.00
F465   F     0.91197   0.20352   0.53877   0.00000  Uiso   1.00
F466   F     0.70261   0.08760   0.46123   0.00000  Uiso   1.00
F467   F     0.79716   0.41231   0.53877   0.00000  Uiso   1.00
F468   F     0.66220   0.45297   0.96123   0.00000  Uiso   1.00
O469   O     0.75000   0.00000   0.25000   0.00000  Uiso   1.00
O470   O     0.75000   0.46963   0.66245   0.00000  Uiso   1.00
O471   O     0.96964   0.25000   0.33755   0.00000  Uiso   1.00
O472   O     0.53037   0.25000   0.66245   0.00000  Uiso   1.00
O473   O     0.50000   0.21963   0.83755   0.00000  Uiso   1.00
O474   O     0.50000   0.28036   0.16245   0.00000  Uiso   1.00
O475   O     0.78037  -0.00000   0.83755   0.00000  Uiso   1.00
O476   O     0.71964   0.00000   0.16245   0.00000  Uiso   1.00
O477   O     0.50000   0.28037   0.83755   0.00000  Uiso   1.00
O478   O     0.50000   0.21963   0.16245   0.00000  Uiso   1.00
O479   O     0.71964  -0.00000   0.83755   0.00000  Uiso   1.00
O480   O     0.75000   0.00000   0.75000   0.00000  Uiso   1.00
O481   O     0.78037   0.00000   0.16245   0.00000  Uiso   1.00
O482   O     0.70725   0.07308   0.27302   0.00000  Uiso   1.00
O483   O     0.79276   0.42692   0.72698   0.00000  Uiso   1.00
O484   O     0.92693   0.20725   0.27302   0.00000  Uiso   1.00
O485   O     0.57308   0.29275   0.72698   0.00000  Uiso   1.00
O486   O     0.79276   0.42692   0.27302   0.00000  Uiso   1.00
O487   O     0.70725   0.07308   0.72698   0.00000  Uiso   1.00
O488   O     0.57308   0.29275   0.27302   0.00000  Uiso   1.00
O489   O     0.92693   0.20725   0.72698   0.00000  Uiso   1.00
O490   O     0.70725   0.42692   0.72698   0.00000  Uiso   1.00
O491   O     0.50000   0.25000   0.25000   0.00000  Uiso   1.00
O492   O     0.79276   0.07308   0.27302   0.00000  Uiso   1.00
O493   O     0.92693   0.29276   0.72698   0.00000  Uiso   1.00
O494   O     0.57308   0.20724   0.27302   0.00000  Uiso   1.00
O495   O     0.79276   0.07308   0.72698   0.00000  Uiso   1.00
O496   O     0.70725   0.42692   0.27302   0.00000  Uiso   1.00
O497   O     0.57308   0.20724   0.72698   0.00000  Uiso   1.00
O498   O     0.92693   0.29276   0.27302   0.00000  Uiso   1.00
O499   O     0.95725   0.32308   0.77302   0.00000  Uiso   1.00
O500   O     0.54276   0.17692   0.22698   0.00000  Uiso   1.00
O501   O     0.67693   0.45724   0.77302   0.00000  Uiso   1.00
O502   O     0.50000   0.25000   0.75000   0.00000  Uiso   1.00
O503   O     0.82308   0.04276   0.22698   0.00000  Uiso   1.00
O504   O     0.54276   0.17692   0.77302   0.00000  Uiso   1.00
O505   O     0.95725   0.32308   0.22698   0.00000  Uiso   1.00
O506   O     0.82308   0.04276   0.77302   0.00000  Uiso   1.00
O507   O     0.67693   0.45724   0.22698   0.00000  Uiso   1.00
O508   O     0.95725   0.17693   0.22698   0.00000  Uiso   1.00
O509   O     0.54276   0.32307   0.77302   0.00000  Uiso   1.00
O510   O     0.67693   0.04276   0.22698   0.00000  Uiso   1.00
O511   O     0.82308   0.45724   0.77302   0.00000  Uiso   1.00
O512   O     0.54276   0.32307   0.22698   0.00000  Uiso   1.00
O513   O     0.75000   0.46963   0.33755   0.00000  Uiso   1.00
O514   O     0.95725   0.17693   0.77302   0.00000  Uiso   1.00
O515   O     0.82308   0.45724   0.22698   0.00000  Uiso   1.00
O516   O     0.67693   0.04276   0.77302   0.00000  Uiso   1.00
O517   O     0.75000   0.03037   0.66245   0.00000  Uiso   1.00
O518   O     0.53037   0.25000   0.33755   0.00000  Uiso   1.00
O519   O     0.96964   0.25000   0.66245   0.00000  Uiso   1.00
O520   O     0.75000   0.03037   0.33755   0.00000  Uiso   1.00
Zn521  Zn    0.70660   0.00000   0.21735   0.00000  Uiso   1.00
Zn522  Zn    0.54341   0.25000   0.28265   0.00000  Uiso   1.00
Zn523  Zn    0.75000   0.45659   0.71735   0.00000  Uiso   1.00
Zn524  Zn    0.75000   0.04341   0.28265   0.00000  Uiso   1.00
Zn525  Zn    0.54341   0.25000   0.71735   0.00000  Uiso   1.00
Zn526  Zn    0.95660   0.25000   0.28265   0.00000  Uiso   1.00
Zn527  Zn    0.75000   0.04341   0.71735   0.00000  Uiso   1.00
Zn528  Zn    0.75000   0.45659   0.28265   0.00000  Uiso   1.00
Zn529  Zn    0.79341   0.00000   0.78265   0.00000  Uiso   1.00
Zn530  Zn    0.50000   0.20660   0.21735   0.00000  Uiso   1.00
Zn531  Zn    0.50000   0.29340   0.78265   0.00000  Uiso   1.00
Zn532  Zn    0.79341   0.00000   0.21735   0.00000  Uiso   1.00
Zn533  Zn    0.70660   0.00000   0.78265   0.00000  Uiso   1.00
Zn534  Zn    0.50000   0.29340   0.21735   0.00000  Uiso   1.00
Zn535  Zn    0.50000   0.20659   0.78265   0.00000  Uiso   1.00
Zn536  Zn    0.95660   0.25000   0.71735   0.00000  Uiso   1.00
Br537  Br    0.17201   0.89233   0.16892   0.00000  Uiso   1.00
Br538  Br    0.32699   0.89138   0.16940   0.00000  Uiso   1.00
Br539  Br    0.10760   0.82805   0.83110   0.00000  Uiso   1.00
Br540  Br    0.46138   0.60300   0.27199   0.00000  Uiso   1.00
Br541  Br    0.32773   0.89209   0.83093   0.00000  Uiso   1.00
Br542  Br    0.17314   0.60873   0.16946   0.00000  Uiso   1.00
Br543  Br    0.39240   0.67193   0.83111   0.00000  Uiso   1.00
Br544  Br    0.10766   0.82800   0.16892   0.00000  Uiso   1.00
Br545  Br    0.42195   0.64239   0.66892   0.00000  Uiso   1.00
Br546  Br    0.07798   0.85768   0.33105   0.00000  Uiso   1.00
Br547  Br    0.35787   0.92223   0.66902   0.00000  Uiso   1.00
Br548  Br    0.32806   0.60760   0.83110   0.00000  Uiso   1.00
Br549  Br    0.14142   0.57703   0.33065   0.00000  Uiso   1.00
Br550  Br    0.07805   0.85762   0.66892   0.00000  Uiso   1.00
Br551  Br    0.35300   0.71138   0.22799   0.00000  Uiso   1.00
Br552  Br    0.14213   0.57777   0.66902   0.00000  Uiso   1.00
Br553  Br    0.35866   0.92306   0.33060   0.00000  Uiso   1.00
Br554  Br    0.42299   0.85860   0.33063   0.00000  Uiso   1.00
Br555  Br    0.07774   0.64210   0.66904   0.00000  Uiso   1.00
Br556  Br    0.28862   0.64700   0.22798   0.00000  Uiso   1.00
Br557  Br    0.14235   0.92199   0.66894   0.00000  Uiso   1.00
Br558  Br    0.07689   0.64128   0.33057   0.00000  Uiso   1.00
Br559  Br    0.10864   0.67303   0.16940   0.00000  Uiso   1.00
Br560  Br    0.42226   0.85790   0.66904   0.00000  Uiso   1.00
Br561  Br    0.14229   0.92205   0.33103   0.00000  Uiso   1.00
Br562  Br    0.35764   0.57802   0.66894   0.00000  Uiso   1.00
Br563  Br    0.39208   0.82772   0.83093   0.00000  Uiso   1.00
Br564  Br    0.39701   0.53862   0.27197   0.00000  Uiso   1.00
Br565  Br    0.17194   0.89239   0.83110   0.00000  Uiso   1.00
Br566  Br    0.39127   0.82688   0.16945   0.00000  Uiso   1.00
Br567  Br    0.10792   0.67227   0.83093   0.00000  Uiso   1.00
Br568  Br    0.17228   0.60791   0.83093   0.00000  Uiso   1.00
C569   C     0.02943   0.76568   0.41861   0.00000  Uiso   1.00
C570   C     0.22062   0.98422   0.08139   0.00000  Uiso   1.00
C571   C     0.23399   0.52957   0.54081   0.00000  Uiso   1.00
C572   C     0.02969   0.76582   0.45920   0.00000  Uiso   1.00
C573   C     0.47027   0.73436   0.54081   0.00000  Uiso   1.00
C574   C     0.23395   0.52956   0.45919   0.00000  Uiso   1.00
C575   C     0.26586   0.97037   0.54081   0.00000  Uiso   1.00
C576   C     0.22036   0.98409   0.95919   0.00000  Uiso   1.00
C577   C     0.27968   0.51573   0.04080   0.00000  Uiso   1.00
C578   C     0.01592   0.77964   0.95918   0.00000  Uiso   1.00
C579   C     0.48427   0.72032   0.04080   0.00000  Uiso   1.00
C580   C     0.27968   0.51575   0.95919   0.00000  Uiso   1.00
C581   C     0.48434   0.72060   0.91861   0.00000  Uiso   1.00
C582   C     0.22036   0.98407   0.04080   0.00000  Uiso   1.00
C583   C     0.48425   0.72032   0.95919   0.00000  Uiso   1.00
C584   C     0.01593   0.77964   0.04080   0.00000  Uiso   1.00
C585   C     0.09807   0.84807   0.24999   0.00000  Uiso   1.00
C586   C     0.40193   0.65193   0.75001   0.00000  Uiso   1.00
C587   C     0.15194   0.59808   0.25001   0.00000  Uiso   1.00
C588   C     0.34807   0.90193   0.74999   0.00000  Uiso   1.00
C589   C     0.40193   0.65193   0.25000   0.00000  Uiso   1.00
C590   C     0.09808   0.84807   0.75001   0.00000  Uiso   1.00
C591   C     0.34808   0.90194   0.25001   0.00000  Uiso   1.00
C592   C     0.01578   0.77938   0.08139   0.00000  Uiso   1.00
C593   C     0.15193   0.59807   0.74999   0.00000  Uiso   1.00
C594   C     0.09807   0.65192   0.74999   0.00000  Uiso   1.00
C595   C     0.40192   0.84807   0.25001   0.00000  Uiso   1.00
C596   C     0.15193   0.90193   0.75001   0.00000  Uiso   1.00
C597   C     0.34807   0.59807   0.24999   0.00000  Uiso   1.00
C598   C     0.40193   0.84807   0.74999   0.00000  Uiso   1.00
C599   C     0.09806   0.65192   0.25000   0.00000  Uiso   1.00
C600   C     0.34807   0.59808   0.75001   0.00000  Uiso   1.00
C601   C     0.15193   0.90192   0.24999   0.00000  Uiso   1.00
C602   C     0.49998   0.75010   0.47959   0.00000  Uiso   1.00
C603   C     0.22062   0.98424   0.91860   0.00000  Uiso   1.00
C604   C     0.49998   0.75009   0.52042   0.00000  Uiso   1.00
C605   C     0.24990   0.99996   0.47958   0.00000  Uiso   1.00
C606   C     0.24991   0.99997   0.52042   0.00000  Uiso   1.00
C607   C     0.25002   0.99991   0.97957   0.00000  Uiso   1.00
C608   C     0.25002   0.99990   0.02041   0.00000  Uiso   1.00
C609   C     0.00009   0.74998   0.97957   0.00000  Uiso   1.00
C610   C     0.00010   0.74998   0.02041   0.00000  Uiso   1.00
C611   C     0.27940   0.51563   0.08138   0.00000  Uiso   1.00
C612   C     0.01577   0.77938   0.91860   0.00000  Uiso   1.00
C613   C     0.48437   0.72060   0.08139   0.00000  Uiso   1.00
C614   C     0.49999   0.75006   0.39840   0.00000  Uiso   1.00
C615   C    -0.00000   0.75004   0.60161   0.00000  Uiso   1.00
C616   C     0.24994   0.99998   0.39839   0.00000  Uiso   1.00
C617   C     0.47055   0.73445   0.58139   0.00000  Uiso   1.00
C618   C     0.24997   0.99999   0.60161   0.00000  Uiso   1.00
C619   C     0.25000   0.99996   0.89839   0.00000  Uiso   1.00
C620   C     0.25001   0.99994   0.10160   0.00000  Uiso   1.00
C621   C     0.00004   0.75000   0.89839   0.00000  Uiso   1.00
C622   C     0.00006   0.75000   0.10160   0.00000  Uiso   1.00
C623   C     0.44094   0.71883   0.47985   0.00000  Uiso   1.00
C624   C     0.05900   0.78139   0.52016   0.00000  Uiso   1.00
C625   C     0.28163   0.94116   0.47985   0.00000  Uiso   1.00
C626   C     0.21817   0.55876   0.52016   0.00000  Uiso   1.00
C627   C     0.05900   0.78140   0.47985   0.00000  Uiso   1.00
C628   C     0.23409   0.52929   0.41860   0.00000  Uiso   1.00
C629   C     0.44094   0.71882   0.52016   0.00000  Uiso   1.00
C630   C     0.21815   0.55875   0.47984   0.00000  Uiso   1.00
C631   C     0.28164   0.94117   0.52016   0.00000  Uiso   1.00
C632   C     0.19112   0.96839   0.97984   0.00000  Uiso   1.00
C633   C     0.30894   0.53139   0.02015   0.00000  Uiso   1.00
C634   C     0.03161   0.80888   0.97983   0.00000  Uiso   1.00
C635   C     0.46860   0.69106   0.02015   0.00000  Uiso   1.00
C636   C     0.30894   0.53141   0.97983   0.00000  Uiso   1.00
C637   C     0.19112   0.96838   0.02015   0.00000  Uiso   1.00
C638   C     0.46859   0.69106   0.97984   0.00000  Uiso   1.00
C639   C     0.26577   0.97065   0.58140   0.00000  Uiso   1.00
C640   C     0.03162   0.80888   0.02015   0.00000  Uiso   1.00
C641   C     0.24998   0.50000   0.35597   0.00000  Uiso   1.00
C642   C     0.25000   0.50000   0.64403   0.00000  Uiso   1.00
C643   C     0.00000   0.75002   0.35597   0.00000  Uiso   1.00
C644   C     0.00000   0.75001   0.64403   0.00000  Uiso   1.00
C645   C     0.00001   0.75000   0.85597   0.00000  Uiso   1.00
C646   C     0.00002   0.75000   0.14402   0.00000  Uiso   1.00
C647   C     0.25000   0.99999   0.85597   0.00000  Uiso   1.00
C648   C     0.25000   0.99998   0.14402   0.00000  Uiso   1.00
C649   C     0.18000   0.57001   0.25000   0.00000  Uiso   1.00
C650   C     0.47054   0.73448   0.41862   0.00000  Uiso   1.00
C651   C     0.32001   0.93000   0.74999   0.00000  Uiso   1.00
C652   C     0.42999   0.67999   0.25000   0.00000  Uiso   1.00
C653   C     0.07001   0.82000   0.75000   0.00000  Uiso   1.00
C654   C     0.32001   0.93000   0.25001   0.00000  Uiso   1.00
C655   C     0.17999   0.57000   0.74999   0.00000  Uiso   1.00
C656   C     0.07001   0.82000   0.25000   0.00000  Uiso   1.00
C657   C     0.42999   0.68000   0.75000   0.00000  Uiso   1.00
C658   C     0.18000   0.92999   0.75001   0.00000  Uiso   1.00
C659   C     0.32001   0.57001   0.25000   0.00000  Uiso   1.00
C660   C     0.43000   0.82001   0.75000   0.00000  Uiso   1.00
C661   C     0.02944   0.76566   0.58140   0.00000  Uiso   1.00
C662   C     0.07000   0.67999   0.25001   0.00000  Uiso   1.00
C663   C     0.32000   0.57001   0.75001   0.00000  Uiso   1.00
C664   C     0.18000   0.92999   0.24999   0.00000  Uiso   1.00
C665   C     0.07000   0.67999   0.75000   0.00000  Uiso   1.00
C666   C     0.42999   0.82000   0.25000   0.00000  Uiso   1.00
C667   C     0.14428   0.88278   0.21555   0.00000  Uiso   1.00
C668   C     0.35575   0.61719   0.78446   0.00000  Uiso   1.00
C669   C     0.11766   0.64472   0.21575   0.00000  Uiso   1.00
C670   C     0.38267   0.85561   0.78438   0.00000  Uiso   1.00
C671   C     0.38449   0.58845   0.25851   0.00000  Uiso   1.00
C672   C     0.26574   0.97064   0.41861   0.00000  Uiso   1.00
C673   C     0.14425   0.88281   0.78446   0.00000  Uiso   1.00
C674   C     0.38233   0.85527   0.21576   0.00000  Uiso   1.00
C675   C     0.11733   0.64438   0.78438   0.00000  Uiso   1.00
C676   C     0.14439   0.61732   0.78438   0.00000  Uiso   1.00
C677   C     0.35529   0.88235   0.21575   0.00000  Uiso   1.00
C678   C     0.11719   0.85575   0.78445   0.00000  Uiso   1.00
C679   C     0.41155   0.61551   0.25851   0.00000  Uiso   1.00
C680   C     0.35562   0.88268   0.78438   0.00000  Uiso   1.00
C681   C     0.14474   0.61768   0.21576   0.00000  Uiso   1.00
C682   C     0.38281   0.64424   0.78446   0.00000  Uiso   1.00
C683   C     0.23414   0.52932   0.58140   0.00000  Uiso   1.00
C684   C     0.11722   0.85572   0.21556   0.00000  Uiso   1.00
C685   C     0.39425   0.63281   0.71556   0.00000  Uiso   1.00
C686   C     0.10572   0.86722   0.28442   0.00000  Uiso   1.00
C687   C     0.36731   0.89438   0.71559   0.00000  Uiso   1.00
C688   C     0.13236   0.60529   0.28427   0.00000  Uiso   1.00
C689   C     0.10575   0.86719   0.71557   0.00000  Uiso   1.00
C690   C     0.36551   0.66155   0.24147   0.00000  Uiso   1.00
C691   C     0.13269   0.60563   0.71559   0.00000  Uiso   1.00
C692   C     0.36766   0.89472   0.28427   0.00000  Uiso   1.00
C693   C     0.39471   0.86765   0.28427   0.00000  Uiso   1.00
C694   C     0.27940   0.51566   0.91860   0.00000  Uiso   1.00
C695   C     0.10562   0.63268   0.71560   0.00000  Uiso   1.00
C696   C     0.33845   0.63449   0.24147   0.00000  Uiso   1.00
C697   C     0.13280   0.89426   0.71557   0.00000  Uiso   1.00
C698   C     0.10527   0.63233   0.28426   0.00000  Uiso   1.00
C699   C     0.39438   0.86732   0.71559   0.00000  Uiso   1.00
C700   C     0.13277   0.89428   0.28442   0.00000  Uiso   1.00
C701   C     0.36720   0.60575   0.71557   0.00000  Uiso   1.00
C702   C     0.47026   0.73439   0.45920   0.00000  Uiso   1.00
C703   C     0.02970   0.76581   0.54081   0.00000  Uiso   1.00
C704   C     0.26584   0.97036   0.45919   0.00000  Uiso   1.00
F705   F     0.41195   0.70356   0.46125   0.00000  Uiso   1.00
F706   F     0.33787   0.54678   0.03875   0.00000  Uiso   1.00
F707   F     0.04704   0.83779   0.96122   0.00000  Uiso   1.00
F708   F     0.45321   0.66213   0.03876   0.00000  Uiso   1.00
F709   F     0.33786   0.54682   0.96123   0.00000  Uiso   1.00
F710   F     0.16221   0.95295   0.03876   0.00000  Uiso   1.00
F711   F     0.45318   0.66214   0.96124   0.00000  Uiso   1.00
F712   F     0.04705   0.83779   0.03875   0.00000  Uiso   1.00
F713   F     0.05735   0.78145   0.39858   0.00000  Uiso   1.00
F714   F     0.44264   0.71865   0.60142   0.00000  Uiso   1.00
F715   F     0.21810   0.55709   0.39856   0.00000  Uiso   1.00
F716   F     0.08797   0.79670   0.53877   0.00000  Uiso   1.00
F717   F     0.28176   0.94285   0.60143   0.00000  Uiso   1.00
F718   F     0.44264   0.71868   0.39860   0.00000  Uiso   1.00
F719   F     0.05735   0.78143   0.60143   0.00000  Uiso   1.00
F720   F     0.28174   0.94285   0.39857   0.00000  Uiso   1.00
F721   F     0.21819   0.55713   0.60143   0.00000  Uiso   1.00
F722   F     0.30725   0.53155   0.89858   0.00000  Uiso   1.00
F723   F     0.19276   0.96836   0.10143   0.00000  Uiso   1.00
F724   F     0.46845   0.69275   0.89858   0.00000  Uiso   1.00
F725   F     0.03164   0.80724   0.10142   0.00000  Uiso   1.00
F726   F     0.19276   0.96837   0.89856   0.00000  Uiso   1.00
F727   F     0.29715   0.91230   0.46124   0.00000  Uiso   1.00
F728   F     0.30725   0.53153   0.10141   0.00000  Uiso   1.00
F729   F     0.03163   0.80724   0.89856   0.00000  Uiso   1.00
F730   F     0.46847   0.69275   0.10142   0.00000  Uiso   1.00
F731   F     0.20265   0.58762   0.53877   0.00000  Uiso   1.00
F732   F     0.08797   0.79671   0.46124   0.00000  Uiso   1.00
F733   F     0.41197   0.70352   0.53877   0.00000  Uiso   1.00
F734   F     0.20261   0.58760   0.46123   0.00000  Uiso   1.00
F735   F     0.29716   0.91231   0.53877   0.00000  Uiso   1.00
F736   F     0.16220   0.95297   0.96123   0.00000  Uiso   1.00
O737   O     0.25000   0.50000   0.25000   0.00000  Uiso   1.00
O738   O     0.25000   0.96963   0.66245   0.00000  Uiso   1.00
O739   O     0.46964   0.75000   0.33755   0.00000  Uiso   1.00
O740   O     0.03037   0.75000   0.66245   0.00000  Uiso   1.00
O741   O     0.00000   0.71963   0.83755   0.00000  Uiso   1.00
O742   O     0.00000   0.78036   0.16245   0.00000  Uiso   1.00
O743   O     0.28037   0.50000   0.83755   0.00000  Uiso   1.00
O744   O     0.21964   0.50000   0.16245   0.00000  Uiso   1.00
O745   O     0.00000   0.78037   0.83755   0.00000  Uiso   1.00
O746   O     0.00000   0.71963   0.16245   0.00000  Uiso   1.00
O747   O     0.21964   0.50000   0.83755   0.00000  Uiso   1.00
O748   O     0.25000   0.50000   0.75000   0.00000  Uiso   1.00
O749   O     0.28037   0.50000   0.16245   0.00000  Uiso   1.00
O750   O     0.20725   0.57308   0.27302   0.00000  Uiso   1.00
O751   O     0.29276   0.92692   0.72698   0.00000  Uiso   1.00
O752   O     0.42693   0.70725   0.27302   0.00000  Uiso   1.00
O753   O     0.07308   0.79275   0.72698   0.00000  Uiso   1.00
O754   O     0.29276   0.92692   0.27302   0.00000  Uiso   1.00
O755   O     0.20725   0.57308   0.72698   0.00000  Uiso   1.00
O756   O     0.07308   0.79275   0.27302   0.00000  Uiso   1.00
O757   O     0.42693   0.70725   0.72698   0.00000  Uiso   1.00
O758   O     0.20725   0.92692   0.72698   0.00000  Uiso   1.00
O759   O     0.00000   0.75000   0.25000   0.00000  Uiso   1.00
O760   O     0.29276   0.57308   0.27302   0.00000  Uiso   1.00
O761   O     0.42693   0.79276   0.72698   0.00000  Uiso   1.00
O762   O     0.07308   0.70724   0.27302   0.00000  Uiso   1.00
O763   O     0.29276   0.57308   0.72698   0.00000  Uiso   1.00
O764   O     0.20725   0.92692   0.27302   0.00000  Uiso   1.00
O765   O     0.07308   0.70724   0.72698   0.00000  Uiso   1.00
O766   O     0.42693   0.79276   0.27302   0.00000  Uiso   1.00
O767   O     0.45725   0.82308   0.77302   0.00000  Uiso   1.00
O768   O     0.04276   0.67692   0.22698   0.00000  Uiso   1.00
O769   O     0.17693   0.95724   0.77302   0.00000  Uiso   1.00
O770   O     0.00000   0.75000   0.75000   0.00000  Uiso   1.00
O771   O     0.32308   0.54276   0.22698   0.00000  Uiso   1.00
O772   O     0.04276   0.67692   0.77302   0.00000  Uiso   1.00
O773   O     0.45725   0.82308   0.22698   0.00000  Uiso   1.00
O774   O     0.32308   0.54276   0.77302   0.00000  Uiso   1.00
O775   O     0.17693   0.95724   0.22698   0.00000  Uiso   1.00
O776   O     0.45725   0.67693   0.22698   0.00000  Uiso   1.00
O777   O     0.04276   0.82307   0.77302   0.00000  Uiso   1.00
O778   O     0.17693   0.54276   0.22698   0.00000  Uiso   1.00
O779   O     0.32308   0.95724   0.77302   0.00000  Uiso   1.00
O780   O     0.04276   0.82307   0.22698   0.00000  Uiso   1.00
O781   O     0.25000   0.96963   0.33755   0.00000  Uiso   1.00
O782   O     0.45725   0.67693   0.77302   0.00000  Uiso   1.00
O783   O     0.32308   0.95724   0.22698   0.00000  Uiso   1.00
O784   O     0.17693   0.54276   0.77302   0.00000  Uiso   1.00
O785   O     0.25000   0.53037   0.66245   0.00000  Uiso   1.00
O786   O     0.03037   0.75000   0.33755   0.00000  Uiso   1.00
O787   O     0.46964   0.75000   0.66245   0.00000  Uiso   1.00
O788   O     0.25000   0.53037   0.33755   0.00000  Uiso   1.00
Zn789  Zn    0.20660   0.50000   0.21735   0.00000  Uiso   1.00
Zn790  Zn    0.04341   0.75000   0.28265   0.00000  Uiso   1.00
Zn791  Zn    0.25000   0.95659   0.71735   0.00000  Uiso   1.00
Zn792  Zn    0.25000   0.54341   0.28265   0.00000  Uiso   1.00
Zn793  Zn    0.04341   0.75000   0.71735   0.00000  Uiso   1.00
Zn794  Zn    0.45660   0.75000   0.28265   0.00000  Uiso   1.00
Zn795  Zn    0.25000   0.54341   0.71735   0.00000  Uiso   1.00
Zn796  Zn    0.25000   0.95659   0.28265   0.00000  Uiso   1.00
Zn797  Zn    0.29341   0.50000   0.78265   0.00000  Uiso   1.00
Zn798  Zn    0.00000   0.70660   0.21735   0.00000  Uiso   1.00
Zn799  Zn    0.00000   0.79340   0.78265   0.00000  Uiso   1.00
Zn800  Zn    0.29341   0.50000   0.21735   0.00000  Uiso   1.00
Zn801  Zn    0.20660   0.50000   0.78265   0.00000  Uiso   1.00
Zn802  Zn    0.00000   0.79340   0.21735   0.00000  Uiso   1.00
Zn803  Zn    0.00000   0.70659   0.78265   0.00000  Uiso   1.00
Zn804  Zn    0.45660   0.75000   0.71735   0.00000  Uiso   1.00
Br805  Br    0.67201   0.89233   0.16892   0.00000  Uiso   1.00
Br806  Br    0.82699   0.89138   0.16940   0.00000  Uiso   1.00
Br807  Br    0.60760   0.82805   0.83110   0.00000  Uiso   1.00
Br808  Br    0.96138   0.60300   0.27199   0.00000  Uiso   1.00
Br809  Br    0.82773   0.89209   0.83093   0.00000  Uiso   1.00
Br810  Br    0.67314   0.60873   0.16946   0.00000  Uiso   1.00
Br811  Br    0.89240   0.67193   0.83111   0.00000  Uiso   1.00
Br812  Br    0.60766   0.82800   0.16892   0.00000  Uiso   1.00
Br813  Br    0.92195   0.64239   0.66892   0.00000  Uiso   1.00
Br814  Br    0.57798   0.85768   0.33105   0.00000  Uiso   1.00
Br815  Br    0.85787   0.92223   0.66902   0.00000  Uiso   1.00
Br816  Br    0.82806   0.60760   0.83110   0.00000  Uiso   1.00
Br817  Br    0.64142   0.57703   0.33065   0.00000  Uiso   1.00
Br818  Br    0.57805   0.85762   0.66892   0.00000  Uiso   1.00
Br819  Br    0.85300   0.71138   0.22799   0.00000  Uiso   1.00
Br820  Br    0.64213   0.57777   0.66902   0.00000  Uiso   1.00
Br821  Br    0.85866   0.92306   0.33060   0.00000  Uiso   1.00
Br822  Br    0.92299   0.85860   0.33063   0.00000  Uiso   1.00
Br823  Br    0.57774   0.64210   0.66904   0.00000  Uiso   1.00
Br824  Br    0.78862   0.64700   0.22798   0.00000  Uiso   1.00
Br825  Br    0.64235   0.92199   0.66894   0.00000  Uiso   1.00
Br826  Br    0.57689   0.64128   0.33057   0.00000  Uiso   1.00
Br827  Br    0.60864   0.67303   0.16940   0.00000  Uiso   1.00
Br828  Br    0.92226   0.85790   0.66904   0.00000  Uiso   1.00
Br829  Br    0.64229   0.92205   0.33103   0.00000  Uiso   1.00
Br830  Br    0.85764   0.57802   0.66894   0.00000  Uiso   1.00
Br831  Br    0.89208   0.82772   0.83093   0.00000  Uiso   1.00
Br832  Br    0.89701   0.53862   0.27197   0.00000  Uiso   1.00
Br833  Br    0.67194   0.89239   0.83110   0.00000  Uiso   1.00
Br834  Br    0.89127   0.82688   0.16945   0.00000  Uiso   1.00
Br835  Br    0.60792   0.67227   0.83093   0.00000  Uiso   1.00
Br836  Br    0.67228   0.60791   0.83093   0.00000  Uiso   1.00
C837   C     0.52943   0.76568   0.41861   0.00000  Uiso   1.00
C838   C     0.72062   0.98422   0.08139   0.00000  Uiso   1.00
C839   C     0.73399   0.52957   0.54081   0.00000  Uiso   1.00
C840   C     0.52969   0.76582   0.45920   0.00000  Uiso   1.00
C841   C     0.97027   0.73436   0.54081   0.00000  Uiso   1.00
C842   C     0.73395   0.52956   0.45919   0.00000  Uiso   1.00
C843   C     0.76586   0.97037   0.54081   0.00000  Uiso   1.00
C844   C     0.72036   0.98409   0.95919   0.00000  Uiso   1.00
C845   C     0.77968   0.51573   0.04080   0.00000  Uiso   1.00
C846   C     0.51592   0.77964   0.95918   0.00000  Uiso   1.00
C847   C     0.98427   0.72032   0.04080   0.00000  Uiso   1.00
C848   C     0.77968   0.51575   0.95919   0.00000  Uiso   1.00
C849   C     0.98434   0.72060   0.91861   0.00000  Uiso   1.00
C850   C     0.72036   0.98407   0.04080   0.00000  Uiso   1.00
C851   C     0.98425   0.72032   0.95919   0.00000  Uiso   1.00
C852   C     0.51593   0.77964   0.04080   0.00000  Uiso   1.00
C853   C     0.59807   0.84807   0.24999   0.00000  Uiso   1.00
C854   C     0.90193   0.65193   0.75001   0.00000  Uiso   1.00
C855   C     0.65194   0.59808   0.25001   0.00000  Uiso   1.00
C856   C     0.84807   0.90193   0.74999   0.00000  Uiso   1.00
C857   C     0.90193   0.65193   0.25000   0.00000  Uiso   1.00
C858   C     0.59808   0.84807   0.75001   0.00000  Uiso   1.00
C859   C     0.84808   0.90194   0.25001   0.00000  Uiso   1.00
C860   C     0.51578   0.77938   0.08139   0.00000  Uiso   1.00
C861   C     0.65193   0.59807   0.74999   0.00000  Uiso   1.00
C862   C     0.59807   0.65192   0.74999   0.00000  Uiso   1.00
C863   C     0.90192   0.84807   0.25001   0.00000  Uiso   1.00
C864   C     0.65193   0.90193   0.75001   0.00000  Uiso   1.00
C865   C     0.84807   0.59807   0.24999   0.00000  Uiso   1.00
C866   C     0.90193   0.84807   0.74999   0.00000  Uiso   1.00
C867   C     0.59806   0.65192   0.25000   0.00000  Uiso   1.00
C868   C     0.84807   0.59808   0.75001   0.00000  Uiso   1.00
C869   C     0.65193   0.90192   0.24999   0.00000  Uiso   1.00
C870   C     0.99998   0.75010   0.47959   0.00000  Uiso   1.00
C871   C     0.72062   0.98424   0.91860   0.00000  Uiso   1.00
C872   C     0.99998   0.75009   0.52042   0.00000  Uiso   1.00
C873   C     0.74990   0.99996   0.47958   0.00000  Uiso   1.00
C874   C     0.74991   0.99997   0.52042   0.00000  Uiso   1.00
C875   C     0.75002   0.99991   0.97957   0.00000  Uiso   1.00
C876   C     0.75002   0.99990   0.02041   0.00000  Uiso   1.00
C877   C     0.50009   0.74998   0.97957   0.00000  Uiso   1.00
C878   C     0.50010   0.74998   0.02041   0.00000  Uiso   1.00
C879   C     0.77940   0.51563   0.08138   0.00000  Uiso   1.00
C880   C     0.51577   0.77938   0.91860   0.00000  Uiso   1.00
C881   C     0.98437   0.72060   0.08139   0.00000  Uiso   1.00
C882   C     0.99999   0.75006   0.39840   0.00000  Uiso   1.00
C883   C     0.50000   0.75004   0.60161   0.00000  Uiso   1.00
C884   C     0.74994   0.99998   0.39839   0.00000  Uiso   1.00
C885   C     0.97055   0.73445   0.58139   0.00000  Uiso   1.00
C886   C     0.74997   0.99999   0.60161   0.00000  Uiso   1.00
C887   C     0.75000   0.99996   0.89839   0.00000  Uiso   1.00
C888   C     0.75001   0.99994   0.10160   0.00000  Uiso   1.00
C889   C     0.50004   0.75000   0.89839   0.00000  Uiso   1.00
C890   C     0.50006   0.75000   0.10160   0.00000  Uiso   1.00
C891   C     0.94094   0.71883   0.47985   0.00000  Uiso   1.00
C892   C     0.55900   0.78139   0.52016   0.00000  Uiso   1.00
C893   C     0.78163   0.94116   0.47985   0.00000  Uiso   1.00
C894   C     0.71817   0.55876   0.52016   0.00000  Uiso   1.00
C895   C     0.55900   0.78140   0.47985   0.00000  Uiso   1.00
C896   C     0.73409   0.52929   0.41860   0.00000  Uiso   1.00
C897   C     0.94094   0.71882   0.52016   0.00000  Uiso   1.00
C898   C     0.71815   0.55875   0.47984   0.00000  Uiso   1.00
C899   C     0.78164   0.94117   0.52016   0.00000  Uiso   1.00
C900   C     0.69112   0.96839   0.97984   0.00000  Uiso   1.00
C901   C     0.80894   0.53139   0.02015   0.00000  Uiso   1.00
C902   C     0.53161   0.80888   0.97983   0.00000  Uiso   1.00
C903   C     0.96860   0.69106   0.02015   0.00000  Uiso   1.00
C904   C     0.80894   0.53141   0.97983   0.00000  Uiso   1.00
C905   C     0.69112   0.96838   0.02015   0.00000  Uiso   1.00
C906   C     0.96859   0.69106   0.97984   0.00000  Uiso   1.00
C907   C     0.76577   0.97065   0.58140   0.00000  Uiso   1.00
C908   C     0.53162   0.80888   0.02015   0.00000  Uiso   1.00
C909   C     0.74998   0.50000   0.35597   0.00000  Uiso   1.00
C910   C     0.75000   0.50000   0.64403   0.00000  Uiso   1.00
C911   C     0.50000   0.75002   0.35597   0.00000  Uiso   1.00
C912   C     0.50000   0.75001   0.64403   0.00000  Uiso   1.00
C913   C     0.50001   0.75000   0.85597   0.00000  Uiso   1.00
C914   C     0.50002   0.75000   0.14402   0.00000  Uiso   1.00
C915   C     0.75000   0.99999   0.85597   0.00000  Uiso   1.00
C916   C     0.75000   0.99998   0.14402   0.00000  Uiso   1.00
C917   C     0.68000   0.57001   0.25000   0.00000  Uiso   1.00
C918   C     0.97054   0.73448   0.41862   0.00000  Uiso   1.00
C919   C     0.82001   0.93000   0.74999   0.00000  Uiso   1.00
C920   C     0.92999   0.67999   0.25000   0.00000  Uiso   1.00
C921   C     0.57001   0.82000   0.75000   0.00000  Uiso   1.00
C922   C     0.82001   0.93000   0.25001   0.00000  Uiso   1.00
C923   C     0.67999   0.57000   0.74999   0.00000  Uiso   1.00
C924   C     0.57001   0.82000   0.25000   0.00000  Uiso   1.00
C925   C     0.92999   0.68000   0.75000   0.00000  Uiso   1.00
C926   C     0.68000   0.92999   0.75001   0.00000  Uiso   1.00
C927   C     0.82001   0.57001   0.25000   0.00000  Uiso   1.00
C928   C     0.93000   0.82001   0.75000   0.00000  Uiso   1.00
C929   C     0.52944   0.76566   0.58140   0.00000  Uiso   1.00
C930   C     0.57000   0.67999   0.25001   0.00000  Uiso   1.00
C931   C     0.82000   0.57001   0.75001   0.00000  Uiso   1.00
C932   C     0.68000   0.92999   0.24999   0.00000  Uiso   1.00
C933   C     0.57000   0.67999   0.75000   0.00000  Uiso   1.00
C934   C     0.92999   0.82000   0.25000   0.00000  Uiso   1.00
C935   C     0.64428   0.88278   0.21555   0.00000  Uiso   1.00
C936   C     0.85575   0.61719   0.78446   0.00000  Uiso   1.00
C937   C     0.61766   0.64472   0.21575   0.00000  Uiso   1.00
C938   C     0.88267   0.85561   0.78438   0.00000  Uiso   1.00
C939   C     0.88449   0.58845   0.25851   0.00000  Uiso   1.00
C940   C     0.76574   0.97064   0.41861   0.00000  Uiso   1.00
C941   C     0.64425   0.88281   0.78446   0.00000  Uiso   1.00
C942   C     0.88233   0.85527   0.21576   0.00000  Uiso   1.00
C943   C     0.61733   0.64438   0.78438   0.00000  Uiso   1.00
C944   C     0.64439   0.61732   0.78438   0.00000  Uiso   1.00
C945   C     0.85529   0.88235   0.21575   0.00000  Uiso   1.00
C946   C     0.61719   0.85575   0.78445   0.00000  Uiso   1.00
C947   C     0.91155   0.61551   0.25851   0.00000  Uiso   1.00
C948   C     0.85562   0.88268   0.78438   0.00000  Uiso   1.00
C949   C     0.64474   0.61768   0.21576   0.00000  Uiso   1.00
C950   C     0.88281   0.64424   0.78446   0.00000  Uiso   1.00
C951   C     0.73414   0.52932   0.58140   0.00000  Uiso   1.00
C952   C     0.61722   0.85572   0.21556   0.00000  Uiso   1.00
C953   C     0.89425   0.63281   0.71556   0.00000  Uiso   1.00
C954   C     0.60572   0.86722   0.28442   0.00000  Uiso   1.00
C955   C     0.86731   0.89438   0.71559   0.00000  Uiso   1.00
C956   C     0.63236   0.60529   0.28427   0.00000  Uiso   1.00
C957   C     0.60575   0.86719   0.71557   0.00000  Uiso   1.00
C958   C     0.86551   0.66155   0.24147   0.00000  Uiso   1.00
C959   C     0.63269   0.60563   0.71559   0.00000  Uiso   1.00
C960   C     0.86766   0.89472   0.28427   0.00000  Uiso   1.00
C961   C     0.89471   0.86765   0.28427   0.00000  Uiso   1.00
C962   C     0.77940   0.51566   0.91860   0.00000  Uiso   1.00
C963   C     0.60562   0.63268   0.71560   0.00000  Uiso   1.00
C964   C     0.83845   0.63449   0.24147   0.00000  Uiso   1.00
C965   C     0.63280   0.89426   0.71557   0.00000  Uiso   1.00
C966   C     0.60527   0.63233   0.28426   0.00000  Uiso   1.00
C967   C     0.89438   0.86732   0.71559   0.00000  Uiso   1.00
C968   C     0.63277   0.89428   0.28442   0.00000  Uiso   1.00
C969   C     0.86720   0.60575   0.71557   0.00000  Uiso   1.00
C970   C     0.97026   0.73439   0.45920   0.00000  Uiso   1.00
C971   C     0.52970   0.76581   0.54081   0.00000  Uiso   1.00
C972   C     0.76584   0.97036   0.45919   0.00000  Uiso   1.00
F973   F     0.91195   0.70356   0.46125   0.00000  Uiso   1.00
F974   F     0.83787   0.54678   0.03875   0.00000  Uiso   1.00
F975   F     0.54704   0.83779   0.96122   0.00000  Uiso   1.00
F976   F     0.95321   0.66213   0.03876   0.00000  Uiso   1.00
F977   F     0.83786   0.54682   0.96123   0.00000  Uiso   1.00
F978   F     0.66221   0.95295   0.03876   0.00000  Uiso   1.00
F979   F     0.95318   0.66214   0.96124   0.00000  Uiso   1.00
F980   F     0.54705   0.83779   0.03875   0.00000  Uiso   1.00
F981   F     0.55735   0.78145   0.39858   0.00000  Uiso   1.00
F982   F     0.94264   0.71865   0.60142   0.00000  Uiso   1.00
F983   F     0.71810   0.55709   0.39856   0.00000  Uiso   1.00
F984   F     0.58797   0.79670   0.53877   0.00000  Uiso   1.00
F985   F     0.78176   0.94285   0.60143   0.00000  Uiso   1.00
F986   F     0.94264   0.71868   0.39860   0.00000  Uiso   1.00
F987   F     0.55735   0.78143   0.60143   0.00000  Uiso   1.00
F988   F     0.78174   0.94285   0.39857   0.00000  Uiso   1.00
F989   F     0.71819   0.55713   0.60143   0.00000  Uiso   1.00
F990   F     0.80725   0.53155   0.89858   0.00000  Uiso   1.00
F991   F     0.69276   0.96836   0.10143   0.00000  Uiso   1.00
F992   F     0.96845   0.69275   0.89858   0.00000  Uiso   1.00
F993   F     0.53164   0.80724   0.10142   0.00000  Uiso   1.00
F994   F     0.69276   0.96837   0.89856   0.00000  Uiso   1.00
F995   F     0.79715   0.91230   0.46124   0.00000  Uiso   1.00
F996   F     0.80725   0.53153   0.10141   0.00000  Uiso   1.00
F997   F     0.53163   0.80724   0.89856   0.00000  Uiso   1.00
F998   F     0.96847   0.69275   0.10142   0.00000  Uiso   1.00
F999   F     0.70265   0.58762   0.53877   0.00000  Uiso   1.00
F1000  F     0.58797   0.79671   0.46124   0.00000  Uiso   1.00
F1001  F     0.91197   0.70352   0.53877   0.00000  Uiso   1.00
F1002  F     0.70261   0.58760   0.46123   0.00000  Uiso   1.00
F1003  F     0.79716   0.91231   0.53877   0.00000  Uiso   1.00
F1004  F     0.66220   0.95297   0.96123   0.00000  Uiso   1.00
O1005  O     0.75000   0.50000   0.25000   0.00000  Uiso   1.00
O1006  O     0.75000   0.96963   0.66245   0.00000  Uiso   1.00
O1007  O     0.96964   0.75000   0.33755   0.00000  Uiso   1.00
O1008  O     0.53037   0.75000   0.66245   0.00000  Uiso   1.00
O1009  O     0.50000   0.71963   0.83755   0.00000  Uiso   1.00
O1010  O     0.50000   0.78036   0.16245   0.00000  Uiso   1.00
O1011  O     0.78037   0.50000   0.83755   0.00000  Uiso   1.00
O1012  O     0.71964   0.50000   0.16245   0.00000  Uiso   1.00
O1013  O     0.50000   0.78037   0.83755   0.00000  Uiso   1.00
O1014  O     0.50000   0.71963   0.16245   0.00000  Uiso   1.00
O1015  O     0.71964   0.50000   0.83755   0.00000  Uiso   1.00
O1016  O     0.75000   0.50000   0.75000   0.00000  Uiso   1.00
O1017  O     0.78037   0.50000   0.16245   0.00000  Uiso   1.00
O1018  O     0.70725   0.57308   0.27302   0.00000  Uiso   1.00
O1019  O     0.79276   0.92692   0.72698   0.00000  Uiso   1.00
O1020  O     0.92693   0.70725   0.27302   0.00000  Uiso   1.00
O1021  O     0.57308   0.79275   0.72698   0.00000  Uiso   1.00
O1022  O     0.79276   0.92692   0.27302   0.00000  Uiso   1.00
O1023  O     0.70725   0.57308   0.72698   0.00000  Uiso   1.00
O1024  O     0.57308   0.79275   0.27302   0.00000  Uiso   1.00
O1025  O     0.92693   0.70725   0.72698   0.00000  Uiso   1.00
O1026  O     0.70725   0.92692   0.72698   0.00000  Uiso   1.00
O1027  O     0.50000   0.75000   0.25000   0.00000  Uiso   1.00
O1028  O     0.79276   0.57308   0.27302   0.00000  Uiso   1.00
O1029  O     0.92693   0.79276   0.72698   0.00000  Uiso   1.00
O1030  O     0.57308   0.70724   0.27302   0.00000  Uiso   1.00
O1031  O     0.79276   0.57308   0.72698   0.00000  Uiso   1.00
O1032  O     0.70725   0.92692   0.27302   0.00000  Uiso   1.00
O1033  O     0.57308   0.70724   0.72698   0.00000  Uiso   1.00
O1034  O     0.92693   0.79276   0.27302   0.00000  Uiso   1.00
O1035  O     0.95725   0.82308   0.77302   0.00000  Uiso   1.00
O1036  O     0.54276   0.67692   0.22698   0.00000  Uiso   1.00
O1037  O     0.67693   0.95724   0.77302   0.00000  Uiso   1.00
O1038  O     0.50000   0.75000   0.75000   0.00000  Uiso   1.00
O1039  O     0.82308   0.54276   0.22698   0.00000  Uiso   1.00
O1040  O     0.54276   0.67692   0.77302   0.00000  Uiso   1.00
O1041  O     0.95725   0.82308   0.22698   0.00000  Uiso   1.00
O1042  O     0.82308   0.54276   0.77302   0.00000  Uiso   1.00
O1043  O     0.67693   0.95724   0.22698   0.00000  Uiso   1.00
O1044  O     0.95725   0.67693   0.22698   0.00000  Uiso   1.00
O1045  O     0.54276   0.82307   0.77302   0.00000  Uiso   1.00
O1046  O     0.67693   0.54276   0.22698   0.00000  Uiso   1.00
O1047  O     0.82308   0.95724   0.77302   0.00000  Uiso   1.00
O1048  O     0.54276   0.82307   0.22698   0.00000  Uiso   1.00
O1049  O     0.75000   0.96963   0.33755   0.00000  Uiso   1.00
O1050  O     0.95725   0.67693   0.77302   0.00000  Uiso   1.00
O1051  O     0.82308   0.95724   0.22698   0.00000  Uiso   1.00
O1052  O     0.67693   0.54276   0.77302   0.00000  Uiso   1.00
O1053  O     0.75000   0.53037   0.66245   0.00000  Uiso   1.00
O1054  O     0.53037   0.75000   0.33755   0.00000  Uiso   1.00
O1055  O     0.96964   0.75000   0.66245   0.00000  Uiso   1.00
O1056  O     0.75000   0.53037   0.33755   0.00000  Uiso   1.00
Zn1057 Zn    0.70660   0.50000   0.21735   0.00000  Uiso   1.00
Zn1058 Zn    0.54341   0.75000   0.28265   0.00000  Uiso   1.00
Zn1059 Zn    0.75000   0.95659   0.71735   0.00000  Uiso   1.00
Zn1060 Zn    0.75000   0.54341   0.28265   0.00000  Uiso   1.00
Zn1061 Zn    0.54341   0.75000   0.71735   0.00000  Uiso   1.00
Zn1062 Zn    0.95660   0.75000   0.28265   0.00000  Uiso   1.00
Zn1063 Zn    0.75000   0.54341   0.71735   0.00000  Uiso   1.00
Zn1064 Zn    0.75000   0.95659   0.28265   0.00000  Uiso   1.00
Zn1065 Zn    0.79341   0.50000   0.78265   0.00000  Uiso   1.00
Zn1066 Zn    0.50000   0.70660   0.21735   0.00000  Uiso   1.00
Zn1067 Zn    0.50000   0.79340   0.78265   0.00000  Uiso   1.00
Zn1068 Zn    0.79341   0.50000   0.21735   0.00000  Uiso   1.00
Zn1069 Zn    0.70660   0.50000   0.78265   0.00000  Uiso   1.00
Zn1070 Zn    0.50000   0.79340   0.21735   0.00000  Uiso   1.00
Zn1071 Zn    0.50000   0.70659   0.78265   0.00000  Uiso   1.00
Zn1072 Zn    0.95660   0.75000   0.71735   0.00000  Uiso   1.00
loop_
_geom_bond_atom_site_label_1
_geom_bond_atom_site_label_2
_geom_bond_distance
_geom_bond_site_symmetry_2
_ccdc_geom_bond_type
Br1    C131    1.933   .     S
Br2    C141    1.933   .     S
Br3    C142    1.933   .     S
Br4    C143    1.933   .     S
Br5    C144    1.933   .     S
Br6    C145    1.933   .     S
Br7    C146    1.933   .     S
Br8    C148    1.933   .     S
Br9    C149    1.933   .     S
Br10   C150    1.933   .     S
Br11   C151    1.933   .     S
Br12   C132    1.933   .     S
Br13   C152    1.933   .     S
Br14   C153    1.933   .     S
Br15   C154    1.933   .     S
Br16   C155    1.933   .     S
Br17   C156    1.933   .     S
Br18   C157    1.933   .     S
Br19   C159    1.933   .     S
Br20   C160    1.933   .     S
Br21   C161    1.933   .     S
Br22   C162    1.933   .     S
Br23   C133    1.933   .     S
Br24   C163    1.933   .     S
Br25   C164    1.933   .     S
Br26   C165    1.933   .     S
Br27   C134    1.933   .     S
Br28   C135    1.933   .     S
Br29   C137    1.933   .     S
Br30   C138    1.933   .     S
Br31   C139    1.933   .     S
Br32   C140    1.933   .     S
C33    C36     1.401   .     A
C33    F177    1.360   .     S
C33    C346    1.403   1_455 S
C34    F187    1.360   .     S
C34    C46     1.401   .     A
C34    C84     1.403   .     A
C35    C147    1.401   .     A
C35    C90     1.406   .     A
C35    C606    1.415   1_545 S
C36    C91     1.406   .     A
C36    C334    1.415   1_455 S
C37    C68     1.415   .     A
C37    C81     1.401   .     A
C37    C93     1.406   .     A
C38    C92     1.401   .     A
C38    C94     1.406   .     A
C38    C605    1.415   1_545 S
C39    C95     1.406   .     A
C39    C103    1.401   .     A
C39    C70     1.415   .     A
C40    C71     1.415   .     A
C40    C67     1.401   .     A
C40    C96     1.406   .     A
C41    C75     1.401   .     A
C41    C97     1.406   .     A
C41    C608    1.415   1_545 S
C42    C98     1.406   .     A
C42    C73     1.415   .     A
C42    C76     1.401   .     A
C43    C99     1.406   .     A
C43    C77     1.401   .     A
C43    C342    1.415   .     S
C44    C158    1.401   .     A
C44    C100    1.406   .     A
C44    C607    1.415   1_545 S
C45    C47     1.401   .     A
C45    F188    1.360   .     S
C45    C353    1.403   .     S
C46    C72     1.415   .     A
C46    C101    1.406   .     A
C47    C102    1.406   .     A
C47    C341    1.415   .     S
C48    C104    1.406   .     A
C48    C74     1.415   .     A
C48    C56     1.401   .     A
C49    C150    1.407   .     A
C49    C120    1.450   .     S
C49    C148    1.407   .     A
C50    C121    1.450   .     S
C50    C146    1.407   .     A
C50    C149    1.407   .     A
C51    C145    1.407   .     A
C51    C152    1.407   .     A
C51    C113    1.450   .     S
C52    C151    1.407   .     A
C52    C144    1.407   .     A
C52    C115    1.450   .     S
C53    C116    1.450   .     S
C53    C154    1.407   .     A
C53    C143    1.407   .     A
C54    C142    1.407   .     A
C54    C117    1.450   .     S
C54    C153    1.407   .     A
C55    C141    1.407   .     A
C55    C156    1.407   .     A
C55    C118    1.450   .     S
C56    C86     1.403   .     A
C56    F189    1.360   .     S
C57    C140    1.407   .     A
C57    C155    1.407   .     A
C57    C119    1.450   .     S
C58    C139    1.407   .     A
C58    C159    1.407   .     A
C58    C129    1.450   .     S
C59    C130    1.450   .     S
C59    C138    1.407   .     A
C59    C157    1.407   .     A
C60    C137    1.407   .     A
C60    C161    1.407   .     A
C60    C122    1.450   .     S
C61    C135    1.407   .     A
C61    C160    1.407   .     A
C61    C123    1.450   .     S
C62    C124    1.450   .     S
C62    C163    1.407   .     A
C62    C134    1.407   .     A
C63    C162    1.407   .     A
C63    C133    1.407   .     A
C63    C126    1.450   .     S
C64    C165    1.407   .     A
C64    C127    1.450   .     S
C64    C132    1.407   .     A
C65    C131    1.407   .     A
C65    C128    1.450   .     S
C65    C164    1.407   .     A
C66    C68     1.409   .     A
C66    C166    1.415   .     A
C66    C304    1.415   .     S
C67    C83     1.403   .     A
C67    F190    1.360   .     S
C68    C435    1.415   .     S
C69    C70     1.410   .     A
C69    C168    1.415   .     A
C69    C574    1.415   .     S
C70    C571    1.415   .     S
C71    C580    1.415   .     S
C71    C72     1.410   1_556 S
C72    C577    1.415   .     S
C72    C71     1.410   1_554 S
C73    C315    1.415   1_455 S
C73    C74     1.410   1_556 S
C74    C311    1.415   1_455 S
C74    C73     1.410   1_554 S
C75    F192    1.360   .     S
C75    C620    1.403   1_545 S
C76    C85     1.403   .     A
C76    F193    1.360   .     S
C77    F194    1.360   .     S
C77    C354    1.403   .     S
C78    C114    1.403   .     A
C78    C301    1.403   .     S
C78    C375    1.464   .     S
C79    C349    1.403   1_455 A
C79    C108    1.464   .     S
C79    C125    1.403   .     S
C80    C641    1.464   .     S
C80    C136    1.403   .     A
C80    C628    1.403   .     S
C81    F178    1.360   .     S
C81    C347    1.403   .     A
C82    C103    1.403   .     A
C82    C642    1.464   .     S
C82    C683    1.403   .     S
C83    C111    1.464   .     S
C83    C694    1.403   .     S
C84    C112    1.464   .     S
C84    C611    1.403   .     S
C85    C109    1.464   .     S
C85    C313    1.403   1_455 S
C86    C110    1.464   .     S
C86    C345    1.403   1_455 S
C87    C93     1.391   .     A
C87    C166    1.406   .     A
C87    F169    1.358   .     S
C88    C91     1.391   .     A
C88    C167    1.406   .     A
C88    F180    1.358   .     S
C89    C95     1.391   .     A
C89    C168    1.406   .     A
C89    F191    1.358   .     S
C90    F195    1.358   .     S
C90    C94     1.391   .     A
C91    F196    1.358   .     S
C92    F179    1.360   .     S
C92    C616    1.403   1_545 S
C93    F197    1.358   .     S
C94    F198    1.358   .     S
C95    F199    1.358   .     S
C96    F200    1.358   .     S
C96    C101    1.391   1_556 S
C97    F170    1.358   .     S
C97    C100    1.391   1_554 S
C98    F171    1.358   .     S
C98    C104    1.391   1_556 S
C99    F172    1.358   .     S
C99    C102    1.391   1_554 S
C100   F173    1.358   .     S
C100   C97     1.391   1_556 S
C101   F174    1.358   .     S
C101   C96     1.391   1_554 S
C102   F175    1.358   .     S
C102   C99     1.391   1_556 S
C103   F181    1.360   .     S
C104   F176    1.358   .     S
C104   C98     1.391   1_554 S
C105   O781    1.278   1_545 A
C105   C616    1.464   1_545 S
C105   O252    1.279   .     S
C106   O249    1.278   .     A
C106   C618    1.464   1_545 S
C106   O738    1.278   1_545 S
C107   O250    1.278   .     A
C107   C346    1.464   1_455 S
C107   O471    1.278   1_455 S
C108   O204    1.278   .     A
C108   O519    1.278   1_455 S
C109   O205    1.278   .     A
C109   O209    1.278   .     S
C110   O210    1.279   .     A
C110   O206    1.278   .     A
C111   O743    1.278   .     A
C111   O747    1.278   .     A
C112   O744    1.278   .     S
C112   O749    1.279   .     S
C113   O214    1.278   .     A
C113   O242    1.279   .     A
C114   C166    1.401   .     A
C114   F182    1.360   .     S
C115   O215    1.278   .     A
C115   O243    1.279   .     A
C116   O216    1.279   .     A
C116   O240    1.279   .     A
C117   O217    1.279   .     A
C117   O241    1.278   .     A
C118   O218    1.279   .     A
C118   O247    1.278   .     A
C119   O219    1.278   .     A
C119   O248    1.279   .     A
C120   O244    1.278   .     A
C120   O220    1.279   .     A
C121   O246    1.278   .     A
C121   O221    1.279   .     A
C122   O222    1.279   .     A
C122   O233    1.278   .     A
C123   O235    1.278   .     A
C123   O224    1.279   .     A
C124   O225    1.279   .     A
C124   O231    1.279   .     A
C125   F183    1.360   .     S
C125   C167    1.401   .     A
C126   O226    1.279   .     A
C126   O232    1.278   .     A
C127   O227    1.279   .     A
C127   O238    1.278   .     A
C128   O239    1.278   .     A
C128   O228    1.279   .     A
C129   O236    1.279   .     A
C129   O229    1.278   .     A
C130   O237    1.279   .     A
C130   O230    1.278   .     A
C131   C148    1.398   .     A
C132   C146    1.398   .     A
C133   C145    1.398   .     A
C134   C144    1.398   .     A
C135   C143    1.398   .     A
C136   F184    1.360   .     S
C136   C168    1.401   .     A
C137   C142    1.398   .     A
C138   C141    1.398   .     A
C139   C140    1.398   .     A
C147   F185    1.360   .     S
C147   C618    1.403   1_545 S
C149   C165    1.398   .     A
C150   C164    1.398   .     A
C151   C163    1.398   .     A
C152   C162    1.398   .     A
C153   C161    1.398   .     A
C154   C160    1.398   .     A
C155   C159    1.398   .     A
C156   C157    1.398   .     A
C158   F186    1.360   .     S
C158   C619    1.403   1_545 S
C167   C336    1.415   1_455 S
O201   Zn264   1.945   .     S
O201   Zn256   1.945   .     S
O201   Zn253   1.945   .     S
O201   Zn796   1.945   1_545 S
O202   Zn255   1.954   .     S
O202   C642    1.278   .     S
O203   Zn258   1.954   .     S
O203   C375    1.278   .     S
O204   Zn257   1.954   .     S
O205   Zn267   1.954   .     S
O206   Zn266   1.954   .     S
O207   C647    1.278   1_545 A
O207   Zn261   1.954   .     S
O208   Zn253   1.954   .     S
O208   C648    1.278   1_545 S
O209   Zn263   1.954   .     S
O210   Zn262   1.954   .     S
O211   C647    1.278   1_545 A
O211   Zn265   1.954   .     S
O212   Zn261   1.945   .     S
O212   Zn265   1.945   .     S
O212   Zn259   1.945   .     S
O212   Zn791   1.945   1_545 S
O213   Zn264   1.954   .     S
O213   C648    1.279   1_545 S
O214   Zn256   1.930   .     S
O215   Zn255   1.930   .     S
O216   Zn258   1.930   .     S
O217   Zn257   1.930   .     S
O218   Zn260   1.930   .     S
O219   Zn259   1.930   .     S
O220   Zn254   1.930   .     S
O221   Zn268   1.930   .     S
O222   Zn255   1.930   .     S
O223   Zn254   1.945   .     S
O223   Zn266   1.945   .     S
O223   Zn526   1.945   1_455 S
O223   Zn262   1.945   .     S
O224   Zn256   1.930   .     S
O225   Zn268   1.930   .     S
O226   Zn254   1.930   .     S
O227   Zn259   1.930   .     S
O228   Zn260   1.930   .     S
O229   Zn257   1.930   .     S
O230   Zn258   1.930   .     S
O231   Zn531   1.930   .     S
O232   Zn262   1.930   .     S
O233   Zn801   1.930   .     S
O234   Zn536   1.945   1_455 S
O234   Zn257   1.945   .     S
O234   Zn263   1.945   .     S
O234   Zn267   1.945   .     S
O235   Zn264   1.930   .     S
O236   Zn267   1.930   .     S
O237   Zn534   1.930   .     S
O238   Zn261   1.930   .     S
O239   Zn789   1.930   .     S
O240   Zn530   1.930   .     S
O241   Zn263   1.930   .     S
O242   Zn253   1.930   .     S
O243   Zn797   1.930   .     S
O244   Zn266   1.930   .     S
O245   C641    1.278   .     A
O245   Zn260   1.954   .     S
O246   Zn535   1.930   .     S
O247   Zn800   1.930   .     S
O248   Zn265   1.930   .     S
O249   Zn259   1.954   .     S
O250   Zn254   1.954   .     S
O251   Zn268   1.954   .     S
O251   C376    1.278   .     S
O252   Zn256   1.954   .     S
Zn253  O775    1.930   1_545 S
Zn255  O748    1.945   .     S
Zn258  O491    1.945   .     S
Zn260  O737    1.945   .     S
Zn261  O779    1.930   1_545 S
Zn262  O508    1.930   1_455 S
Zn263  O499    1.930   1_455 S
Zn264  O783    1.930   1_545 S
Zn265  O769    1.930   1_545 S
Zn266  O505    1.930   1_455 S
Zn267  O514    1.930   1_455 S
Zn268  O502    1.945   .     S
Br269  C399    1.933   .     S
Br270  C409    1.933   .     S
Br271  C410    1.933   .     S
Br272  C411    1.933   .     S
Br273  C412    1.933   .     S
Br274  C413    1.933   .     S
Br275  C414    1.933   .     S
Br276  C416    1.933   .     S
Br277  C417    1.933   .     S
Br278  C418    1.933   .     S
Br279  C419    1.933   .     S
Br280  C400    1.933   .     S
Br281  C420    1.933   .     S
Br282  C421    1.933   .     S
Br283  C422    1.933   .     S
Br284  C423    1.933   .     S
Br285  C424    1.933   .     S
Br286  C425    1.933   .     S
Br287  C427    1.933   .     S
Br288  C428    1.933   .     S
Br289  C429    1.933   .     S
Br290  C430    1.933   .     S
Br291  C401    1.933   .     S
Br292  C431    1.933   .     S
Br293  C432    1.933   .     S
Br294  C433    1.933   .     S
Br295  C402    1.933   .     S
Br296  C403    1.933   .     S
Br297  C405    1.933   .     S
Br298  C406    1.933   .     S
Br299  C407    1.933   .     S
Br300  C408    1.933   .     S
C301   C304    1.401   .     A
C301   F445    1.360   .     S
C302   F455    1.360   .     S
C302   C314    1.401   .     A
C302   C352    1.403   .     A
C303   C415    1.401   .     A
C303   C358    1.406   .     A
C303   C874    1.415   1_545 S
C304   C359    1.406   .     A
C305   C336    1.415   .     A
C305   C349    1.401   .     A
C305   C361    1.406   .     A
C306   C360    1.401   .     A
C306   C362    1.406   .     A
C306   C873    1.415   1_545 S
C307   C363    1.406   .     A
C307   C371    1.401   .     A
C307   C338    1.415   .     A
C308   C339    1.415   .     A
C308   C335    1.401   .     A
C308   C364    1.406   .     A
C309   C343    1.401   .     A
C309   C365    1.406   .     A
C309   C876    1.415   1_545 S
C310   C366    1.406   .     A
C310   C341    1.415   .     A
C310   C344    1.401   .     A
C311   C367    1.406   .     A
C311   C345    1.401   .     A
C311   C74     1.415   1_655 S
C312   C426    1.401   .     A
C312   C368    1.406   .     A
C312   C875    1.415   1_545 S
C313   C315    1.401   .     A
C313   F456    1.360   .     S
C313   C85     1.403   1_655 S
C314   C340    1.415   .     A
C314   C369    1.406   .     A
C315   C370    1.406   .     A
C315   C73     1.415   1_655 S
C316   C372    1.406   .     A
C316   C342    1.415   .     A
C316   C324    1.401   .     A
C317   C418    1.407   .     A
C317   C388    1.450   .     S
C317   C416    1.407   .     A
C318   C389    1.450   .     S
C318   C414    1.407   .     A
C318   C417    1.407   .     A
C319   C413    1.407   .     A
C319   C420    1.407   .     A
C319   C381    1.450   .     S
C320   C419    1.407   .     A
C320   C412    1.407   .     A
C320   C383    1.450   .     S
C321   C384    1.450   .     S
C321   C422    1.407   .     A
C321   C411    1.407   .     A
C322   C410    1.407   .     A
C322   C385    1.450   .     S
C322   C421    1.407   .     A
C323   C409    1.407   .     A
C323   C424    1.407   .     A
C323   C386    1.450   .     S
C324   C354    1.403   .     A
C324   F457    1.360   .     S
C325   C408    1.407   .     A
C325   C423    1.407   .     A
C325   C387    1.450   .     S
C326   C407    1.407   .     A
C326   C427    1.407   .     A
C326   C397    1.450   .     S
C327   C398    1.450   .     S
C327   C406    1.407   .     A
C327   C425    1.407   .     A
C328   C405    1.407   .     A
C328   C429    1.407   .     A
C328   C390    1.450   .     S
C329   C403    1.407   .     A
C329   C428    1.407   .     A
C329   C391    1.450   .     S
C330   C392    1.450   .     S
C330   C431    1.407   .     A
C330   C402    1.407   .     A
C331   C430    1.407   .     A
C331   C401    1.407   .     A
C331   C394    1.450   .     S
C332   C433    1.407   .     A
C332   C395    1.450   .     S
C332   C400    1.407   .     A
C333   C399    1.407   .     A
C333   C396    1.450   .     S
C333   C432    1.407   .     A
C334   C336    1.409   .     A
C334   C434    1.415   .     A
C334   C36     1.415   1_655 S
C335   C351    1.403   .     A
C335   F458    1.360   .     S
C336   C167    1.415   1_655 S
C337   C338    1.410   .     A
C337   C436    1.415   .     A
C337   C842    1.415   .     S
C338   C839    1.415   .     S
C339   C848    1.415   .     S
C339   C340    1.410   1_556 S
C340   C845    1.415   .     S
C340   C339    1.410   1_554 S
C341   C342    1.410   1_556 S
C342   C341    1.410   1_554 S
C343   F460    1.360   .     S
C343   C888    1.403   1_545 S
C344   C353    1.403   .     A
C344   F461    1.360   .     S
C345   F462    1.360   .     S
C345   C86     1.403   1_655 S
C346   C382    1.403   .     A
C346   C33     1.403   1_655 S
C346   C107    1.464   1_655 S
C347   C376    1.464   .     S
C347   C393    1.403   .     S
C348   C909    1.464   .     S
C348   C404    1.403   .     A
C348   C896    1.403   .     S
C349   F446    1.360   .     S
C349   C79     1.403   1_655 A
C350   C371    1.403   .     A
C350   C910    1.464   .     S
C350   C951    1.403   .     S
C351   C379    1.464   .     S
C351   C962    1.403   .     S
C352   C380    1.464   .     S
C352   C879    1.403   .     S
C353   C377    1.464   .     S
C354   C378    1.464   .     S
C355   C361    1.391   .     A
C355   C434    1.406   .     A
C355   F437    1.358   .     S
C356   C359    1.391   .     A
C356   C435    1.406   .     A
C356   F448    1.358   .     S
C357   C363    1.391   .     A
C357   C436    1.406   .     A
C357   F459    1.358   .     S
C358   F463    1.358   .     S
C358   C362    1.391   .     A
C359   F464    1.358   .     S
C360   F447    1.360   .     S
C360   C884    1.403   1_545 S
C361   F465    1.358   .     S
C362   F466    1.358   .     S
C363   F467    1.358   .     S
C364   F468    1.358   .     S
C364   C369    1.391   1_556 S
C365   F438    1.358   .     S
C365   C368    1.391   1_554 S
C366   F439    1.358   .     S
C366   C372    1.391   1_556 S
C367   F440    1.358   .     S
C367   C370    1.391   1_554 S
C368   F441    1.358   .     S
C368   C365    1.391   1_556 S
C369   F442    1.358   .     S
C369   C364    1.391   1_554 S
C370   F443    1.358   .     S
C370   C367    1.391   1_556 S
C371   F449    1.360   .     S
C372   F444    1.358   .     S
C372   C366    1.391   1_554 S
C373   O1049   1.278   1_545 A
C373   C884    1.464   1_545 S
C373   O520    1.279   .     S
C374   O517    1.278   .     A
C374   C886    1.464   1_545 S
C374   O1006   1.278   1_545 S
C375   O518    1.278   .     A
C376   O472    1.278   .     A
C377   O473    1.278   .     A
C377   O477    1.278   .     S
C378   O478    1.279   .     A
C378   O474    1.278   .     A
C379   O1011   1.278   .     A
C379   O1015   1.278   .     A
C380   O1012   1.278   .     S
C380   O1017   1.279   .     S
C381   O482    1.278   .     A
C381   O510    1.279   .     A
C382   C434    1.401   .     A
C382   F450    1.360   .     S
C383   O483    1.278   .     A
C383   O511    1.279   .     A
C384   O484    1.279   .     A
C384   O508    1.279   .     A
C385   O485    1.279   .     A
C385   O509    1.278   .     A
C386   O486    1.279   .     A
C386   O515    1.278   .     A
C387   O487    1.278   .     A
C387   O516    1.279   .     A
C388   O512    1.278   .     A
C388   O488    1.279   .     A
C389   O514    1.278   .     A
C389   O489    1.279   .     A
C390   O490    1.279   .     A
C390   O501    1.278   .     A
C391   O503    1.278   .     A
C391   O492    1.279   .     A
C392   O493    1.279   .     A
C392   O499    1.279   .     A
C393   F451    1.360   .     S
C393   C435    1.401   .     A
C394   O494    1.279   .     A
C394   O500    1.278   .     A
C395   O495    1.279   .     A
C395   O506    1.278   .     A
C396   O507    1.278   .     A
C396   O496    1.279   .     A
C397   O504    1.279   .     A
C397   O497    1.278   .     A
C398   O505    1.279   .     A
C398   O498    1.278   .     A
C399   C416    1.398   .     A
C400   C414    1.398   .     A
C401   C413    1.398   .     A
C402   C412    1.398   .     A
C403   C411    1.398   .     A
C404   F452    1.360   .     S
C404   C436    1.401   .     A
C405   C410    1.398   .     A
C406   C409    1.398   .     A
C407   C408    1.398   .     A
C415   F453    1.360   .     S
C415   C886    1.403   1_545 S
C417   C433    1.398   .     A
C418   C432    1.398   .     A
C419   C431    1.398   .     A
C420   C430    1.398   .     A
C421   C429    1.398   .     A
C422   C428    1.398   .     A
C423   C427    1.398   .     A
C424   C425    1.398   .     A
C426   F454    1.360   .     S
C426   C887    1.403   1_545 S
O469   Zn532   1.945   .     S
O469   Zn524   1.945   .     S
O469   Zn521   1.945   .     S
O469   Zn1064  1.945   1_545 S
O470   Zn523   1.954   .     S
O470   C910    1.278   .     S
O471   Zn526   1.954   .     S
O471   C107    1.278   1_655 S
O472   Zn525   1.954   .     S
O473   Zn535   1.954   .     S
O474   Zn534   1.954   .     S
O475   C915    1.278   1_545 A
O475   Zn529   1.954   .     S
O476   Zn521   1.954   .     S
O476   C916    1.278   1_545 S
O477   Zn531   1.954   .     S
O478   Zn530   1.954   .     S
O479   C915    1.278   1_545 A
O479   Zn533   1.954   .     S
O480   Zn529   1.945   .     S
O480   Zn533   1.945   .     S
O480   Zn527   1.945   .     S
O480   Zn1059  1.945   1_545 S
O481   Zn532   1.954   .     S
O481   C916    1.279   1_545 S
O482   Zn524   1.930   .     S
O483   Zn523   1.930   .     S
O484   Zn526   1.930   .     S
O485   Zn525   1.930   .     S
O486   Zn528   1.930   .     S
O487   Zn527   1.930   .     S
O488   Zn522   1.930   .     S
O489   Zn536   1.930   .     S
O490   Zn523   1.930   .     S
O491   Zn522   1.945   .     S
O491   Zn534   1.945   .     S
O491   Zn530   1.945   .     S
O492   Zn524   1.930   .     S
O493   Zn536   1.930   .     S
O494   Zn522   1.930   .     S
O495   Zn527   1.930   .     S
O496   Zn528   1.930   .     S
O497   Zn525   1.930   .     S
O498   Zn526   1.930   .     S
O499   Zn263   1.930   1_655 S
O500   Zn530   1.930   .     S
O501   Zn1069  1.930   .     S
O502   Zn525   1.945   .     S
O502   Zn531   1.945   .     S
O502   Zn535   1.945   .     S
O503   Zn532   1.930   .     S
O504   Zn535   1.930   .     S
O505   Zn266   1.930   1_655 S
O506   Zn529   1.930   .     S
O507   Zn1057  1.930   .     S
O508   Zn262   1.930   1_655 S
O509   Zn531   1.930   .     S
O510   Zn521   1.930   .     S
O511   Zn1065  1.930   .     S
O512   Zn534   1.930   .     S
O513   C909    1.278   .     A
O513   Zn528   1.954   .     S
O514   Zn267   1.930   1_655 S
O515   Zn1068  1.930   .     S
O516   Zn533   1.930   .     S
O517   Zn527   1.954   .     S
O518   Zn522   1.954   .     S
O519   Zn536   1.954   .     S
O519   C108    1.278   1_655 S
O520   Zn524   1.954   .     S
Zn521  O1043   1.930   1_545 S
Zn523  O1016   1.945   .     S
Zn526  O223    1.945   1_655 S
Zn528  O1005   1.945   .     S
Zn529  O1047   1.930   1_545 S
Zn532  O1051   1.930   1_545 S
Zn533  O1037   1.930   1_545 S
Zn536  O234    1.945   1_655 S
Br537  C667    1.933   .     S
Br538  C677    1.933   .     S
Br539  C678    1.933   .     S
Br540  C679    1.933   .     S
Br541  C680    1.933   .     S
Br542  C681    1.933   .     S
Br543  C682    1.933   .     S
Br544  C684    1.933   .     S
Br545  C685    1.933   .     S
Br546  C686    1.933   .     S
Br547  C687    1.933   .     S
Br548  C668    1.933   .     S
Br549  C688    1.933   .     S
Br550  C689    1.933   .     S
Br551  C690    1.933   .     S
Br552  C691    1.933   .     S
Br553  C692    1.933   .     S
Br554  C693    1.933   .     S
Br555  C695    1.933   .     S
Br556  C696    1.933   .     S
Br557  C697    1.933   .     S
Br558  C698    1.933   .     S
Br559  C669    1.933   .     S
Br560  C699    1.933   .     S
Br561  C700    1.933   .     S
Br562  C701    1.933   .     S
Br563  C670    1.933   .     S
Br564  C671    1.933   .     S
Br565  C673    1.933   .     S
Br566  C674    1.933   .     S
Br567  C675    1.933   .     S
Br568  C676    1.933   .     S
C569   C572    1.401   .     A
C569   F713    1.360   .     S
C569   C882    1.403   1_455 S
C570   F723    1.360   .     S
C570   C582    1.401   .     A
C570   C620    1.403   .     A
C571   C683    1.401   .     A
C571   C626    1.406   .     A
C572   C627    1.406   .     A
C572   C870    1.415   1_455 S
C573   C604    1.415   .     A
C573   C617    1.401   .     A
C573   C629    1.406   .     A
C574   C628    1.401   .     A
C574   C630    1.406   .     A
C575   C631    1.406   .     A
C575   C639    1.401   .     A
C575   C606    1.415   .     A
C576   C607    1.415   .     A
C576   C603    1.401   .     A
C576   C632    1.406   .     A
C577   C611    1.401   .     A
C577   C633    1.406   .     A
C578   C634    1.406   .     A
C578   C609    1.415   .     A
C578   C612    1.401   .     A
C579   C635    1.406   .     A
C579   C613    1.401   .     A
C579   C878    1.415   .     S
C580   C694    1.401   .     A
C580   C636    1.406   .     A
C581   C583    1.401   .     A
C581   F724    1.360   .     S
C581   C889    1.403   .     S
C582   C608    1.415   .     A
C582   C637    1.406   .     A
C583   C638    1.406   .     A
C583   C877    1.415   .     S
C584   C640    1.406   .     A
C584   C610    1.415   .     A
C584   C592    1.401   .     A
C585   C686    1.407   .     A
C585   C656    1.450   .     S
C585   C684    1.407   .     A
C586   C657    1.450   .     S
C586   C682    1.407   .     A
C586   C685    1.407   .     A
C587   C681    1.407   .     A
C587   C688    1.407   .     A
C587   C649    1.450   .     S
C588   C687    1.407   .     A
C588   C680    1.407   .     A
C588   C651    1.450   .     S
C589   C652    1.450   .     S
C589   C690    1.407   .     A
C589   C679    1.407   .     A
C590   C678    1.407   .     A
C590   C653    1.450   .     S
C590   C689    1.407   .     A
C591   C677    1.407   .     A
C591   C692    1.407   .     A
C591   C654    1.450   .     S
C592   C622    1.403   .     A
C592   F725    1.360   .     S
C593   C676    1.407   .     A
C593   C691    1.407   .     A
C593   C655    1.450   .     S
C594   C675    1.407   .     A
C594   C695    1.407   .     A
C594   C665    1.450   .     S
C595   C666    1.450   .     S
C595   C674    1.407   .     A
C595   C693    1.407   .     A
C596   C673    1.407   .     A
C596   C697    1.407   .     A
C596   C658    1.450   .     S
C597   C671    1.407   .     A
C597   C696    1.407   .     A
C597   C659    1.450   .     S
C598   C660    1.450   .     S
C598   C699    1.407   .     A
C598   C670    1.407   .     A
C599   C698    1.407   .     A
C599   C669    1.407   .     A
C599   C662    1.450   .     S
C600   C701    1.407   .     A
C600   C663    1.450   .     S
C600   C668    1.407   .     A
C601   C667    1.407   .     A
C601   C664    1.450   .     S
C601   C700    1.407   .     A
C602   C604    1.409   .     A
C602   C702    1.415   .     A
C602   C840    1.415   .     S
C603   C619    1.403   .     A
C603   F726    1.360   .     S
C604   C971    1.415   .     S
C605   C606    1.410   .     A
C605   C704    1.415   .     A
C605   C38     1.415   1_565 S
C606   C35     1.415   1_565 S
C607   C44     1.415   1_565 S
C607   C608    1.410   1_556 S
C608   C41     1.415   1_565 S
C608   C607    1.410   1_554 S
C609   C851    1.415   1_455 S
C609   C610    1.410   1_556 S
C610   C847    1.415   1_455 S
C610   C609    1.410   1_554 S
C611   F728    1.360   .     S
C612   C621    1.403   .     A
C612   F729    1.360   .     S
C613   F730    1.360   .     S
C613   C890    1.403   .     S
C614   C650    1.403   .     A
C614   C837    1.403   .     S
C614   C911    1.464   .     S
C615   C885    1.403   1_455 A
C615   C644    1.464   .     S
C615   C661    1.403   .     S
C616   C105    1.464   1_565 S
C616   C672    1.403   .     A
C616   C92     1.403   1_565 S
C617   F714    1.360   .     S
C617   C883    1.403   .     A
C618   C639    1.403   .     A
C618   C106    1.464   1_565 S
C618   C147    1.403   1_565 S
C619   C647    1.464   .     S
C619   C158    1.403   1_565 S
C620   C648    1.464   .     S
C620   C75     1.403   1_565 S
C621   C645    1.464   .     S
C621   C849    1.403   1_455 S
C622   C646    1.464   .     S
C622   C881    1.403   1_455 S
C623   C629    1.391   .     A
C623   C702    1.406   .     A
C623   F705    1.358   .     S
C624   C627    1.391   .     A
C624   C703    1.406   .     A
C624   F716    1.358   .     S
C625   C631    1.391   .     A
C625   C704    1.406   .     A
C625   F727    1.358   .     S
C626   F731    1.358   .     S
C626   C630    1.391   .     A
C627   F732    1.358   .     S
C628   F715    1.360   .     S
C629   F733    1.358   .     S
C630   F734    1.358   .     S
C631   F735    1.358   .     S
C632   F736    1.358   .     S
C632   C637    1.391   1_556 S
C633   F706    1.358   .     S
C633   C636    1.391   1_554 S
C634   F707    1.358   .     S
C634   C640    1.391   1_556 S
C635   F708    1.358   .     S
C635   C638    1.391   1_554 S
C636   F709    1.358   .     S
C636   C633    1.391   1_556 S
C637   F710    1.358   .     S
C637   C632    1.391   1_554 S
C638   F711    1.358   .     S
C638   C635    1.391   1_556 S
C639   F717    1.360   .     S
C640   F712    1.358   .     S
C640   C634    1.391   1_554 S
C641   O788    1.279   .     S
C642   O785    1.278   .     A
C643   O786    1.278   .     A
C643   C882    1.464   1_455 S
C643   O1007   1.278   1_455 S
C644   O740    1.278   .     A
C644   O1055   1.278   1_455 S
C645   O741    1.278   .     A
C645   O745    1.278   .     S
C646   O746    1.279   .     A
C646   O742    1.278   .     A
C647   O207    1.278   1_565 A
C647   O211    1.278   1_565 A
C648   O208    1.278   1_565 S
C648   O213    1.279   1_565 S
C649   O750    1.278   .     A
C649   O778    1.279   .     A
C650   C702    1.401   .     A
C650   F718    1.360   .     S
C651   O751    1.278   .     A
C651   O779    1.279   .     A
C652   O752    1.279   .     A
C652   O776    1.279   .     A
C653   O753    1.279   .     A
C653   O777    1.278   .     A
C654   O754    1.279   .     A
C654   O783    1.278   .     A
C655   O755    1.278   .     A
C655   O784    1.279   .     A
C656   O780    1.278   .     A
C656   O756    1.279   .     A
C657   O782    1.278   .     A
C657   O757    1.279   .     A
C658   O758    1.279   .     A
C658   O769    1.278   .     A
C659   O771    1.278   .     A
C659   O760    1.279   .     A
C660   O761    1.279   .     A
C660   O767    1.279   .     A
C661   F719    1.360   .     S
C661   C703    1.401   .     A
C662   O762    1.279   .     A
C662   O768    1.278   .     A
C663   O763    1.279   .     A
C663   O774    1.278   .     A
C664   O775    1.278   .     A
C664   O764    1.279   .     A
C665   O772    1.279   .     A
C665   O765    1.278   .     A
C666   O773    1.279   .     A
C666   O766    1.278   .     A
C667   C684    1.398   .     A
C668   C682    1.398   .     A
C669   C681    1.398   .     A
C670   C680    1.398   .     A
C671   C679    1.398   .     A
C672   F720    1.360   .     S
C672   C704    1.401   .     A
C673   C678    1.398   .     A
C674   C677    1.398   .     A
C675   C676    1.398   .     A
C683   F721    1.360   .     S
C685   C701    1.398   .     A
C686   C700    1.398   .     A
C687   C699    1.398   .     A
C688   C698    1.398   .     A
C689   C697    1.398   .     A
C690   C696    1.398   .     A
C691   C695    1.398   .     A
C692   C693    1.398   .     A
C694   F722    1.360   .     S
C703   C872    1.415   1_455 S
O737   Zn800   1.945   .     S
O737   Zn792   1.945   .     S
O737   Zn789   1.945   .     S
O738   Zn791   1.954   .     S
O738   C106    1.278   1_565 S
O739   Zn794   1.954   .     S
O739   C911    1.278   .     S
O740   Zn793   1.954   .     S
O741   Zn803   1.954   .     S
O742   Zn802   1.954   .     S
O743   Zn797   1.954   .     S
O744   Zn789   1.954   .     S
O745   Zn799   1.954   .     S
O746   Zn798   1.954   .     S
O747   Zn801   1.954   .     S
O748   Zn797   1.945   .     S
O748   Zn801   1.945   .     S
O748   Zn795   1.945   .     S
O749   Zn800   1.954   .     S
O750   Zn792   1.930   .     S
O751   Zn791   1.930   .     S
O752   Zn794   1.930   .     S
O753   Zn793   1.930   .     S
O754   Zn796   1.930   .     S
O755   Zn795   1.930   .     S
O756   Zn790   1.930   .     S
O757   Zn804   1.930   .     S
O758   Zn791   1.930   .     S
O759   Zn790   1.945   .     S
O759   Zn802   1.945   .     S
O759   Zn1062  1.945   1_455 S
O759   Zn798   1.945   .     S
O760   Zn792   1.930   .     S
O761   Zn804   1.930   .     S
O762   Zn790   1.930   .     S
O763   Zn795   1.930   .     S
O764   Zn796   1.930   .     S
O765   Zn793   1.930   .     S
O766   Zn794   1.930   .     S
O767   Zn1067  1.930   .     S
O768   Zn798   1.930   .     S
O769   Zn265   1.930   1_565 S
O770   Zn1072  1.945   1_455 S
O770   Zn793   1.945   .     S
O770   Zn799   1.945   .     S
O770   Zn803   1.945   .     S
O771   Zn800   1.930   .     S
O772   Zn803   1.930   .     S
O773   Zn1070  1.930   .     S
O774   Zn797   1.930   .     S
O775   Zn253   1.930   1_565 S
O776   Zn1066  1.930   .     S
O777   Zn799   1.930   .     S
O778   Zn789   1.930   .     S
O779   Zn261   1.930   1_565 S
O780   Zn802   1.930   .     S
O781   C105    1.278   1_565 A
O781   Zn796   1.954   .     S
O782   Zn1071  1.930   .     S
O783   Zn264   1.930   1_565 S
O784   Zn801   1.930   .     S
O785   Zn795   1.954   .     S
O786   Zn790   1.954   .     S
O787   Zn804   1.954   .     S
O787   C912    1.278   .     S
O788   Zn792   1.954   .     S
Zn791  O212    1.945   1_565 S
Zn794  O1027   1.945   .     S
Zn796  O201    1.945   1_565 S
Zn798  O1044   1.930   1_455 S
Zn799  O1035   1.930   1_455 S
Zn802  O1041   1.930   1_455 S
Zn803  O1050   1.930   1_455 S
Zn804  O1038   1.945   .     S
Br805  C935    1.933   .     S
Br806  C945    1.933   .     S
Br807  C946    1.933   .     S
Br808  C947    1.933   .     S
Br809  C948    1.933   .     S
Br810  C949    1.933   .     S
Br811  C950    1.933   .     S
Br812  C952    1.933   .     S
Br813  C953    1.933   .     S
Br814  C954    1.933   .     S
Br815  C955    1.933   .     S
Br816  C936    1.933   .     S
Br817  C956    1.933   .     S
Br818  C957    1.933   .     S
Br819  C958    1.933   .     S
Br820  C959    1.933   .     S
Br821  C960    1.933   .     S
Br822  C961    1.933   .     S
Br823  C963    1.933   .     S
Br824  C964    1.933   .     S
Br825  C965    1.933   .     S
Br826  C966    1.933   .     S
Br827  C937    1.933   .     S
Br828  C967    1.933   .     S
Br829  C968    1.933   .     S
Br830  C969    1.933   .     S
Br831  C938    1.933   .     S
Br832  C939    1.933   .     S
Br833  C941    1.933   .     S
Br834  C942    1.933   .     S
Br835  C943    1.933   .     S
Br836  C944    1.933   .     S
C837   C840    1.401   .     A
C837   F981    1.360   .     S
C838   F991    1.360   .     S
C838   C850    1.401   .     A
C838   C888    1.403   .     A
C839   C951    1.401   .     A
C839   C894    1.406   .     A
C840   C895    1.406   .     A
C841   C872    1.415   .     A
C841   C885    1.401   .     A
C841   C897    1.406   .     A
C842   C896    1.401   .     A
C842   C898    1.406   .     A
C843   C899    1.406   .     A
C843   C907    1.401   .     A
C843   C874    1.415   .     A
C844   C875    1.415   .     A
C844   C871    1.401   .     A
C844   C900    1.406   .     A
C845   C879    1.401   .     A
C845   C901    1.406   .     A
C846   C902    1.406   .     A
C846   C877    1.415   .     A
C846   C880    1.401   .     A
C847   C903    1.406   .     A
C847   C881    1.401   .     A
C847   C610    1.415   1_655 S
C848   C962    1.401   .     A
C848   C904    1.406   .     A
C849   C851    1.401   .     A
C849   F992    1.360   .     S
C849   C621    1.403   1_655 S
C850   C876    1.415   .     A
C850   C905    1.406   .     A
C851   C906    1.406   .     A
C851   C609    1.415   1_655 S
C852   C908    1.406   .     A
C852   C878    1.415   .     A
C852   C860    1.401   .     A
C853   C954    1.407   .     A
C853   C924    1.450   .     S
C853   C952    1.407   .     A
C854   C925    1.450   .     S
C854   C950    1.407   .     A
C854   C953    1.407   .     A
C855   C949    1.407   .     A
C855   C956    1.407   .     A
C855   C917    1.450   .     S
C856   C955    1.407   .     A
C856   C948    1.407   .     A
C856   C919    1.450   .     S
C857   C920    1.450   .     S
C857   C958    1.407   .     A
C857   C947    1.407   .     A
C858   C946    1.407   .     A
C858   C921    1.450   .     S
C858   C957    1.407   .     A
C859   C945    1.407   .     A
C859   C960    1.407   .     A
C859   C922    1.450   .     S
C860   C890    1.403   .     A
C860   F993    1.360   .     S
C861   C944    1.407   .     A
C861   C959    1.407   .     A
C861   C923    1.450   .     S
C862   C943    1.407   .     A
C862   C963    1.407   .     A
C862   C933    1.450   .     S
C863   C934    1.450   .     S
C863   C942    1.407   .     A
C863   C961    1.407   .     A
C864   C941    1.407   .     A
C864   C965    1.407   .     A
C864   C926    1.450   .     S
C865   C939    1.407   .     A
C865   C964    1.407   .     A
C865   C927    1.450   .     S
C866   C928    1.450   .     S
C866   C967    1.407   .     A
C866   C938    1.407   .     A
C867   C966    1.407   .     A
C867   C937    1.407   .     A
C867   C930    1.450   .     S
C868   C969    1.407   .     A
C868   C931    1.450   .     S
C868   C936    1.407   .     A
C869   C935    1.407   .     A
C869   C932    1.450   .     S
C869   C968    1.407   .     A
C870   C872    1.409   .     A
C870   C970    1.415   .     A
C870   C572    1.415   1_655 S
C871   C887    1.403   .     A
C871   F994    1.360   .     S
C872   C703    1.415   1_655 S
C873   C874    1.410   .     A
C873   C972    1.415   .     A
C873   C306    1.415   1_565 S
C874   C303    1.415   1_565 S
C875   C312    1.415   1_565 S
C875   C876    1.410   1_556 S
C876   C309    1.415   1_565 S
C876   C875    1.410   1_554 S
C877   C878    1.410   1_556 S
C878   C877    1.410   1_554 S
C879   F996    1.360   .     S
C880   C889    1.403   .     A
C880   F997    1.360   .     S
C881   F998    1.360   .     S
C881   C622    1.403   1_655 S
C882   C918    1.403   .     A
C882   C569    1.403   1_655 S
C882   C643    1.464   1_655 S
C883   C912    1.464   .     S
C883   C929    1.403   .     S
C884   C373    1.464   1_565 S
C884   C940    1.403   .     A
C884   C360    1.403   1_565 S
C885   F982    1.360   .     S
C885   C615    1.403   1_655 A
C886   C907    1.403   .     A
C886   C374    1.464   1_565 S
C886   C415    1.403   1_565 S
C887   C915    1.464   .     S
C887   C426    1.403   1_565 S
C888   C916    1.464   .     S
C888   C343    1.403   1_565 S
C889   C913    1.464   .     S
C890   C914    1.464   .     S
C891   C897    1.391   .     A
C891   C970    1.406   .     A
C891   F973    1.358   .     S
C892   C895    1.391   .     A
C892   C971    1.406   .     A
C892   F984    1.358   .     S
C893   C899    1.391   .     A
C893   C972    1.406   .     A
C893   F995    1.358   .     S
C894   F999    1.358   .     S
C894   C898    1.391   .     A
C895   F1000   1.358   .     S
C896   F983    1.360   .     S
C897   F1001   1.358   .     S
C898   F1002   1.358   .     S
C899   F1003   1.358   .     S
C900   F1004   1.358   .     S
C900   C905    1.391   1_556 S
C901   F974    1.358   .     S
C901   C904    1.391   1_554 S
C902   F975    1.358   .     S
C902   C908    1.391   1_556 S
C903   F976    1.358   .     S
C903   C906    1.391   1_554 S
C904   F977    1.358   .     S
C904   C901    1.391   1_556 S
C905   F978    1.358   .     S
C905   C900    1.391   1_554 S
C906   F979    1.358   .     S
C906   C903    1.391   1_556 S
C907   F985    1.360   .     S
C908   F980    1.358   .     S
C908   C902    1.391   1_554 S
C909   O1056   1.279   .     S
C910   O1053   1.278   .     A
C911   O1054   1.278   .     A
C912   O1008   1.278   .     A
C913   O1009   1.278   .     A
C913   O1013   1.278   .     S
C914   O1014   1.279   .     A
C914   O1010   1.278   .     A
C915   O475    1.278   1_565 A
C915   O479    1.278   1_565 A
C916   O476    1.278   1_565 S
C916   O481    1.279   1_565 S
C917   O1018   1.278   .     A
C917   O1046   1.279   .     A
C918   C970    1.401   .     A
C918   F986    1.360   .     S
C919   O1019   1.278   .     A
C919   O1047   1.279   .     A
C920   O1020   1.279   .     A
C920   O1044   1.279   .     A
C921   O1021   1.279   .     A
C921   O1045   1.278   .     A
C922   O1022   1.279   .     A
C922   O1051   1.278   .     A
C923   O1023   1.278   .     A
C923   O1052   1.279   .     A
C924   O1048   1.278   .     A
C924   O1024   1.279   .     A
C925   O1050   1.278   .     A
C925   O1025   1.279   .     A
C926   O1026   1.279   .     A
C926   O1037   1.278   .     A
C927   O1039   1.278   .     A
C927   O1028   1.279   .     A
C928   O1029   1.279   .     A
C928   O1035   1.279   .     A
C929   F987    1.360   .     S
C929   C971    1.401   .     A
C930   O1030   1.279   .     A
C930   O1036   1.278   .     A
C931   O1031   1.279   .     A
C931   O1042   1.278   .     A
C932   O1043   1.278   .     A
C932   O1032   1.279   .     A
C933   O1040   1.279   .     A
C933   O1033   1.278   .     A
C934   O1041   1.279   .     A
C934   O1034   1.278   .     A
C935   C952    1.398   .     A
C936   C950    1.398   .     A
C937   C949    1.398   .     A
C938   C948    1.398   .     A
C939   C947    1.398   .     A
C940   F988    1.360   .     S
C940   C972    1.401   .     A
C941   C946    1.398   .     A
C942   C945    1.398   .     A
C943   C944    1.398   .     A
C951   F989    1.360   .     S
C953   C969    1.398   .     A
C954   C968    1.398   .     A
C955   C967    1.398   .     A
C956   C966    1.398   .     A
C957   C965    1.398   .     A
C958   C964    1.398   .     A
C959   C963    1.398   .     A
C960   C961    1.398   .     A
C962   F990    1.360   .     S
O1005  Zn1068  1.945   .     S
O1005  Zn1060  1.945   .     S
O1005  Zn1057  1.945   .     S
O1006  Zn1059  1.954   .     S
O1006  C374    1.278   1_565 S
O1007  Zn1062  1.954   .     S
O1007  C643    1.278   1_655 S
O1008  Zn1061  1.954   .     S
O1009  Zn1071  1.954   .     S
O1010  Zn1070  1.954   .     S
O1011  Zn1065  1.954   .     S
O1012  Zn1057  1.954   .     S
O1013  Zn1067  1.954   .     S
O1014  Zn1066  1.954   .     S
O1015  Zn1069  1.954   .     S
O1016  Zn1065  1.945   .     S
O1016  Zn1069  1.945   .     S
O1016  Zn1063  1.945   .     S
O1017  Zn1068  1.954   .     S
O1018  Zn1060  1.930   .     S
O1019  Zn1059  1.930   .     S
O1020  Zn1062  1.930   .     S
O1021  Zn1061  1.930   .     S
O1022  Zn1064  1.930   .     S
O1023  Zn1063  1.930   .     S
O1024  Zn1058  1.930   .     S
O1025  Zn1072  1.930   .     S
O1026  Zn1059  1.930   .     S
O1027  Zn1058  1.945   .     S
O1027  Zn1070  1.945   .     S
O1027  Zn1066  1.945   .     S
O1028  Zn1060  1.930   .     S
O1029  Zn1072  1.930   .     S
O1030  Zn1058  1.930   .     S
O1031  Zn1063  1.930   .     S
O1032  Zn1064  1.930   .     S
O1033  Zn1061  1.930   .     S
O1034  Zn1062  1.930   .     S
O1035  Zn799   1.930   1_655 S
O1036  Zn1066  1.930   .     S
O1037  Zn533   1.930   1_565 S
O1038  Zn1061  1.945   .     S
O1038  Zn1067  1.945   .     S
O1038  Zn1071  1.945   .     S
O1039  Zn1068  1.930   .     S
O1040  Zn1071  1.930   .     S
O1041  Zn802   1.930   1_655 S
O1042  Zn1065  1.930   .     S
O1043  Zn521   1.930   1_565 S
O1044  Zn798   1.930   1_655 S
O1045  Zn1067  1.930   .     S
O1046  Zn1057  1.930   .     S
O1047  Zn529   1.930   1_565 S
O1048  Zn1070  1.930   .     S
O1049  C373    1.278   1_565 A
O1049  Zn1064  1.954   .     S
O1050  Zn803   1.930   1_655 S
O1051  Zn532   1.930   1_565 S
O1052  Zn1069  1.930   .     S
O1053  Zn1063  1.954   .     S
O1054  Zn1058  1.954   .     S
O1055  Zn1072  1.954   .     S
O1055  C644    1.278   1_655 S
O1056  Zn1060  1.954   .     S
Zn1059 O480    1.945   1_565 S
Zn1062 O759    1.945   1_655 S
Zn1064 O469    1.945   1_565 S
Zn1072 O770    1.945   1_655 S
