data_str_m1_o5_o17_pcu_sym.6
_audit_creation_date              2020-01-03
_audit_creation_method            'Materials Studio'
_symmetry_space_group_name_H-M    'P1'
_symmetry_Int_Tables_number       1
_symmetry_cell_setting            triclinic
loop_
_symmetry_equiv_pos_as_xyz
  x,y,z
_cell_length_a                    31.7319
_cell_length_b                    31.7318
_cell_length_c                    34.6850
_cell_angle_alpha                 90.0000
_cell_angle_beta                  90.0000
_cell_angle_gamma                 90.0000
loop_
_atom_site_label
_atom_site_type_symbol
_atom_site_fract_x
_atom_site_fract_y
_atom_site_fract_z
_atom_site_U_iso_or_equiv
_atom_site_adp_type
_atom_site_occupancy
C1     C     0.25000   0.00000   0.35585   0.00000  Uiso   1.00
C2     C     0.32999   0.41999   0.75001   0.00000  Uiso   1.00
C3     C     0.43966   0.29846   0.01972   0.00000  Uiso   1.00
C4     C     0.20154   0.06034   0.98028   0.00000  Uiso   1.00
C5     C     0.30137   0.44241   0.02035   0.00000  Uiso   1.00
C6     C     0.44241   0.30137   0.97965   0.00000  Uiso   1.00
C7     C     0.06034   0.20154   0.01972   0.00000  Uiso   1.00
C8     C     0.04196   0.31486   0.39588   0.00000  Uiso   1.00
C9     C     0.45174   0.18974   0.60433   0.00000  Uiso   1.00
C10    C     0.18974   0.45174   0.39567   0.00000  Uiso   1.00
C11    C     0.31486   0.04196   0.60412   0.00000  Uiso   1.00
C12    C     0.45805   0.18515   0.39588   0.00000  Uiso   1.00
C13    C     0.42001   0.16999   0.25002   0.00000  Uiso   1.00
C14    C     0.04826   0.31026   0.60433   0.00000  Uiso   1.00
C15    C     0.31026   0.04826   0.39567   0.00000  Uiso   1.00
C16    C     0.18515   0.45805   0.60412   0.00000  Uiso   1.00
C17    C     0.20174   0.06026   0.89567   0.00000  Uiso   1.00
C18    C     0.29196   0.43515   0.10412   0.00000  Uiso   1.00
C19    C     0.43515   0.29195   0.89588   0.00000  Uiso   1.00
C20    C     0.06026   0.20174   0.10433   0.00000  Uiso   1.00
C21    C     0.29826   0.43974   0.89567   0.00000  Uiso   1.00
C22    C     0.20805   0.06485   0.10412   0.00000  Uiso   1.00
C23    C     0.06486   0.20805   0.89588   0.00000  Uiso   1.00
C24    C     0.07999   0.33001   0.74998   0.00000  Uiso   1.00
C25    C     0.43974   0.29826   0.10433   0.00000  Uiso   1.00
C26    C     0.38061   0.18591   0.46035   0.00000  Uiso   1.00
C27    C     0.05093   0.37965   0.53612   0.00000  Uiso   1.00
C28    C     0.37965   0.05093   0.46387   0.00000  Uiso   1.00
C29    C     0.18591   0.38061   0.53965   0.00000  Uiso   1.00
C30    C     0.11939   0.31409   0.46035   0.00000  Uiso   1.00
C31    C     0.44907   0.12035   0.53612   0.00000  Uiso   1.00
C32    C     0.12035   0.44907   0.46387   0.00000  Uiso   1.00
C33    C     0.31409   0.11939   0.53965   0.00000  Uiso   1.00
C34    C     0.30093   0.37035   0.96387   0.00000  Uiso   1.00
C35    C     0.32999   0.41999   0.24998   0.00000  Uiso   1.00
C36    C     0.13061   0.06409   0.03965   0.00000  Uiso   1.00
C37    C     0.06409   0.13061   0.96035   0.00000  Uiso   1.00
C38    C     0.37035   0.30093   0.03613   0.00000  Uiso   1.00
C39    C     0.19907   0.12965   0.96387   0.00000  Uiso   1.00
C40    C     0.36939   0.43591   0.03965   0.00000  Uiso   1.00
C41    C     0.43591   0.36939   0.96035   0.00000  Uiso   1.00
C42    C     0.12965   0.19907   0.03613   0.00000  Uiso   1.00
C43    C     0.17001   0.08001   0.75001   0.00000  Uiso   1.00
C44    C     0.07999   0.33001   0.25002   0.00000  Uiso   1.00
C45    C     0.42001   0.16999   0.74998   0.00000  Uiso   1.00
C46    C     0.16999   0.42001   0.74998   0.00000  Uiso   1.00
C47    C     0.33001   0.07999   0.25001   0.00000  Uiso   1.00
C48    C     0.41999   0.32999   0.75002   0.00000  Uiso   1.00
C49    C     0.25000   0.00000   0.64422   0.00000  Uiso   1.00
C50    C     0.08001   0.17001   0.24998   0.00000  Uiso   1.00
C51    C     0.33001   0.07999   0.74998   0.00000  Uiso   1.00
C52    C     0.16999   0.42001   0.25001   0.00000  Uiso   1.00
C53    C     0.08001   0.17001   0.75002   0.00000  Uiso   1.00
C54    C     0.41999   0.32999   0.24998   0.00000  Uiso   1.00
C55    C     0.13832   0.38836   0.25003   0.00000  Uiso   1.00
C56    C     0.36168   0.11164   0.74997   0.00000  Uiso   1.00
C57    C     0.11168   0.13836   0.24997   0.00000  Uiso   1.00
C58    C     0.38832   0.36164   0.75003   0.00000  Uiso   1.00
C59    C     0.36168   0.11164   0.25003   0.00000  Uiso   1.00
C60    C     0.00000   0.25000   0.35578   0.00000  Uiso   1.00
C61    C     0.13832   0.38836   0.74997   0.00000  Uiso   1.00
C62    C     0.38832   0.36164   0.24997   0.00000  Uiso   1.00
C63    C     0.11168   0.13836   0.75003   0.00000  Uiso   1.00
C64    C     0.13836   0.11168   0.75003   0.00000  Uiso   1.00
C65    C     0.36164   0.38832   0.24997   0.00000  Uiso   1.00
C66    C     0.11164   0.36168   0.74997   0.00000  Uiso   1.00
C67    C     0.38836   0.13832   0.25003   0.00000  Uiso   1.00
C68    C     0.36164   0.38832   0.75003   0.00000  Uiso   1.00
C69    C     0.13836   0.11168   0.24997   0.00000  Uiso   1.00
C70    C     0.38836   0.13832   0.74997   0.00000  Uiso   1.00
C71    C     0.00000   0.25000   0.64415   0.00000  Uiso   1.00
C72    C     0.11164   0.36168   0.25003   0.00000  Uiso   1.00
C73    C     0.02305   0.28080   0.41802   0.00000  Uiso   1.00
C74    C     0.47574   0.22002   0.58174   0.00000  Uiso   1.00
C75    C     0.22002   0.47574   0.41825   0.00000  Uiso   1.00
C76    C     0.28080   0.02305   0.58198   0.00000  Uiso   1.00
C77    C     0.47695   0.21920   0.41802   0.00000  Uiso   1.00
C78    C     0.02426   0.27998   0.58174   0.00000  Uiso   1.00
C79    C     0.27998   0.02426   0.41825   0.00000  Uiso   1.00
C80    C     0.21920   0.47695   0.58198   0.00000  Uiso   1.00
C81    C     0.22574   0.02998   0.91825   0.00000  Uiso   1.00
C82    C     0.00000   0.25000   0.85578   0.00000  Uiso   1.00
C83    C     0.27305   0.46920   0.08198   0.00000  Uiso   1.00
C84    C     0.46920   0.27305   0.91802   0.00000  Uiso   1.00
C85    C     0.02998   0.22574   0.08174   0.00000  Uiso   1.00
C86    C     0.27426   0.47002   0.91825   0.00000  Uiso   1.00
C87    C     0.22695   0.03080   0.08198   0.00000  Uiso   1.00
C88    C     0.03080   0.22695   0.91802   0.00000  Uiso   1.00
C89    C     0.47002   0.27426   0.08175   0.00000  Uiso   1.00
C90    C     0.00000   0.25000   0.39808   0.00000  Uiso   1.00
C91    C     0.00000   0.25000   0.60170   0.00000  Uiso   1.00
C92    C     0.25000   0.00000   0.39830   0.00000  Uiso   1.00
C93    C     0.00000   0.25000   0.14415   0.00000  Uiso   1.00
C94    C     0.25000   0.00000   0.60192   0.00000  Uiso   1.00
C95    C     0.25000   0.00000   0.89830   0.00000  Uiso   1.00
C96    C     0.25000   0.00000   0.10192   0.00000  Uiso   1.00
C97    C     0.00000   0.25000   0.89808   0.00000  Uiso   1.00
C98    C     0.00000   0.25000   0.10170   0.00000  Uiso   1.00
C99    C     0.47490   0.22032   0.45880   0.00000  Uiso   1.00
C100   C     0.02439   0.28048   0.54085   0.00000  Uiso   1.00
C101   C     0.28048   0.02439   0.45915   0.00000  Uiso   1.00
C102   C     0.22032   0.47490   0.54120   0.00000  Uiso   1.00
C103   C     0.02510   0.27968   0.45880   0.00000  Uiso   1.00
C104   C     0.25000   0.00000   0.85585   0.00000  Uiso   1.00
C105   C     0.47561   0.21952   0.54085   0.00000  Uiso   1.00
C106   C     0.21952   0.47561   0.45915   0.00000  Uiso   1.00
C107   C     0.27968   0.02510   0.54120   0.00000  Uiso   1.00
C108   C     0.27439   0.46952   0.95915   0.00000  Uiso   1.00
C109   C     0.22490   0.02968   0.04120   0.00000  Uiso   1.00
C110   C     0.02968   0.22490   0.95880   0.00000  Uiso   1.00
C111   C     0.46952   0.27439   0.04085   0.00000  Uiso   1.00
C112   C     0.22561   0.03048   0.95915   0.00000  Uiso   1.00
C113   C     0.27510   0.47032   0.04120   0.00000  Uiso   1.00
C114   C     0.47032   0.27510   0.95880   0.00000  Uiso   1.00
C115   C     0.25000   0.00000   0.14422   0.00000  Uiso   1.00
C116   C     0.03049   0.22561   0.04085   0.00000  Uiso   1.00
C117   C     0.00000   0.25000   0.47933   0.00000  Uiso   1.00
C118   C     0.00000   0.25000   0.52039   0.00000  Uiso   1.00
C119   C     0.25000   0.00000   0.47961   0.00000  Uiso   1.00
C120   C     0.25000   0.00000   0.52067   0.00000  Uiso   1.00
C121   C     0.25000   0.00000   0.97961   0.00000  Uiso   1.00
C122   C     0.25000   0.00000   0.02067   0.00000  Uiso   1.00
C123   C     0.00000   0.25000   0.97933   0.00000  Uiso   1.00
C124   C     0.00000   0.25000   0.02039   0.00000  Uiso   1.00
C125   C     0.44863   0.19241   0.47965   0.00000  Uiso   1.00
C126   C     0.17001   0.08001   0.24998   0.00000  Uiso   1.00
C127   C     0.04846   0.31034   0.51972   0.00000  Uiso   1.00
C128   C     0.31034   0.04846   0.48028   0.00000  Uiso   1.00
C129   C     0.19241   0.44863   0.52035   0.00000  Uiso   1.00
C130   C     0.05137   0.30759   0.47965   0.00000  Uiso   1.00
C131   C     0.45154   0.18966   0.51972   0.00000  Uiso   1.00
C132   C     0.18966   0.45154   0.48028   0.00000  Uiso   1.00
C133   C     0.30759   0.05137   0.52035   0.00000  Uiso   1.00
C134   C     0.29846   0.43966   0.98028   0.00000  Uiso   1.00
C135   C     0.19863   0.05759   0.02035   0.00000  Uiso   1.00
C136   C     0.05759   0.19863   0.97965   0.00000  Uiso   1.00
H137   H     0.38199   0.21628   0.44432   0.00000  Uiso   1.00
H138   H     0.21628   0.38199   0.55568   0.00000  Uiso   1.00
H139   H     0.19110   0.36808   0.51007   0.00000  Uiso   1.00
H140   H     0.16502   0.35814   0.55499   0.00000  Uiso   1.00
H141   H     0.11801   0.28372   0.44432   0.00000  Uiso   1.00
H142   H     0.13192   0.30890   0.48993   0.00000  Uiso   1.00
H143   H     0.14186   0.33498   0.44501   0.00000  Uiso   1.00
H144   H     0.48074   0.12256   0.54981   0.00000  Uiso   1.00
H145   H     0.45210   0.10887   0.50597   0.00000  Uiso   1.00
H146   H     0.43064   0.09652   0.55235   0.00000  Uiso   1.00
H147   H     0.12256   0.48074   0.45018   0.00000  Uiso   1.00
H148   H     0.36808   0.19110   0.48993   0.00000  Uiso   1.00
H149   H     0.10887   0.45210   0.49403   0.00000  Uiso   1.00
H150   H     0.09652   0.43064   0.44765   0.00000  Uiso   1.00
H151   H     0.28372   0.11801   0.55568   0.00000  Uiso   1.00
H152   H     0.30890   0.13192   0.51007   0.00000  Uiso   1.00
H153   H     0.33498   0.14186   0.55499   0.00000  Uiso   1.00
H154   H     0.26926   0.37256   0.95018   0.00000  Uiso   1.00
H155   H     0.29790   0.35887   0.99403   0.00000  Uiso   1.00
H156   H     0.31936   0.34652   0.94765   0.00000  Uiso   1.00
H157   H     0.13199   0.03372   0.05568   0.00000  Uiso   1.00
H158   H     0.11808   0.05890   0.01007   0.00000  Uiso   1.00
H159   H     0.35814   0.16503   0.44501   0.00000  Uiso   1.00
H160   H     0.10814   0.08497   0.05499   0.00000  Uiso   1.00
H161   H     0.03372   0.13199   0.94432   0.00000  Uiso   1.00
H162   H     0.05890   0.11808   0.98993   0.00000  Uiso   1.00
H163   H     0.08498   0.10814   0.94501   0.00000  Uiso   1.00
H164   H     0.37256   0.26926   0.04982   0.00000  Uiso   1.00
H165   H     0.35887   0.29790   0.00597   0.00000  Uiso   1.00
H166   H     0.34651   0.31936   0.05235   0.00000  Uiso   1.00
H167   H     0.23074   0.12744   0.95018   0.00000  Uiso   1.00
H168   H     0.20210   0.14113   0.99403   0.00000  Uiso   1.00
H169   H     0.18064   0.15348   0.94765   0.00000  Uiso   1.00
H170   H     0.01926   0.37744   0.54981   0.00000  Uiso   1.00
H171   H     0.36801   0.46628   0.05568   0.00000  Uiso   1.00
H172   H     0.38192   0.44110   0.01007   0.00000  Uiso   1.00
H173   H     0.39186   0.41503   0.05499   0.00000  Uiso   1.00
H174   H     0.46628   0.36801   0.94432   0.00000  Uiso   1.00
H175   H     0.44110   0.38192   0.98993   0.00000  Uiso   1.00
H176   H     0.41502   0.39186   0.94501   0.00000  Uiso   1.00
H177   H     0.12744   0.23074   0.04981   0.00000  Uiso   1.00
H178   H     0.14113   0.20210   0.00597   0.00000  Uiso   1.00
H179   H     0.15349   0.18064   0.05235   0.00000  Uiso   1.00
H180   H     0.04790   0.39113   0.50597   0.00000  Uiso   1.00
H181   H     0.06936   0.40349   0.55235   0.00000  Uiso   1.00
H182   H     0.37744   0.01926   0.45018   0.00000  Uiso   1.00
H183   H     0.39113   0.04790   0.49403   0.00000  Uiso   1.00
H184   H     0.40349   0.06936   0.44765   0.00000  Uiso   1.00
N185   N     0.05687   0.34188   0.37808   0.00000  Uiso   1.00
N186   N     0.30687   0.40812   0.12191   0.00000  Uiso   1.00
N187   N     0.40812   0.30687   0.87808   0.00000  Uiso   1.00
N188   N     0.08419   0.18273   0.12257   0.00000  Uiso   1.00
N189   N     0.31727   0.41581   0.87743   0.00000  Uiso   1.00
N190   N     0.19313   0.09188   0.12191   0.00000  Uiso   1.00
N191   N     0.09188   0.19313   0.87808   0.00000  Uiso   1.00
N192   N     0.41581   0.31728   0.12257   0.00000  Uiso   1.00
N193   N     0.43273   0.16581   0.62257   0.00000  Uiso   1.00
N194   N     0.16581   0.43273   0.37743   0.00000  Uiso   1.00
N195   N     0.34188   0.05687   0.62191   0.00000  Uiso   1.00
N196   N     0.44313   0.15812   0.37808   0.00000  Uiso   1.00
N197   N     0.06727   0.33420   0.62257   0.00000  Uiso   1.00
N198   N     0.33419   0.06727   0.37743   0.00000  Uiso   1.00
N199   N     0.15812   0.44313   0.62191   0.00000  Uiso   1.00
N200   N     0.18273   0.08420   0.87743   0.00000  Uiso   1.00
O201   O     0.25000   0.00000   0.25000   0.00000  Uiso   1.00
O202   O     0.25000   0.46539   0.66251   0.00000  Uiso   1.00
O203   O     0.46539   0.25000   0.33749   0.00000  Uiso   1.00
O204   O     0.03462   0.25000   0.66251   0.00000  Uiso   1.00
O205   O     0.00000   0.21539   0.83749   0.00000  Uiso   1.00
O206   O     0.00000   0.28462   0.16251   0.00000  Uiso   1.00
O207   O     0.28462   0.00000   0.83749   0.00000  Uiso   1.00
O208   O     0.21539   0.00000   0.16251   0.00000  Uiso   1.00
O209   O     0.00000   0.28462   0.83749   0.00000  Uiso   1.00
O210   O     0.00000   0.21539   0.16251   0.00000  Uiso   1.00
O211   O     0.21539   0.00000   0.83749   0.00000  Uiso   1.00
O212   O     0.25000   0.00000   0.75000   0.00000  Uiso   1.00
O213   O     0.28462   0.00000   0.16251   0.00000  Uiso   1.00
O214   O     0.20127   0.08332   0.27298   0.00000  Uiso   1.00
O215   O     0.29874   0.41668   0.72702   0.00000  Uiso   1.00
O216   O     0.41668   0.20127   0.27298   0.00000  Uiso   1.00
O217   O     0.08332   0.29874   0.72702   0.00000  Uiso   1.00
O218   O     0.29874   0.41668   0.27298   0.00000  Uiso   1.00
O219   O     0.20127   0.08332   0.72702   0.00000  Uiso   1.00
O220   O     0.08332   0.29874   0.27298   0.00000  Uiso   1.00
O221   O     0.41668   0.20127   0.72702   0.00000  Uiso   1.00
O222   O     0.20127   0.41668   0.72702   0.00000  Uiso   1.00
O223   O     0.00000   0.25000   0.25000   0.00000  Uiso   1.00
O224   O     0.29874   0.08332   0.27298   0.00000  Uiso   1.00
O225   O     0.41668   0.29874   0.72702   0.00000  Uiso   1.00
O226   O     0.08332   0.20127   0.27298   0.00000  Uiso   1.00
O227   O     0.29874   0.08332   0.72702   0.00000  Uiso   1.00
O228   O     0.20127   0.41668   0.27298   0.00000  Uiso   1.00
O229   O     0.08332   0.20127   0.72702   0.00000  Uiso   1.00
O230   O     0.41668   0.29874   0.27298   0.00000  Uiso   1.00
O231   O     0.45127   0.33332   0.77298   0.00000  Uiso   1.00
O232   O     0.04874   0.16668   0.22702   0.00000  Uiso   1.00
O233   O     0.16668   0.45127   0.77298   0.00000  Uiso   1.00
O234   O     0.00000   0.25000   0.75000   0.00000  Uiso   1.00
O235   O     0.33332   0.04874   0.22702   0.00000  Uiso   1.00
O236   O     0.04874   0.16668   0.77298   0.00000  Uiso   1.00
O237   O     0.45127   0.33332   0.22702   0.00000  Uiso   1.00
O238   O     0.33332   0.04874   0.77298   0.00000  Uiso   1.00
O239   O     0.16668   0.45127   0.22702   0.00000  Uiso   1.00
O240   O     0.45127   0.16668   0.22702   0.00000  Uiso   1.00
O241   O     0.04874   0.33332   0.77298   0.00000  Uiso   1.00
O242   O     0.16668   0.04874   0.22702   0.00000  Uiso   1.00
O243   O     0.33332   0.45127   0.77298   0.00000  Uiso   1.00
O244   O     0.04874   0.33332   0.22702   0.00000  Uiso   1.00
O245   O     0.25000   0.46539   0.33749   0.00000  Uiso   1.00
O246   O     0.45127   0.16668   0.77298   0.00000  Uiso   1.00
O247   O     0.33332   0.45127   0.22702   0.00000  Uiso   1.00
O248   O     0.16668   0.04874   0.77298   0.00000  Uiso   1.00
O249   O     0.42035   0.16600   0.46122   0.00000  Uiso   1.00
O250   O     0.07255   0.34081   0.53789   0.00000  Uiso   1.00
O251   O     0.34081   0.07255   0.46210   0.00000  Uiso   1.00
O252   O     0.16600   0.42035   0.53878   0.00000  Uiso   1.00
O253   O     0.07965   0.33400   0.46122   0.00000  Uiso   1.00
O254   O     0.42745   0.15919   0.53789   0.00000  Uiso   1.00
O255   O     0.15919   0.42745   0.46210   0.00000  Uiso   1.00
O256   O     0.25000   0.03462   0.66251   0.00000  Uiso   1.00
O257   O     0.33400   0.07965   0.53878   0.00000  Uiso   1.00
O258   O     0.32255   0.40919   0.96210   0.00000  Uiso   1.00
O259   O     0.17035   0.08400   0.03878   0.00000  Uiso   1.00
O260   O     0.08400   0.17035   0.96122   0.00000  Uiso   1.00
O261   O     0.40919   0.32255   0.03790   0.00000  Uiso   1.00
O262   O     0.17745   0.09081   0.96210   0.00000  Uiso   1.00
O263   O     0.32965   0.41600   0.03878   0.00000  Uiso   1.00
O264   O     0.41600   0.32965   0.96122   0.00000  Uiso   1.00
O265   O     0.09081   0.17745   0.03789   0.00000  Uiso   1.00
O266   O     0.03462   0.25000   0.33749   0.00000  Uiso   1.00
O267   O     0.46539   0.25000   0.66251   0.00000  Uiso   1.00
O268   O     0.25000   0.03462   0.33749   0.00000  Uiso   1.00
Zn269  Zn    0.20053   0.00000   0.21730   0.00000  Uiso   1.00
Zn270  Zn    0.04948   0.25000   0.28270   0.00000  Uiso   1.00
Zn271  Zn    0.25000   0.45053   0.71730   0.00000  Uiso   1.00
Zn272  Zn    0.25000   0.04948   0.28270   0.00000  Uiso   1.00
Zn273  Zn    0.04948   0.25000   0.71730   0.00000  Uiso   1.00
Zn274  Zn    0.45053   0.25000   0.28270   0.00000  Uiso   1.00
Zn275  Zn    0.25000   0.04948   0.71730   0.00000  Uiso   1.00
Zn276  Zn    0.25000   0.45053   0.28270   0.00000  Uiso   1.00
Zn277  Zn    0.29948   0.00000   0.78270   0.00000  Uiso   1.00
Zn278  Zn    0.00000   0.20053   0.21730   0.00000  Uiso   1.00
Zn279  Zn    0.00000   0.29948   0.78270   0.00000  Uiso   1.00
Zn280  Zn    0.29948   0.00000   0.21730   0.00000  Uiso   1.00
Zn281  Zn    0.20053   0.00000   0.78270   0.00000  Uiso   1.00
Zn282  Zn    0.00000   0.29948   0.21730   0.00000  Uiso   1.00
Zn283  Zn    0.00000   0.20053   0.78270   0.00000  Uiso   1.00
Zn284  Zn    0.45053   0.25000   0.71730   0.00000  Uiso   1.00
C285   C     0.75000   0.00000   0.35585   0.00000  Uiso   1.00
C286   C     0.82999   0.41999   0.75001   0.00000  Uiso   1.00
C287   C     0.93966   0.29846   0.01972   0.00000  Uiso   1.00
C288   C     0.70154   0.06034   0.98028   0.00000  Uiso   1.00
C289   C     0.80137   0.44241   0.02035   0.00000  Uiso   1.00
C290   C     0.94241   0.30137   0.97965   0.00000  Uiso   1.00
C291   C     0.56034   0.20154   0.01972   0.00000  Uiso   1.00
C292   C     0.54196   0.31486   0.39588   0.00000  Uiso   1.00
C293   C     0.95174   0.18974   0.60433   0.00000  Uiso   1.00
C294   C     0.68974   0.45174   0.39567   0.00000  Uiso   1.00
C295   C     0.81486   0.04196   0.60412   0.00000  Uiso   1.00
C296   C     0.95805   0.18515   0.39588   0.00000  Uiso   1.00
C297   C     0.92001   0.16999   0.25002   0.00000  Uiso   1.00
C298   C     0.54826   0.31026   0.60433   0.00000  Uiso   1.00
C299   C     0.81026   0.04826   0.39567   0.00000  Uiso   1.00
C300   C     0.68515   0.45805   0.60412   0.00000  Uiso   1.00
C301   C     0.70174   0.06026   0.89567   0.00000  Uiso   1.00
C302   C     0.79196   0.43515   0.10412   0.00000  Uiso   1.00
C303   C     0.93515   0.29195   0.89588   0.00000  Uiso   1.00
C304   C     0.56026   0.20174   0.10433   0.00000  Uiso   1.00
C305   C     0.79826   0.43974   0.89567   0.00000  Uiso   1.00
C306   C     0.70805   0.06485   0.10412   0.00000  Uiso   1.00
C307   C     0.56486   0.20805   0.89588   0.00000  Uiso   1.00
C308   C     0.57999   0.33001   0.74998   0.00000  Uiso   1.00
C309   C     0.93974   0.29826   0.10433   0.00000  Uiso   1.00
C310   C     0.88061   0.18591   0.46035   0.00000  Uiso   1.00
C311   C     0.55093   0.37965   0.53612   0.00000  Uiso   1.00
C312   C     0.87965   0.05093   0.46387   0.00000  Uiso   1.00
C313   C     0.68591   0.38061   0.53965   0.00000  Uiso   1.00
C314   C     0.61939   0.31409   0.46035   0.00000  Uiso   1.00
C315   C     0.94907   0.12035   0.53612   0.00000  Uiso   1.00
C316   C     0.62035   0.44907   0.46387   0.00000  Uiso   1.00
C317   C     0.81409   0.11939   0.53965   0.00000  Uiso   1.00
C318   C     0.80093   0.37035   0.96387   0.00000  Uiso   1.00
C319   C     0.82999   0.41999   0.24998   0.00000  Uiso   1.00
C320   C     0.63061   0.06409   0.03965   0.00000  Uiso   1.00
C321   C     0.56409   0.13061   0.96035   0.00000  Uiso   1.00
C322   C     0.87035   0.30093   0.03613   0.00000  Uiso   1.00
C323   C     0.69907   0.12965   0.96387   0.00000  Uiso   1.00
C324   C     0.86939   0.43591   0.03965   0.00000  Uiso   1.00
C325   C     0.93591   0.36939   0.96035   0.00000  Uiso   1.00
C326   C     0.62965   0.19907   0.03613   0.00000  Uiso   1.00
C327   C     0.67001   0.08001   0.75001   0.00000  Uiso   1.00
C328   C     0.57999   0.33001   0.25002   0.00000  Uiso   1.00
C329   C     0.92001   0.16999   0.74998   0.00000  Uiso   1.00
C330   C     0.66999   0.42001   0.74998   0.00000  Uiso   1.00
C331   C     0.83001   0.07999   0.25001   0.00000  Uiso   1.00
C332   C     0.91999   0.32999   0.75002   0.00000  Uiso   1.00
C333   C     0.75000   0.00000   0.64422   0.00000  Uiso   1.00
C334   C     0.58001   0.17001   0.24998   0.00000  Uiso   1.00
C335   C     0.83001   0.07999   0.74998   0.00000  Uiso   1.00
C336   C     0.66999   0.42001   0.25001   0.00000  Uiso   1.00
C337   C     0.58001   0.17001   0.75002   0.00000  Uiso   1.00
C338   C     0.91999   0.32999   0.24998   0.00000  Uiso   1.00
C339   C     0.63832   0.38836   0.25003   0.00000  Uiso   1.00
C340   C     0.86168   0.11164   0.74997   0.00000  Uiso   1.00
C341   C     0.61168   0.13836   0.24997   0.00000  Uiso   1.00
C342   C     0.88832   0.36164   0.75003   0.00000  Uiso   1.00
C343   C     0.86168   0.11164   0.25003   0.00000  Uiso   1.00
C344   C     0.50000   0.25000   0.35578   0.00000  Uiso   1.00
C345   C     0.63832   0.38836   0.74997   0.00000  Uiso   1.00
C346   C     0.88832   0.36164   0.24997   0.00000  Uiso   1.00
C347   C     0.61168   0.13836   0.75003   0.00000  Uiso   1.00
C348   C     0.63836   0.11168   0.75003   0.00000  Uiso   1.00
C349   C     0.86164   0.38832   0.24997   0.00000  Uiso   1.00
C350   C     0.61164   0.36168   0.74997   0.00000  Uiso   1.00
C351   C     0.88836   0.13832   0.25003   0.00000  Uiso   1.00
C352   C     0.86164   0.38832   0.75003   0.00000  Uiso   1.00
C353   C     0.63836   0.11168   0.24997   0.00000  Uiso   1.00
C354   C     0.88836   0.13832   0.74997   0.00000  Uiso   1.00
C355   C     0.50000   0.25000   0.64415   0.00000  Uiso   1.00
C356   C     0.61164   0.36168   0.25003   0.00000  Uiso   1.00
C357   C     0.52305   0.28080   0.41802   0.00000  Uiso   1.00
C358   C     0.97574   0.22002   0.58174   0.00000  Uiso   1.00
C359   C     0.72002   0.47574   0.41825   0.00000  Uiso   1.00
C360   C     0.78080   0.02305   0.58198   0.00000  Uiso   1.00
C361   C     0.97695   0.21920   0.41802   0.00000  Uiso   1.00
C362   C     0.52426   0.27998   0.58174   0.00000  Uiso   1.00
C363   C     0.77998   0.02426   0.41825   0.00000  Uiso   1.00
C364   C     0.71920   0.47695   0.58198   0.00000  Uiso   1.00
C365   C     0.72574   0.02998   0.91825   0.00000  Uiso   1.00
C366   C     0.50000   0.25000   0.85578   0.00000  Uiso   1.00
C367   C     0.77305   0.46920   0.08198   0.00000  Uiso   1.00
C368   C     0.96920   0.27305   0.91802   0.00000  Uiso   1.00
C369   C     0.52998   0.22574   0.08174   0.00000  Uiso   1.00
C370   C     0.77426   0.47002   0.91825   0.00000  Uiso   1.00
C371   C     0.72695   0.03080   0.08198   0.00000  Uiso   1.00
C372   C     0.53080   0.22695   0.91802   0.00000  Uiso   1.00
C373   C     0.97002   0.27426   0.08175   0.00000  Uiso   1.00
C374   C     0.50000   0.25000   0.39808   0.00000  Uiso   1.00
C375   C     0.50000   0.25000   0.60170   0.00000  Uiso   1.00
C376   C     0.75000   0.00000   0.39830   0.00000  Uiso   1.00
C377   C     0.50000   0.25000   0.14415   0.00000  Uiso   1.00
C378   C     0.75000   0.00000   0.60192   0.00000  Uiso   1.00
C379   C     0.75000   0.00000   0.89830   0.00000  Uiso   1.00
C380   C     0.75000   0.00000   0.10192   0.00000  Uiso   1.00
C381   C     0.50000   0.25000   0.89808   0.00000  Uiso   1.00
C382   C     0.50000   0.25000   0.10170   0.00000  Uiso   1.00
C383   C     0.97490   0.22032   0.45880   0.00000  Uiso   1.00
C384   C     0.52439   0.28048   0.54085   0.00000  Uiso   1.00
C385   C     0.78048   0.02439   0.45915   0.00000  Uiso   1.00
C386   C     0.72032   0.47490   0.54120   0.00000  Uiso   1.00
C387   C     0.52510   0.27968   0.45880   0.00000  Uiso   1.00
C388   C     0.75000   0.00000   0.85585   0.00000  Uiso   1.00
C389   C     0.97561   0.21952   0.54085   0.00000  Uiso   1.00
C390   C     0.71952   0.47561   0.45915   0.00000  Uiso   1.00
C391   C     0.77968   0.02510   0.54120   0.00000  Uiso   1.00
C392   C     0.77439   0.46952   0.95915   0.00000  Uiso   1.00
C393   C     0.72490   0.02968   0.04120   0.00000  Uiso   1.00
C394   C     0.52968   0.22490   0.95880   0.00000  Uiso   1.00
C395   C     0.96952   0.27439   0.04085   0.00000  Uiso   1.00
C396   C     0.72561   0.03048   0.95915   0.00000  Uiso   1.00
C397   C     0.77510   0.47032   0.04120   0.00000  Uiso   1.00
C398   C     0.97032   0.27510   0.95880   0.00000  Uiso   1.00
C399   C     0.75000   0.00000   0.14422   0.00000  Uiso   1.00
C400   C     0.53049   0.22561   0.04085   0.00000  Uiso   1.00
C401   C     0.50000   0.25000   0.47933   0.00000  Uiso   1.00
C402   C     0.50000   0.25000   0.52039   0.00000  Uiso   1.00
C403   C     0.75000   0.00000   0.47961   0.00000  Uiso   1.00
C404   C     0.75000   0.00000   0.52067   0.00000  Uiso   1.00
C405   C     0.75000   0.00000   0.97961   0.00000  Uiso   1.00
C406   C     0.75000   0.00000   0.02067   0.00000  Uiso   1.00
C407   C     0.50000   0.25000   0.97933   0.00000  Uiso   1.00
C408   C     0.50000   0.25000   0.02039   0.00000  Uiso   1.00
C409   C     0.94863   0.19241   0.47965   0.00000  Uiso   1.00
C410   C     0.67001   0.08001   0.24998   0.00000  Uiso   1.00
C411   C     0.54846   0.31034   0.51972   0.00000  Uiso   1.00
C412   C     0.81034   0.04846   0.48028   0.00000  Uiso   1.00
C413   C     0.69241   0.44863   0.52035   0.00000  Uiso   1.00
C414   C     0.55137   0.30759   0.47965   0.00000  Uiso   1.00
C415   C     0.95154   0.18966   0.51972   0.00000  Uiso   1.00
C416   C     0.68966   0.45154   0.48028   0.00000  Uiso   1.00
C417   C     0.80759   0.05137   0.52035   0.00000  Uiso   1.00
C418   C     0.79846   0.43966   0.98028   0.00000  Uiso   1.00
C419   C     0.69863   0.05759   0.02035   0.00000  Uiso   1.00
C420   C     0.55759   0.19863   0.97965   0.00000  Uiso   1.00
H421   H     0.88199   0.21628   0.44432   0.00000  Uiso   1.00
H422   H     0.71628   0.38199   0.55568   0.00000  Uiso   1.00
H423   H     0.69110   0.36808   0.51007   0.00000  Uiso   1.00
H424   H     0.66502   0.35814   0.55499   0.00000  Uiso   1.00
H425   H     0.61801   0.28372   0.44432   0.00000  Uiso   1.00
H426   H     0.63192   0.30890   0.48993   0.00000  Uiso   1.00
H427   H     0.64186   0.33498   0.44501   0.00000  Uiso   1.00
H428   H     0.98074   0.12256   0.54981   0.00000  Uiso   1.00
H429   H     0.95210   0.10887   0.50597   0.00000  Uiso   1.00
H430   H     0.93064   0.09652   0.55235   0.00000  Uiso   1.00
H431   H     0.62256   0.48074   0.45018   0.00000  Uiso   1.00
H432   H     0.86808   0.19110   0.48993   0.00000  Uiso   1.00
H433   H     0.60887   0.45210   0.49403   0.00000  Uiso   1.00
H434   H     0.59652   0.43064   0.44765   0.00000  Uiso   1.00
H435   H     0.78372   0.11801   0.55568   0.00000  Uiso   1.00
H436   H     0.80890   0.13192   0.51007   0.00000  Uiso   1.00
H437   H     0.83498   0.14186   0.55499   0.00000  Uiso   1.00
H438   H     0.76926   0.37256   0.95018   0.00000  Uiso   1.00
H439   H     0.79790   0.35887   0.99403   0.00000  Uiso   1.00
H440   H     0.81936   0.34652   0.94765   0.00000  Uiso   1.00
H441   H     0.63199   0.03372   0.05568   0.00000  Uiso   1.00
H442   H     0.61808   0.05890   0.01007   0.00000  Uiso   1.00
H443   H     0.85814   0.16503   0.44501   0.00000  Uiso   1.00
H444   H     0.60814   0.08497   0.05499   0.00000  Uiso   1.00
H445   H     0.53372   0.13199   0.94432   0.00000  Uiso   1.00
H446   H     0.55890   0.11808   0.98993   0.00000  Uiso   1.00
H447   H     0.58498   0.10814   0.94501   0.00000  Uiso   1.00
H448   H     0.87256   0.26926   0.04982   0.00000  Uiso   1.00
H449   H     0.85887   0.29790   0.00597   0.00000  Uiso   1.00
H450   H     0.84651   0.31936   0.05235   0.00000  Uiso   1.00
H451   H     0.73074   0.12744   0.95018   0.00000  Uiso   1.00
H452   H     0.70210   0.14113   0.99403   0.00000  Uiso   1.00
H453   H     0.68064   0.15348   0.94765   0.00000  Uiso   1.00
H454   H     0.51926   0.37744   0.54981   0.00000  Uiso   1.00
H455   H     0.86801   0.46628   0.05568   0.00000  Uiso   1.00
H456   H     0.88192   0.44110   0.01007   0.00000  Uiso   1.00
H457   H     0.89186   0.41503   0.05499   0.00000  Uiso   1.00
H458   H     0.96628   0.36801   0.94432   0.00000  Uiso   1.00
H459   H     0.94110   0.38192   0.98993   0.00000  Uiso   1.00
H460   H     0.91502   0.39186   0.94501   0.00000  Uiso   1.00
H461   H     0.62744   0.23074   0.04981   0.00000  Uiso   1.00
H462   H     0.64113   0.20210   0.00597   0.00000  Uiso   1.00
H463   H     0.65349   0.18064   0.05235   0.00000  Uiso   1.00
H464   H     0.54790   0.39113   0.50597   0.00000  Uiso   1.00
H465   H     0.56936   0.40349   0.55235   0.00000  Uiso   1.00
H466   H     0.87744   0.01926   0.45018   0.00000  Uiso   1.00
H467   H     0.89113   0.04790   0.49403   0.00000  Uiso   1.00
H468   H     0.90349   0.06936   0.44765   0.00000  Uiso   1.00
N469   N     0.55687   0.34188   0.37808   0.00000  Uiso   1.00
N470   N     0.80687   0.40812   0.12191   0.00000  Uiso   1.00
N471   N     0.90812   0.30687   0.87808   0.00000  Uiso   1.00
N472   N     0.58419   0.18273   0.12257   0.00000  Uiso   1.00
N473   N     0.81727   0.41581   0.87743   0.00000  Uiso   1.00
N474   N     0.69313   0.09188   0.12191   0.00000  Uiso   1.00
N475   N     0.59188   0.19313   0.87808   0.00000  Uiso   1.00
N476   N     0.91581   0.31728   0.12257   0.00000  Uiso   1.00
N477   N     0.93273   0.16581   0.62257   0.00000  Uiso   1.00
N478   N     0.66581   0.43273   0.37743   0.00000  Uiso   1.00
N479   N     0.84188   0.05687   0.62191   0.00000  Uiso   1.00
N480   N     0.94313   0.15812   0.37808   0.00000  Uiso   1.00
N481   N     0.56727   0.33420   0.62257   0.00000  Uiso   1.00
N482   N     0.83419   0.06727   0.37743   0.00000  Uiso   1.00
N483   N     0.65812   0.44313   0.62191   0.00000  Uiso   1.00
N484   N     0.68273   0.08420   0.87743   0.00000  Uiso   1.00
O485   O     0.75000   0.00000   0.25000   0.00000  Uiso   1.00
O486   O     0.75000   0.46539   0.66251   0.00000  Uiso   1.00
O487   O     0.96539   0.25000   0.33749   0.00000  Uiso   1.00
O488   O     0.53462   0.25000   0.66251   0.00000  Uiso   1.00
O489   O     0.50000   0.21539   0.83749   0.00000  Uiso   1.00
O490   O     0.50000   0.28462   0.16251   0.00000  Uiso   1.00
O491   O     0.78462   0.00000   0.83749   0.00000  Uiso   1.00
O492   O     0.71539   0.00000   0.16251   0.00000  Uiso   1.00
O493   O     0.50000   0.28462   0.83749   0.00000  Uiso   1.00
O494   O     0.50000   0.21539   0.16251   0.00000  Uiso   1.00
O495   O     0.71539   0.00000   0.83749   0.00000  Uiso   1.00
O496   O     0.75000   0.00000   0.75000   0.00000  Uiso   1.00
O497   O     0.78462   0.00000   0.16251   0.00000  Uiso   1.00
O498   O     0.70127   0.08332   0.27298   0.00000  Uiso   1.00
O499   O     0.79874   0.41668   0.72702   0.00000  Uiso   1.00
O500   O     0.91668   0.20127   0.27298   0.00000  Uiso   1.00
O501   O     0.58332   0.29874   0.72702   0.00000  Uiso   1.00
O502   O     0.79874   0.41668   0.27298   0.00000  Uiso   1.00
O503   O     0.70127   0.08332   0.72702   0.00000  Uiso   1.00
O504   O     0.58332   0.29874   0.27298   0.00000  Uiso   1.00
O505   O     0.91668   0.20127   0.72702   0.00000  Uiso   1.00
O506   O     0.70127   0.41668   0.72702   0.00000  Uiso   1.00
O507   O     0.50000   0.25000   0.25000   0.00000  Uiso   1.00
O508   O     0.79874   0.08332   0.27298   0.00000  Uiso   1.00
O509   O     0.91668   0.29874   0.72702   0.00000  Uiso   1.00
O510   O     0.58332   0.20127   0.27298   0.00000  Uiso   1.00
O511   O     0.79874   0.08332   0.72702   0.00000  Uiso   1.00
O512   O     0.70127   0.41668   0.27298   0.00000  Uiso   1.00
O513   O     0.58332   0.20127   0.72702   0.00000  Uiso   1.00
O514   O     0.91668   0.29874   0.27298   0.00000  Uiso   1.00
O515   O     0.95127   0.33332   0.77298   0.00000  Uiso   1.00
O516   O     0.54874   0.16668   0.22702   0.00000  Uiso   1.00
O517   O     0.66668   0.45127   0.77298   0.00000  Uiso   1.00
O518   O     0.50000   0.25000   0.75000   0.00000  Uiso   1.00
O519   O     0.83332   0.04874   0.22702   0.00000  Uiso   1.00
O520   O     0.54874   0.16668   0.77298   0.00000  Uiso   1.00
O521   O     0.95127   0.33332   0.22702   0.00000  Uiso   1.00
O522   O     0.83332   0.04874   0.77298   0.00000  Uiso   1.00
O523   O     0.66668   0.45127   0.22702   0.00000  Uiso   1.00
O524   O     0.95127   0.16668   0.22702   0.00000  Uiso   1.00
O525   O     0.54874   0.33332   0.77298   0.00000  Uiso   1.00
O526   O     0.66668   0.04874   0.22702   0.00000  Uiso   1.00
O527   O     0.83332   0.45127   0.77298   0.00000  Uiso   1.00
O528   O     0.54874   0.33332   0.22702   0.00000  Uiso   1.00
O529   O     0.75000   0.46539   0.33749   0.00000  Uiso   1.00
O530   O     0.95127   0.16668   0.77298   0.00000  Uiso   1.00
O531   O     0.83332   0.45127   0.22702   0.00000  Uiso   1.00
O532   O     0.66668   0.04874   0.77298   0.00000  Uiso   1.00
O533   O     0.92035   0.16600   0.46122   0.00000  Uiso   1.00
O534   O     0.57255   0.34081   0.53789   0.00000  Uiso   1.00
O535   O     0.84081   0.07255   0.46210   0.00000  Uiso   1.00
O536   O     0.66600   0.42035   0.53878   0.00000  Uiso   1.00
O537   O     0.57965   0.33400   0.46122   0.00000  Uiso   1.00
O538   O     0.92745   0.15919   0.53789   0.00000  Uiso   1.00
O539   O     0.65919   0.42745   0.46210   0.00000  Uiso   1.00
O540   O     0.75000   0.03462   0.66251   0.00000  Uiso   1.00
O541   O     0.83400   0.07965   0.53878   0.00000  Uiso   1.00
O542   O     0.82255   0.40919   0.96210   0.00000  Uiso   1.00
O543   O     0.67035   0.08400   0.03878   0.00000  Uiso   1.00
O544   O     0.58400   0.17035   0.96122   0.00000  Uiso   1.00
O545   O     0.90919   0.32255   0.03790   0.00000  Uiso   1.00
O546   O     0.67745   0.09081   0.96210   0.00000  Uiso   1.00
O547   O     0.82965   0.41600   0.03878   0.00000  Uiso   1.00
O548   O     0.91600   0.32965   0.96122   0.00000  Uiso   1.00
O549   O     0.59081   0.17745   0.03789   0.00000  Uiso   1.00
O550   O     0.53462   0.25000   0.33749   0.00000  Uiso   1.00
O551   O     0.96539   0.25000   0.66251   0.00000  Uiso   1.00
O552   O     0.75000   0.03462   0.33749   0.00000  Uiso   1.00
Zn553  Zn    0.70053   0.00000   0.21730   0.00000  Uiso   1.00
Zn554  Zn    0.54948   0.25000   0.28270   0.00000  Uiso   1.00
Zn555  Zn    0.75000   0.45053   0.71730   0.00000  Uiso   1.00
Zn556  Zn    0.75000   0.04948   0.28270   0.00000  Uiso   1.00
Zn557  Zn    0.54948   0.25000   0.71730   0.00000  Uiso   1.00
Zn558  Zn    0.95053   0.25000   0.28270   0.00000  Uiso   1.00
Zn559  Zn    0.75000   0.04948   0.71730   0.00000  Uiso   1.00
Zn560  Zn    0.75000   0.45053   0.28270   0.00000  Uiso   1.00
Zn561  Zn    0.79948   0.00000   0.78270   0.00000  Uiso   1.00
Zn562  Zn    0.50000   0.20053   0.21730   0.00000  Uiso   1.00
Zn563  Zn    0.50000   0.29948   0.78270   0.00000  Uiso   1.00
Zn564  Zn    0.79948   0.00000   0.21730   0.00000  Uiso   1.00
Zn565  Zn    0.70053   0.00000   0.78270   0.00000  Uiso   1.00
Zn566  Zn    0.50000   0.29948   0.21730   0.00000  Uiso   1.00
Zn567  Zn    0.50000   0.20053   0.78270   0.00000  Uiso   1.00
Zn568  Zn    0.95053   0.25000   0.71730   0.00000  Uiso   1.00
C569   C     0.25000   0.50000   0.35585   0.00000  Uiso   1.00
C570   C     0.32999   0.91999   0.75001   0.00000  Uiso   1.00
C571   C     0.43966   0.79846   0.01972   0.00000  Uiso   1.00
C572   C     0.20154   0.56034   0.98028   0.00000  Uiso   1.00
C573   C     0.30137   0.94241   0.02035   0.00000  Uiso   1.00
C574   C     0.44241   0.80137   0.97965   0.00000  Uiso   1.00
C575   C     0.06034   0.70154   0.01972   0.00000  Uiso   1.00
C576   C     0.04196   0.81486   0.39588   0.00000  Uiso   1.00
C577   C     0.45174   0.68974   0.60433   0.00000  Uiso   1.00
C578   C     0.18974   0.95174   0.39567   0.00000  Uiso   1.00
C579   C     0.31486   0.54196   0.60412   0.00000  Uiso   1.00
C580   C     0.45805   0.68515   0.39588   0.00000  Uiso   1.00
C581   C     0.42001   0.66999   0.25002   0.00000  Uiso   1.00
C582   C     0.04826   0.81026   0.60433   0.00000  Uiso   1.00
C583   C     0.31026   0.54826   0.39567   0.00000  Uiso   1.00
C584   C     0.18515   0.95805   0.60412   0.00000  Uiso   1.00
C585   C     0.20174   0.56026   0.89567   0.00000  Uiso   1.00
C586   C     0.29196   0.93515   0.10412   0.00000  Uiso   1.00
C587   C     0.43515   0.79195   0.89588   0.00000  Uiso   1.00
C588   C     0.06026   0.70174   0.10433   0.00000  Uiso   1.00
C589   C     0.29826   0.93974   0.89567   0.00000  Uiso   1.00
C590   C     0.20805   0.56485   0.10412   0.00000  Uiso   1.00
C591   C     0.06486   0.70805   0.89588   0.00000  Uiso   1.00
C592   C     0.07999   0.83001   0.74998   0.00000  Uiso   1.00
C593   C     0.43974   0.79826   0.10433   0.00000  Uiso   1.00
C594   C     0.38061   0.68591   0.46035   0.00000  Uiso   1.00
C595   C     0.05093   0.87965   0.53612   0.00000  Uiso   1.00
C596   C     0.37965   0.55093   0.46387   0.00000  Uiso   1.00
C597   C     0.18591   0.88061   0.53965   0.00000  Uiso   1.00
C598   C     0.11939   0.81409   0.46035   0.00000  Uiso   1.00
C599   C     0.44907   0.62035   0.53612   0.00000  Uiso   1.00
C600   C     0.12035   0.94907   0.46387   0.00000  Uiso   1.00
C601   C     0.31409   0.61939   0.53965   0.00000  Uiso   1.00
C602   C     0.30093   0.87035   0.96387   0.00000  Uiso   1.00
C603   C     0.32999   0.91999   0.24998   0.00000  Uiso   1.00
C604   C     0.13061   0.56409   0.03965   0.00000  Uiso   1.00
C605   C     0.06409   0.63061   0.96035   0.00000  Uiso   1.00
C606   C     0.37035   0.80093   0.03613   0.00000  Uiso   1.00
C607   C     0.19907   0.62965   0.96387   0.00000  Uiso   1.00
C608   C     0.36939   0.93591   0.03965   0.00000  Uiso   1.00
C609   C     0.43591   0.86939   0.96035   0.00000  Uiso   1.00
C610   C     0.12965   0.69907   0.03613   0.00000  Uiso   1.00
C611   C     0.17001   0.58001   0.75001   0.00000  Uiso   1.00
C612   C     0.07999   0.83001   0.25002   0.00000  Uiso   1.00
C613   C     0.42001   0.66999   0.74998   0.00000  Uiso   1.00
C614   C     0.16999   0.92001   0.74998   0.00000  Uiso   1.00
C615   C     0.33001   0.57999   0.25001   0.00000  Uiso   1.00
C616   C     0.41999   0.82999   0.75002   0.00000  Uiso   1.00
C617   C     0.25000   0.50000   0.64422   0.00000  Uiso   1.00
C618   C     0.08001   0.67001   0.24998   0.00000  Uiso   1.00
C619   C     0.33001   0.57999   0.74998   0.00000  Uiso   1.00
C620   C     0.16999   0.92001   0.25001   0.00000  Uiso   1.00
C621   C     0.08001   0.67001   0.75002   0.00000  Uiso   1.00
C622   C     0.41999   0.82999   0.24998   0.00000  Uiso   1.00
C623   C     0.13832   0.88836   0.25003   0.00000  Uiso   1.00
C624   C     0.36168   0.61164   0.74997   0.00000  Uiso   1.00
C625   C     0.11168   0.63836   0.24997   0.00000  Uiso   1.00
C626   C     0.38832   0.86164   0.75003   0.00000  Uiso   1.00
C627   C     0.36168   0.61164   0.25003   0.00000  Uiso   1.00
C628   C     0.00000   0.75000   0.35578   0.00000  Uiso   1.00
C629   C     0.13832   0.88836   0.74997   0.00000  Uiso   1.00
C630   C     0.38832   0.86164   0.24997   0.00000  Uiso   1.00
C631   C     0.11168   0.63836   0.75003   0.00000  Uiso   1.00
C632   C     0.13836   0.61168   0.75003   0.00000  Uiso   1.00
C633   C     0.36164   0.88832   0.24997   0.00000  Uiso   1.00
C634   C     0.11164   0.86168   0.74997   0.00000  Uiso   1.00
C635   C     0.38836   0.63832   0.25003   0.00000  Uiso   1.00
C636   C     0.36164   0.88832   0.75003   0.00000  Uiso   1.00
C637   C     0.13836   0.61168   0.24997   0.00000  Uiso   1.00
C638   C     0.38836   0.63832   0.74997   0.00000  Uiso   1.00
C639   C     0.00000   0.75000   0.64415   0.00000  Uiso   1.00
C640   C     0.11164   0.86168   0.25003   0.00000  Uiso   1.00
C641   C     0.02305   0.78080   0.41802   0.00000  Uiso   1.00
C642   C     0.47574   0.72002   0.58174   0.00000  Uiso   1.00
C643   C     0.22002   0.97574   0.41825   0.00000  Uiso   1.00
C644   C     0.28080   0.52305   0.58198   0.00000  Uiso   1.00
C645   C     0.47695   0.71920   0.41802   0.00000  Uiso   1.00
C646   C     0.02426   0.77998   0.58174   0.00000  Uiso   1.00
C647   C     0.27998   0.52426   0.41825   0.00000  Uiso   1.00
C648   C     0.21920   0.97695   0.58198   0.00000  Uiso   1.00
C649   C     0.22574   0.52998   0.91825   0.00000  Uiso   1.00
C650   C     0.00000   0.75000   0.85578   0.00000  Uiso   1.00
C651   C     0.27305   0.96920   0.08198   0.00000  Uiso   1.00
C652   C     0.46920   0.77305   0.91802   0.00000  Uiso   1.00
C653   C     0.02998   0.72574   0.08174   0.00000  Uiso   1.00
C654   C     0.27426   0.97002   0.91825   0.00000  Uiso   1.00
C655   C     0.22695   0.53080   0.08198   0.00000  Uiso   1.00
C656   C     0.03080   0.72695   0.91802   0.00000  Uiso   1.00
C657   C     0.47002   0.77426   0.08175   0.00000  Uiso   1.00
C658   C     0.00000   0.75000   0.39808   0.00000  Uiso   1.00
C659   C     0.00000   0.75000   0.60170   0.00000  Uiso   1.00
C660   C     0.25000   0.50000   0.39830   0.00000  Uiso   1.00
C661   C     0.00000   0.75000   0.14415   0.00000  Uiso   1.00
C662   C     0.25000   0.50000   0.60192   0.00000  Uiso   1.00
C663   C     0.25000   0.50000   0.89830   0.00000  Uiso   1.00
C664   C     0.25000   0.50000   0.10192   0.00000  Uiso   1.00
C665   C     0.00000   0.75000   0.89808   0.00000  Uiso   1.00
C666   C     0.00000   0.75000   0.10170   0.00000  Uiso   1.00
C667   C     0.47490   0.72032   0.45880   0.00000  Uiso   1.00
C668   C     0.02439   0.78048   0.54085   0.00000  Uiso   1.00
C669   C     0.28048   0.52439   0.45915   0.00000  Uiso   1.00
C670   C     0.22032   0.97490   0.54120   0.00000  Uiso   1.00
C671   C     0.02510   0.77968   0.45880   0.00000  Uiso   1.00
C672   C     0.25000   0.50000   0.85585   0.00000  Uiso   1.00
C673   C     0.47561   0.71952   0.54085   0.00000  Uiso   1.00
C674   C     0.21952   0.97561   0.45915   0.00000  Uiso   1.00
C675   C     0.27968   0.52510   0.54120   0.00000  Uiso   1.00
C676   C     0.27439   0.96952   0.95915   0.00000  Uiso   1.00
C677   C     0.22490   0.52968   0.04120   0.00000  Uiso   1.00
C678   C     0.02968   0.72490   0.95880   0.00000  Uiso   1.00
C679   C     0.46952   0.77439   0.04085   0.00000  Uiso   1.00
C680   C     0.22561   0.53048   0.95915   0.00000  Uiso   1.00
C681   C     0.27510   0.97032   0.04120   0.00000  Uiso   1.00
C682   C     0.47032   0.77510   0.95880   0.00000  Uiso   1.00
C683   C     0.25000   0.50000   0.14422   0.00000  Uiso   1.00
C684   C     0.03049   0.72561   0.04085   0.00000  Uiso   1.00
C685   C     0.00000   0.75000   0.47933   0.00000  Uiso   1.00
C686   C     0.00000   0.75000   0.52039   0.00000  Uiso   1.00
C687   C     0.25000   0.50000   0.47961   0.00000  Uiso   1.00
C688   C     0.25000   0.50000   0.52067   0.00000  Uiso   1.00
C689   C     0.25000   0.50000   0.97961   0.00000  Uiso   1.00
C690   C     0.25000   0.50000   0.02067   0.00000  Uiso   1.00
C691   C     0.00000   0.75000   0.97933   0.00000  Uiso   1.00
C692   C     0.00000   0.75000   0.02039   0.00000  Uiso   1.00
C693   C     0.44863   0.69241   0.47965   0.00000  Uiso   1.00
C694   C     0.17001   0.58001   0.24998   0.00000  Uiso   1.00
C695   C     0.04846   0.81034   0.51972   0.00000  Uiso   1.00
C696   C     0.31034   0.54846   0.48028   0.00000  Uiso   1.00
C697   C     0.19241   0.94863   0.52035   0.00000  Uiso   1.00
C698   C     0.05137   0.80759   0.47965   0.00000  Uiso   1.00
C699   C     0.45154   0.68966   0.51972   0.00000  Uiso   1.00
C700   C     0.18966   0.95154   0.48028   0.00000  Uiso   1.00
C701   C     0.30759   0.55137   0.52035   0.00000  Uiso   1.00
C702   C     0.29846   0.93966   0.98028   0.00000  Uiso   1.00
C703   C     0.19863   0.55759   0.02035   0.00000  Uiso   1.00
C704   C     0.05759   0.69863   0.97965   0.00000  Uiso   1.00
H705   H     0.38199   0.71628   0.44432   0.00000  Uiso   1.00
H706   H     0.21628   0.88199   0.55568   0.00000  Uiso   1.00
H707   H     0.19110   0.86808   0.51007   0.00000  Uiso   1.00
H708   H     0.16502   0.85814   0.55499   0.00000  Uiso   1.00
H709   H     0.11801   0.78372   0.44432   0.00000  Uiso   1.00
H710   H     0.13192   0.80890   0.48993   0.00000  Uiso   1.00
H711   H     0.14186   0.83498   0.44501   0.00000  Uiso   1.00
H712   H     0.48074   0.62256   0.54981   0.00000  Uiso   1.00
H713   H     0.45210   0.60887   0.50597   0.00000  Uiso   1.00
H714   H     0.43064   0.59652   0.55235   0.00000  Uiso   1.00
H715   H     0.12256   0.98074   0.45018   0.00000  Uiso   1.00
H716   H     0.36808   0.69110   0.48993   0.00000  Uiso   1.00
H717   H     0.10887   0.95210   0.49403   0.00000  Uiso   1.00
H718   H     0.09652   0.93064   0.44765   0.00000  Uiso   1.00
H719   H     0.28372   0.61801   0.55568   0.00000  Uiso   1.00
H720   H     0.30890   0.63192   0.51007   0.00000  Uiso   1.00
H721   H     0.33498   0.64186   0.55499   0.00000  Uiso   1.00
H722   H     0.26926   0.87256   0.95018   0.00000  Uiso   1.00
H723   H     0.29790   0.85887   0.99403   0.00000  Uiso   1.00
H724   H     0.31936   0.84652   0.94765   0.00000  Uiso   1.00
H725   H     0.13199   0.53372   0.05568   0.00000  Uiso   1.00
H726   H     0.11808   0.55890   0.01007   0.00000  Uiso   1.00
H727   H     0.35814   0.66503   0.44501   0.00000  Uiso   1.00
H728   H     0.10814   0.58497   0.05499   0.00000  Uiso   1.00
H729   H     0.03372   0.63199   0.94432   0.00000  Uiso   1.00
H730   H     0.05890   0.61808   0.98993   0.00000  Uiso   1.00
H731   H     0.08498   0.60814   0.94501   0.00000  Uiso   1.00
H732   H     0.37256   0.76926   0.04982   0.00000  Uiso   1.00
H733   H     0.35887   0.79790   0.00597   0.00000  Uiso   1.00
H734   H     0.34651   0.81936   0.05235   0.00000  Uiso   1.00
H735   H     0.23074   0.62744   0.95018   0.00000  Uiso   1.00
H736   H     0.20210   0.64113   0.99403   0.00000  Uiso   1.00
H737   H     0.18064   0.65348   0.94765   0.00000  Uiso   1.00
H738   H     0.01926   0.87744   0.54981   0.00000  Uiso   1.00
H739   H     0.36801   0.96628   0.05568   0.00000  Uiso   1.00
H740   H     0.38192   0.94110   0.01007   0.00000  Uiso   1.00
H741   H     0.39186   0.91503   0.05499   0.00000  Uiso   1.00
H742   H     0.46628   0.86801   0.94432   0.00000  Uiso   1.00
H743   H     0.44110   0.88192   0.98993   0.00000  Uiso   1.00
H744   H     0.41502   0.89186   0.94501   0.00000  Uiso   1.00
H745   H     0.12744   0.73074   0.04981   0.00000  Uiso   1.00
H746   H     0.14113   0.70210   0.00597   0.00000  Uiso   1.00
H747   H     0.15349   0.68064   0.05235   0.00000  Uiso   1.00
H748   H     0.04790   0.89113   0.50597   0.00000  Uiso   1.00
H749   H     0.06936   0.90349   0.55235   0.00000  Uiso   1.00
H750   H     0.37744   0.51926   0.45018   0.00000  Uiso   1.00
H751   H     0.39113   0.54790   0.49403   0.00000  Uiso   1.00
H752   H     0.40349   0.56936   0.44765   0.00000  Uiso   1.00
N753   N     0.05687   0.84188   0.37808   0.00000  Uiso   1.00
N754   N     0.30687   0.90812   0.12191   0.00000  Uiso   1.00
N755   N     0.40812   0.80687   0.87808   0.00000  Uiso   1.00
N756   N     0.08419   0.68273   0.12257   0.00000  Uiso   1.00
N757   N     0.31727   0.91581   0.87743   0.00000  Uiso   1.00
N758   N     0.19313   0.59188   0.12191   0.00000  Uiso   1.00
N759   N     0.09188   0.69313   0.87808   0.00000  Uiso   1.00
N760   N     0.41581   0.81728   0.12257   0.00000  Uiso   1.00
N761   N     0.43273   0.66581   0.62257   0.00000  Uiso   1.00
N762   N     0.16581   0.93273   0.37743   0.00000  Uiso   1.00
N763   N     0.34188   0.55687   0.62191   0.00000  Uiso   1.00
N764   N     0.44313   0.65812   0.37808   0.00000  Uiso   1.00
N765   N     0.06727   0.83420   0.62257   0.00000  Uiso   1.00
N766   N     0.33419   0.56727   0.37743   0.00000  Uiso   1.00
N767   N     0.15812   0.94313   0.62191   0.00000  Uiso   1.00
N768   N     0.18273   0.58420   0.87743   0.00000  Uiso   1.00
O769   O     0.25000   0.50000   0.25000   0.00000  Uiso   1.00
O770   O     0.25000   0.96539   0.66251   0.00000  Uiso   1.00
O771   O     0.46539   0.75000   0.33749   0.00000  Uiso   1.00
O772   O     0.03462   0.75000   0.66251   0.00000  Uiso   1.00
O773   O     0.00000   0.71539   0.83749   0.00000  Uiso   1.00
O774   O     0.00000   0.78462   0.16251   0.00000  Uiso   1.00
O775   O     0.28462   0.50000   0.83749   0.00000  Uiso   1.00
O776   O     0.21539   0.50000   0.16251   0.00000  Uiso   1.00
O777   O     0.00000   0.78462   0.83749   0.00000  Uiso   1.00
O778   O     0.00000   0.71539   0.16251   0.00000  Uiso   1.00
O779   O     0.21539   0.50000   0.83749   0.00000  Uiso   1.00
O780   O     0.25000   0.50000   0.75000   0.00000  Uiso   1.00
O781   O     0.28462   0.50000   0.16251   0.00000  Uiso   1.00
O782   O     0.20127   0.58332   0.27298   0.00000  Uiso   1.00
O783   O     0.29874   0.91668   0.72702   0.00000  Uiso   1.00
O784   O     0.41668   0.70127   0.27298   0.00000  Uiso   1.00
O785   O     0.08332   0.79874   0.72702   0.00000  Uiso   1.00
O786   O     0.29874   0.91668   0.27298   0.00000  Uiso   1.00
O787   O     0.20127   0.58332   0.72702   0.00000  Uiso   1.00
O788   O     0.08332   0.79874   0.27298   0.00000  Uiso   1.00
O789   O     0.41668   0.70127   0.72702   0.00000  Uiso   1.00
O790   O     0.20127   0.91668   0.72702   0.00000  Uiso   1.00
O791   O     0.00000   0.75000   0.25000   0.00000  Uiso   1.00
O792   O     0.29874   0.58332   0.27298   0.00000  Uiso   1.00
O793   O     0.41668   0.79874   0.72702   0.00000  Uiso   1.00
O794   O     0.08332   0.70127   0.27298   0.00000  Uiso   1.00
O795   O     0.29874   0.58332   0.72702   0.00000  Uiso   1.00
O796   O     0.20127   0.91668   0.27298   0.00000  Uiso   1.00
O797   O     0.08332   0.70127   0.72702   0.00000  Uiso   1.00
O798   O     0.41668   0.79874   0.27298   0.00000  Uiso   1.00
O799   O     0.45127   0.83332   0.77298   0.00000  Uiso   1.00
O800   O     0.04874   0.66668   0.22702   0.00000  Uiso   1.00
O801   O     0.16668   0.95127   0.77298   0.00000  Uiso   1.00
O802   O     0.00000   0.75000   0.75000   0.00000  Uiso   1.00
O803   O     0.33332   0.54874   0.22702   0.00000  Uiso   1.00
O804   O     0.04874   0.66668   0.77298   0.00000  Uiso   1.00
O805   O     0.45127   0.83332   0.22702   0.00000  Uiso   1.00
O806   O     0.33332   0.54874   0.77298   0.00000  Uiso   1.00
O807   O     0.16668   0.95127   0.22702   0.00000  Uiso   1.00
O808   O     0.45127   0.66668   0.22702   0.00000  Uiso   1.00
O809   O     0.04874   0.83332   0.77298   0.00000  Uiso   1.00
O810   O     0.16668   0.54874   0.22702   0.00000  Uiso   1.00
O811   O     0.33332   0.95127   0.77298   0.00000  Uiso   1.00
O812   O     0.04874   0.83332   0.22702   0.00000  Uiso   1.00
O813   O     0.25000   0.96539   0.33749   0.00000  Uiso   1.00
O814   O     0.45127   0.66668   0.77298   0.00000  Uiso   1.00
O815   O     0.33332   0.95127   0.22702   0.00000  Uiso   1.00
O816   O     0.16668   0.54874   0.77298   0.00000  Uiso   1.00
O817   O     0.42035   0.66600   0.46122   0.00000  Uiso   1.00
O818   O     0.07255   0.84081   0.53789   0.00000  Uiso   1.00
O819   O     0.34081   0.57255   0.46210   0.00000  Uiso   1.00
O820   O     0.16600   0.92035   0.53878   0.00000  Uiso   1.00
O821   O     0.07965   0.83400   0.46122   0.00000  Uiso   1.00
O822   O     0.42745   0.65919   0.53789   0.00000  Uiso   1.00
O823   O     0.15919   0.92745   0.46210   0.00000  Uiso   1.00
O824   O     0.25000   0.53462   0.66251   0.00000  Uiso   1.00
O825   O     0.33400   0.57965   0.53878   0.00000  Uiso   1.00
O826   O     0.32255   0.90919   0.96210   0.00000  Uiso   1.00
O827   O     0.17035   0.58400   0.03878   0.00000  Uiso   1.00
O828   O     0.08400   0.67035   0.96122   0.00000  Uiso   1.00
O829   O     0.40919   0.82255   0.03790   0.00000  Uiso   1.00
O830   O     0.17745   0.59081   0.96210   0.00000  Uiso   1.00
O831   O     0.32965   0.91600   0.03878   0.00000  Uiso   1.00
O832   O     0.41600   0.82965   0.96122   0.00000  Uiso   1.00
O833   O     0.09081   0.67745   0.03789   0.00000  Uiso   1.00
O834   O     0.03462   0.75000   0.33749   0.00000  Uiso   1.00
O835   O     0.46539   0.75000   0.66251   0.00000  Uiso   1.00
O836   O     0.25000   0.53462   0.33749   0.00000  Uiso   1.00
Zn837  Zn    0.20053   0.50000   0.21730   0.00000  Uiso   1.00
Zn838  Zn    0.04948   0.75000   0.28270   0.00000  Uiso   1.00
Zn839  Zn    0.25000   0.95053   0.71730   0.00000  Uiso   1.00
Zn840  Zn    0.25000   0.54948   0.28270   0.00000  Uiso   1.00
Zn841  Zn    0.04948   0.75000   0.71730   0.00000  Uiso   1.00
Zn842  Zn    0.45053   0.75000   0.28270   0.00000  Uiso   1.00
Zn843  Zn    0.25000   0.54948   0.71730   0.00000  Uiso   1.00
Zn844  Zn    0.25000   0.95053   0.28270   0.00000  Uiso   1.00
Zn845  Zn    0.29948   0.50000   0.78270   0.00000  Uiso   1.00
Zn846  Zn    0.00000   0.70053   0.21730   0.00000  Uiso   1.00
Zn847  Zn    0.00000   0.79948   0.78270   0.00000  Uiso   1.00
Zn848  Zn    0.29948   0.50000   0.21730   0.00000  Uiso   1.00
Zn849  Zn    0.20053   0.50000   0.78270   0.00000  Uiso   1.00
Zn850  Zn    0.00000   0.79948   0.21730   0.00000  Uiso   1.00
Zn851  Zn    0.00000   0.70053   0.78270   0.00000  Uiso   1.00
Zn852  Zn    0.45053   0.75000   0.71730   0.00000  Uiso   1.00
C853   C     0.75000   0.50000   0.35585   0.00000  Uiso   1.00
C854   C     0.82999   0.91999   0.75001   0.00000  Uiso   1.00
C855   C     0.93966   0.79846   0.01972   0.00000  Uiso   1.00
C856   C     0.70154   0.56034   0.98028   0.00000  Uiso   1.00
C857   C     0.80137   0.94241   0.02035   0.00000  Uiso   1.00
C858   C     0.94241   0.80137   0.97965   0.00000  Uiso   1.00
C859   C     0.56034   0.70154   0.01972   0.00000  Uiso   1.00
C860   C     0.54196   0.81486   0.39588   0.00000  Uiso   1.00
C861   C     0.95174   0.68974   0.60433   0.00000  Uiso   1.00
C862   C     0.68974   0.95174   0.39567   0.00000  Uiso   1.00
C863   C     0.81486   0.54196   0.60412   0.00000  Uiso   1.00
C864   C     0.95805   0.68515   0.39588   0.00000  Uiso   1.00
C865   C     0.92001   0.66999   0.25002   0.00000  Uiso   1.00
C866   C     0.54826   0.81026   0.60433   0.00000  Uiso   1.00
C867   C     0.81026   0.54826   0.39567   0.00000  Uiso   1.00
C868   C     0.68515   0.95805   0.60412   0.00000  Uiso   1.00
C869   C     0.70174   0.56026   0.89567   0.00000  Uiso   1.00
C870   C     0.79196   0.93515   0.10412   0.00000  Uiso   1.00
C871   C     0.93515   0.79195   0.89588   0.00000  Uiso   1.00
C872   C     0.56026   0.70174   0.10433   0.00000  Uiso   1.00
C873   C     0.79826   0.93974   0.89567   0.00000  Uiso   1.00
C874   C     0.70805   0.56485   0.10412   0.00000  Uiso   1.00
C875   C     0.56486   0.70805   0.89588   0.00000  Uiso   1.00
C876   C     0.57999   0.83001   0.74998   0.00000  Uiso   1.00
C877   C     0.93974   0.79826   0.10433   0.00000  Uiso   1.00
C878   C     0.88061   0.68591   0.46035   0.00000  Uiso   1.00
C879   C     0.55093   0.87965   0.53612   0.00000  Uiso   1.00
C880   C     0.87965   0.55093   0.46387   0.00000  Uiso   1.00
C881   C     0.68591   0.88061   0.53965   0.00000  Uiso   1.00
C882   C     0.61939   0.81409   0.46035   0.00000  Uiso   1.00
C883   C     0.94907   0.62035   0.53612   0.00000  Uiso   1.00
C884   C     0.62035   0.94907   0.46387   0.00000  Uiso   1.00
C885   C     0.81409   0.61939   0.53965   0.00000  Uiso   1.00
C886   C     0.80093   0.87035   0.96387   0.00000  Uiso   1.00
C887   C     0.82999   0.91999   0.24998   0.00000  Uiso   1.00
C888   C     0.63061   0.56409   0.03965   0.00000  Uiso   1.00
C889   C     0.56409   0.63061   0.96035   0.00000  Uiso   1.00
C890   C     0.87035   0.80093   0.03613   0.00000  Uiso   1.00
C891   C     0.69907   0.62965   0.96387   0.00000  Uiso   1.00
C892   C     0.86939   0.93591   0.03965   0.00000  Uiso   1.00
C893   C     0.93591   0.86939   0.96035   0.00000  Uiso   1.00
C894   C     0.62965   0.69907   0.03613   0.00000  Uiso   1.00
C895   C     0.67001   0.58001   0.75001   0.00000  Uiso   1.00
C896   C     0.57999   0.83001   0.25002   0.00000  Uiso   1.00
C897   C     0.92001   0.66999   0.74998   0.00000  Uiso   1.00
C898   C     0.66999   0.92001   0.74998   0.00000  Uiso   1.00
C899   C     0.83001   0.57999   0.25001   0.00000  Uiso   1.00
C900   C     0.91999   0.82999   0.75002   0.00000  Uiso   1.00
C901   C     0.75000   0.50000   0.64422   0.00000  Uiso   1.00
C902   C     0.58001   0.67001   0.24998   0.00000  Uiso   1.00
C903   C     0.83001   0.57999   0.74998   0.00000  Uiso   1.00
C904   C     0.66999   0.92001   0.25001   0.00000  Uiso   1.00
C905   C     0.58001   0.67001   0.75002   0.00000  Uiso   1.00
C906   C     0.91999   0.82999   0.24998   0.00000  Uiso   1.00
C907   C     0.63832   0.88836   0.25003   0.00000  Uiso   1.00
C908   C     0.86168   0.61164   0.74997   0.00000  Uiso   1.00
C909   C     0.61168   0.63836   0.24997   0.00000  Uiso   1.00
C910   C     0.88832   0.86164   0.75003   0.00000  Uiso   1.00
C911   C     0.86168   0.61164   0.25003   0.00000  Uiso   1.00
C912   C     0.50000   0.75000   0.35578   0.00000  Uiso   1.00
C913   C     0.63832   0.88836   0.74997   0.00000  Uiso   1.00
C914   C     0.88832   0.86164   0.24997   0.00000  Uiso   1.00
C915   C     0.61168   0.63836   0.75003   0.00000  Uiso   1.00
C916   C     0.63836   0.61168   0.75003   0.00000  Uiso   1.00
C917   C     0.86164   0.88832   0.24997   0.00000  Uiso   1.00
C918   C     0.61164   0.86168   0.74997   0.00000  Uiso   1.00
C919   C     0.88836   0.63832   0.25003   0.00000  Uiso   1.00
C920   C     0.86164   0.88832   0.75003   0.00000  Uiso   1.00
C921   C     0.63836   0.61168   0.24997   0.00000  Uiso   1.00
C922   C     0.88836   0.63832   0.74997   0.00000  Uiso   1.00
C923   C     0.50000   0.75000   0.64415   0.00000  Uiso   1.00
C924   C     0.61164   0.86168   0.25003   0.00000  Uiso   1.00
C925   C     0.52305   0.78080   0.41802   0.00000  Uiso   1.00
C926   C     0.97574   0.72002   0.58174   0.00000  Uiso   1.00
C927   C     0.72002   0.97574   0.41825   0.00000  Uiso   1.00
C928   C     0.78080   0.52305   0.58198   0.00000  Uiso   1.00
C929   C     0.97695   0.71920   0.41802   0.00000  Uiso   1.00
C930   C     0.52426   0.77998   0.58174   0.00000  Uiso   1.00
C931   C     0.77998   0.52426   0.41825   0.00000  Uiso   1.00
C932   C     0.71920   0.97695   0.58198   0.00000  Uiso   1.00
C933   C     0.72574   0.52998   0.91825   0.00000  Uiso   1.00
C934   C     0.50000   0.75000   0.85578   0.00000  Uiso   1.00
C935   C     0.77305   0.96920   0.08198   0.00000  Uiso   1.00
C936   C     0.96920   0.77305   0.91802   0.00000  Uiso   1.00
C937   C     0.52998   0.72574   0.08174   0.00000  Uiso   1.00
C938   C     0.77426   0.97002   0.91825   0.00000  Uiso   1.00
C939   C     0.72695   0.53080   0.08198   0.00000  Uiso   1.00
C940   C     0.53080   0.72695   0.91802   0.00000  Uiso   1.00
C941   C     0.97002   0.77426   0.08175   0.00000  Uiso   1.00
C942   C     0.50000   0.75000   0.39808   0.00000  Uiso   1.00
C943   C     0.50000   0.75000   0.60170   0.00000  Uiso   1.00
C944   C     0.75000   0.50000   0.39830   0.00000  Uiso   1.00
C945   C     0.50000   0.75000   0.14415   0.00000  Uiso   1.00
C946   C     0.75000   0.50000   0.60192   0.00000  Uiso   1.00
C947   C     0.75000   0.50000   0.89830   0.00000  Uiso   1.00
C948   C     0.75000   0.50000   0.10192   0.00000  Uiso   1.00
C949   C     0.50000   0.75000   0.89808   0.00000  Uiso   1.00
C950   C     0.50000   0.75000   0.10170   0.00000  Uiso   1.00
C951   C     0.97490   0.72032   0.45880   0.00000  Uiso   1.00
C952   C     0.52439   0.78048   0.54085   0.00000  Uiso   1.00
C953   C     0.78048   0.52439   0.45915   0.00000  Uiso   1.00
C954   C     0.72032   0.97490   0.54120   0.00000  Uiso   1.00
C955   C     0.52510   0.77968   0.45880   0.00000  Uiso   1.00
C956   C     0.75000   0.50000   0.85585   0.00000  Uiso   1.00
C957   C     0.97561   0.71952   0.54085   0.00000  Uiso   1.00
C958   C     0.71952   0.97561   0.45915   0.00000  Uiso   1.00
C959   C     0.77968   0.52510   0.54120   0.00000  Uiso   1.00
C960   C     0.77439   0.96952   0.95915   0.00000  Uiso   1.00
C961   C     0.72490   0.52968   0.04120   0.00000  Uiso   1.00
C962   C     0.52968   0.72490   0.95880   0.00000  Uiso   1.00
C963   C     0.96952   0.77439   0.04085   0.00000  Uiso   1.00
C964   C     0.72561   0.53048   0.95915   0.00000  Uiso   1.00
C965   C     0.77510   0.97032   0.04120   0.00000  Uiso   1.00
C966   C     0.97032   0.77510   0.95880   0.00000  Uiso   1.00
C967   C     0.75000   0.50000   0.14422   0.00000  Uiso   1.00
C968   C     0.53049   0.72561   0.04085   0.00000  Uiso   1.00
C969   C     0.50000   0.75000   0.47933   0.00000  Uiso   1.00
C970   C     0.50000   0.75000   0.52039   0.00000  Uiso   1.00
C971   C     0.75000   0.50000   0.47961   0.00000  Uiso   1.00
C972   C     0.75000   0.50000   0.52067   0.00000  Uiso   1.00
C973   C     0.75000   0.50000   0.97961   0.00000  Uiso   1.00
C974   C     0.75000   0.50000   0.02067   0.00000  Uiso   1.00
C975   C     0.50000   0.75000   0.97933   0.00000  Uiso   1.00
C976   C     0.50000   0.75000   0.02039   0.00000  Uiso   1.00
C977   C     0.94863   0.69241   0.47965   0.00000  Uiso   1.00
C978   C     0.67001   0.58001   0.24998   0.00000  Uiso   1.00
C979   C     0.54846   0.81034   0.51972   0.00000  Uiso   1.00
C980   C     0.81034   0.54846   0.48028   0.00000  Uiso   1.00
C981   C     0.69241   0.94863   0.52035   0.00000  Uiso   1.00
C982   C     0.55137   0.80759   0.47965   0.00000  Uiso   1.00
C983   C     0.95154   0.68966   0.51972   0.00000  Uiso   1.00
C984   C     0.68966   0.95154   0.48028   0.00000  Uiso   1.00
C985   C     0.80759   0.55137   0.52035   0.00000  Uiso   1.00
C986   C     0.79846   0.93966   0.98028   0.00000  Uiso   1.00
C987   C     0.69863   0.55759   0.02035   0.00000  Uiso   1.00
C988   C     0.55759   0.69863   0.97965   0.00000  Uiso   1.00
H989   H     0.88199   0.71628   0.44432   0.00000  Uiso   1.00
H990   H     0.71628   0.88199   0.55568   0.00000  Uiso   1.00
H991   H     0.69110   0.86808   0.51007   0.00000  Uiso   1.00
H992   H     0.66502   0.85814   0.55499   0.00000  Uiso   1.00
H993   H     0.61801   0.78372   0.44432   0.00000  Uiso   1.00
H994   H     0.63192   0.80890   0.48993   0.00000  Uiso   1.00
H995   H     0.64186   0.83498   0.44501   0.00000  Uiso   1.00
H996   H     0.98074   0.62256   0.54981   0.00000  Uiso   1.00
H997   H     0.95210   0.60887   0.50597   0.00000  Uiso   1.00
H998   H     0.93064   0.59652   0.55235   0.00000  Uiso   1.00
H999   H     0.62256   0.98074   0.45018   0.00000  Uiso   1.00
H1000  H     0.86808   0.69110   0.48993   0.00000  Uiso   1.00
H1001  H     0.60887   0.95210   0.49403   0.00000  Uiso   1.00
H1002  H     0.59652   0.93064   0.44765   0.00000  Uiso   1.00
H1003  H     0.78372   0.61801   0.55568   0.00000  Uiso   1.00
H1004  H     0.80890   0.63192   0.51007   0.00000  Uiso   1.00
H1005  H     0.83498   0.64186   0.55499   0.00000  Uiso   1.00
H1006  H     0.76926   0.87256   0.95018   0.00000  Uiso   1.00
H1007  H     0.79790   0.85887   0.99403   0.00000  Uiso   1.00
H1008  H     0.81936   0.84652   0.94765   0.00000  Uiso   1.00
H1009  H     0.63199   0.53372   0.05568   0.00000  Uiso   1.00
H1010  H     0.61808   0.55890   0.01007   0.00000  Uiso   1.00
H1011  H     0.85814   0.66503   0.44501   0.00000  Uiso   1.00
H1012  H     0.60814   0.58497   0.05499   0.00000  Uiso   1.00
H1013  H     0.53372   0.63199   0.94432   0.00000  Uiso   1.00
H1014  H     0.55890   0.61808   0.98993   0.00000  Uiso   1.00
H1015  H     0.58498   0.60814   0.94501   0.00000  Uiso   1.00
H1016  H     0.87256   0.76926   0.04982   0.00000  Uiso   1.00
H1017  H     0.85887   0.79790   0.00597   0.00000  Uiso   1.00
H1018  H     0.84651   0.81936   0.05235   0.00000  Uiso   1.00
H1019  H     0.73074   0.62744   0.95018   0.00000  Uiso   1.00
H1020  H     0.70210   0.64113   0.99403   0.00000  Uiso   1.00
H1021  H     0.68064   0.65348   0.94765   0.00000  Uiso   1.00
H1022  H     0.51926   0.87744   0.54981   0.00000  Uiso   1.00
H1023  H     0.86801   0.96628   0.05568   0.00000  Uiso   1.00
H1024  H     0.88192   0.94110   0.01007   0.00000  Uiso   1.00
H1025  H     0.89186   0.91503   0.05499   0.00000  Uiso   1.00
H1026  H     0.96628   0.86801   0.94432   0.00000  Uiso   1.00
H1027  H     0.94110   0.88192   0.98993   0.00000  Uiso   1.00
H1028  H     0.91502   0.89186   0.94501   0.00000  Uiso   1.00
H1029  H     0.62744   0.73074   0.04981   0.00000  Uiso   1.00
H1030  H     0.64113   0.70210   0.00597   0.00000  Uiso   1.00
H1031  H     0.65349   0.68064   0.05235   0.00000  Uiso   1.00
H1032  H     0.54790   0.89113   0.50597   0.00000  Uiso   1.00
H1033  H     0.56936   0.90349   0.55235   0.00000  Uiso   1.00
H1034  H     0.87744   0.51926   0.45018   0.00000  Uiso   1.00
H1035  H     0.89113   0.54790   0.49403   0.00000  Uiso   1.00
H1036  H     0.90349   0.56936   0.44765   0.00000  Uiso   1.00
N1037  N     0.55687   0.84188   0.37808   0.00000  Uiso   1.00
N1038  N     0.80687   0.90812   0.12191   0.00000  Uiso   1.00
N1039  N     0.90812   0.80687   0.87808   0.00000  Uiso   1.00
N1040  N     0.58419   0.68273   0.12257   0.00000  Uiso   1.00
N1041  N     0.81727   0.91581   0.87743   0.00000  Uiso   1.00
N1042  N     0.69313   0.59188   0.12191   0.00000  Uiso   1.00
N1043  N     0.59188   0.69313   0.87808   0.00000  Uiso   1.00
N1044  N     0.91581   0.81728   0.12257   0.00000  Uiso   1.00
N1045  N     0.93273   0.66581   0.62257   0.00000  Uiso   1.00
N1046  N     0.66581   0.93273   0.37743   0.00000  Uiso   1.00
N1047  N     0.84188   0.55687   0.62191   0.00000  Uiso   1.00
N1048  N     0.94313   0.65812   0.37808   0.00000  Uiso   1.00
N1049  N     0.56727   0.83420   0.62257   0.00000  Uiso   1.00
N1050  N     0.83419   0.56727   0.37743   0.00000  Uiso   1.00
N1051  N     0.65812   0.94313   0.62191   0.00000  Uiso   1.00
N1052  N     0.68273   0.58420   0.87743   0.00000  Uiso   1.00
O1053  O     0.75000   0.50000   0.25000   0.00000  Uiso   1.00
O1054  O     0.75000   0.96539   0.66251   0.00000  Uiso   1.00
O1055  O     0.96539   0.75000   0.33749   0.00000  Uiso   1.00
O1056  O     0.53462   0.75000   0.66251   0.00000  Uiso   1.00
O1057  O     0.50000   0.71539   0.83749   0.00000  Uiso   1.00
O1058  O     0.50000   0.78462   0.16251   0.00000  Uiso   1.00
O1059  O     0.78462   0.50000   0.83749   0.00000  Uiso   1.00
O1060  O     0.71539   0.50000   0.16251   0.00000  Uiso   1.00
O1061  O     0.50000   0.78462   0.83749   0.00000  Uiso   1.00
O1062  O     0.50000   0.71539   0.16251   0.00000  Uiso   1.00
O1063  O     0.71539   0.50000   0.83749   0.00000  Uiso   1.00
O1064  O     0.75000   0.50000   0.75000   0.00000  Uiso   1.00
O1065  O     0.78462   0.50000   0.16251   0.00000  Uiso   1.00
O1066  O     0.70127   0.58332   0.27298   0.00000  Uiso   1.00
O1067  O     0.79874   0.91668   0.72702   0.00000  Uiso   1.00
O1068  O     0.91668   0.70127   0.27298   0.00000  Uiso   1.00
O1069  O     0.58332   0.79874   0.72702   0.00000  Uiso   1.00
O1070  O     0.79874   0.91668   0.27298   0.00000  Uiso   1.00
O1071  O     0.70127   0.58332   0.72702   0.00000  Uiso   1.00
O1072  O     0.58332   0.79874   0.27298   0.00000  Uiso   1.00
O1073  O     0.91668   0.70127   0.72702   0.00000  Uiso   1.00
O1074  O     0.70127   0.91668   0.72702   0.00000  Uiso   1.00
O1075  O     0.50000   0.75000   0.25000   0.00000  Uiso   1.00
O1076  O     0.79874   0.58332   0.27298   0.00000  Uiso   1.00
O1077  O     0.91668   0.79874   0.72702   0.00000  Uiso   1.00
O1078  O     0.58332   0.70127   0.27298   0.00000  Uiso   1.00
O1079  O     0.79874   0.58332   0.72702   0.00000  Uiso   1.00
O1080  O     0.70127   0.91668   0.27298   0.00000  Uiso   1.00
O1081  O     0.58332   0.70127   0.72702   0.00000  Uiso   1.00
O1082  O     0.91668   0.79874   0.27298   0.00000  Uiso   1.00
O1083  O     0.95127   0.83332   0.77298   0.00000  Uiso   1.00
O1084  O     0.54874   0.66668   0.22702   0.00000  Uiso   1.00
O1085  O     0.66668   0.95127   0.77298   0.00000  Uiso   1.00
O1086  O     0.50000   0.75000   0.75000   0.00000  Uiso   1.00
O1087  O     0.83332   0.54874   0.22702   0.00000  Uiso   1.00
O1088  O     0.54874   0.66668   0.77298   0.00000  Uiso   1.00
O1089  O     0.95127   0.83332   0.22702   0.00000  Uiso   1.00
O1090  O     0.83332   0.54874   0.77298   0.00000  Uiso   1.00
O1091  O     0.66668   0.95127   0.22702   0.00000  Uiso   1.00
O1092  O     0.95127   0.66668   0.22702   0.00000  Uiso   1.00
O1093  O     0.54874   0.83332   0.77298   0.00000  Uiso   1.00
O1094  O     0.66668   0.54874   0.22702   0.00000  Uiso   1.00
O1095  O     0.83332   0.95127   0.77298   0.00000  Uiso   1.00
O1096  O     0.54874   0.83332   0.22702   0.00000  Uiso   1.00
O1097  O     0.75000   0.96539   0.33749   0.00000  Uiso   1.00
O1098  O     0.95127   0.66668   0.77298   0.00000  Uiso   1.00
O1099  O     0.83332   0.95127   0.22702   0.00000  Uiso   1.00
O1100  O     0.66668   0.54874   0.77298   0.00000  Uiso   1.00
O1101  O     0.92035   0.66600   0.46122   0.00000  Uiso   1.00
O1102  O     0.57255   0.84081   0.53789   0.00000  Uiso   1.00
O1103  O     0.84081   0.57255   0.46210   0.00000  Uiso   1.00
O1104  O     0.66600   0.92035   0.53878   0.00000  Uiso   1.00
O1105  O     0.57965   0.83400   0.46122   0.00000  Uiso   1.00
O1106  O     0.92745   0.65919   0.53789   0.00000  Uiso   1.00
O1107  O     0.65919   0.92745   0.46210   0.00000  Uiso   1.00
O1108  O     0.75000   0.53462   0.66251   0.00000  Uiso   1.00
O1109  O     0.83400   0.57965   0.53878   0.00000  Uiso   1.00
O1110  O     0.82255   0.90919   0.96210   0.00000  Uiso   1.00
O1111  O     0.67035   0.58400   0.03878   0.00000  Uiso   1.00
O1112  O     0.58400   0.67035   0.96122   0.00000  Uiso   1.00
O1113  O     0.90919   0.82255   0.03790   0.00000  Uiso   1.00
O1114  O     0.67745   0.59081   0.96210   0.00000  Uiso   1.00
O1115  O     0.82965   0.91600   0.03878   0.00000  Uiso   1.00
O1116  O     0.91600   0.82965   0.96122   0.00000  Uiso   1.00
O1117  O     0.59081   0.67745   0.03789   0.00000  Uiso   1.00
O1118  O     0.53462   0.75000   0.33749   0.00000  Uiso   1.00
O1119  O     0.96539   0.75000   0.66251   0.00000  Uiso   1.00
O1120  O     0.75000   0.53462   0.33749   0.00000  Uiso   1.00
Zn1121 Zn    0.70053   0.50000   0.21730   0.00000  Uiso   1.00
Zn1122 Zn    0.54948   0.75000   0.28270   0.00000  Uiso   1.00
Zn1123 Zn    0.75000   0.95053   0.71730   0.00000  Uiso   1.00
Zn1124 Zn    0.75000   0.54948   0.28270   0.00000  Uiso   1.00
Zn1125 Zn    0.54948   0.75000   0.71730   0.00000  Uiso   1.00
Zn1126 Zn    0.95053   0.75000   0.28270   0.00000  Uiso   1.00
Zn1127 Zn    0.75000   0.54948   0.71730   0.00000  Uiso   1.00
Zn1128 Zn    0.75000   0.95053   0.28270   0.00000  Uiso   1.00
Zn1129 Zn    0.79948   0.50000   0.78270   0.00000  Uiso   1.00
Zn1130 Zn    0.50000   0.70053   0.21730   0.00000  Uiso   1.00
Zn1131 Zn    0.50000   0.79948   0.78270   0.00000  Uiso   1.00
Zn1132 Zn    0.79948   0.50000   0.21730   0.00000  Uiso   1.00
Zn1133 Zn    0.70053   0.50000   0.78270   0.00000  Uiso   1.00
Zn1134 Zn    0.50000   0.79948   0.21730   0.00000  Uiso   1.00
Zn1135 Zn    0.50000   0.70053   0.78270   0.00000  Uiso   1.00
Zn1136 Zn    0.95053   0.75000   0.71730   0.00000  Uiso   1.00
loop_
_geom_bond_atom_site_label_1
_geom_bond_atom_site_label_2
_geom_bond_distance
_geom_bond_site_symmetry_2
_ccdc_geom_bond_type
C1     C92     1.472   .     S
C1     O813    1.270   1_545 A
C1     O268    1.270   .     S
C2     C68     1.421   .     S
C2     O243    1.277   .     A
C2     O215    1.277   .     A
C3     C111    1.421   .     A
C3     O261    1.385   .     S
C3     C6      1.396   1_554 S
C4     C112    1.421   .     A
C4     O262    1.385   .     S
C4     C135    1.396   1_556 S
C5     C113    1.415   .     A
C5     O263    1.384   .     S
C5     C134    1.396   1_554 S
C6     C114    1.415   .     A
C6     O264    1.384   .     S
C6     C3      1.396   1_556 S
C7     O265    1.385   .     S
C7     C116    1.421   .     A
C7     C136    1.396   1_554 S
C8     C73     1.455   .     S
C8     N185    1.158   .     T
C9     N193    1.158   .     T
C9     C74     1.455   .     S
C10    N194    1.158   .     T
C10    C75     1.455   .     S
C11    N195    1.158   .     T
C11    C76     1.455   .     S
C12    C77     1.455   .     S
C12    N196    1.158   .     T
C13    O216    1.277   .     A
C13    O240    1.277   .     A
C13    C67     1.421   .     S
C14    N197    1.158   .     T
C14    C78     1.455   .     S
C15    C79     1.455   .     S
C15    N198    1.158   .     T
C16    C80     1.455   .     S
C16    N199    1.158   .     T
C17    N200    1.158   .     T
C17    C81     1.455   .     S
C18    C83     1.455   .     S
C18    N186    1.158   .     T
C19    N187    1.158   .     T
C19    C84     1.455   .     S
C20    C85     1.455   .     S
C20    N188    1.158   .     T
C21    N189    1.158   .     T
C21    C86     1.455   .     S
C22    N190    1.158   .     T
C22    C87     1.455   .     S
C23    N191    1.158   .     T
C23    C88     1.455   .     S
C24    O217    1.277   .     A
C24    O241    1.277   .     A
C24    C66     1.421   .     S
C25    C89     1.455   .     S
C25    N192    1.158   .     T
C26    H137    1.113   .     S
C26    H159    1.109   .     S
C26    O249    1.411   .     S
C26    H148    1.113   .     S
C27    H180    1.112   .     S
C27    H170    1.114   .     S
C27    H181    1.109   .     S
C27    O250    1.412   .     S
C28    H183    1.112   .     S
C28    H182    1.114   .     S
C28    O251    1.412   .     S
C28    H184    1.109   .     S
C29    H138    1.113   .     S
C29    H139    1.113   .     S
C29    O252    1.411   .     S
C29    H140    1.109   .     S
C30    H143    1.109   .     S
C30    O253    1.411   .     S
C30    H141    1.113   .     S
C30    H142    1.113   .     S
C31    H146    1.109   .     S
C31    O254    1.412   .     S
C31    H144    1.114   .     S
C31    H145    1.112   .     S
C32    H149    1.112   .     S
C32    H147    1.114   .     S
C32    H150    1.109   .     S
C32    O255    1.412   .     S
C33    H151    1.113   .     S
C33    H152    1.113   .     S
C33    O257    1.411   .     S
C33    H153    1.109   .     S
C34    H155    1.112   .     S
C34    H156    1.109   .     S
C34    O258    1.412   .     S
C34    H154    1.114   .     S
C35    O218    1.277   .     A
C35    C65     1.421   .     S
C35    O247    1.277   .     A
C36    H157    1.113   .     S
C36    H158    1.113   .     S
C36    O259    1.411   .     S
C36    H160    1.109   .     S
C37    H163    1.109   .     S
C37    O260    1.411   .     S
C37    H161    1.113   .     S
C37    H162    1.113   .     S
C38    H165    1.112   .     S
C38    O261    1.412   .     S
C38    H166    1.109   .     S
C38    H164    1.114   .     S
C39    H168    1.112   .     S
C39    O262    1.412   .     S
C39    H167    1.114   .     S
C39    H169    1.109   .     S
C40    H173    1.109   .     S
C40    O263    1.411   .     S
C40    H172    1.113   .     S
C40    H171    1.113   .     S
C41    H174    1.113   .     S
C41    O264    1.411   .     S
C41    H176    1.109   .     S
C41    H175    1.113   .     S
C42    H177    1.114   .     S
C42    H179    1.109   .     S
C42    O265    1.412   .     S
C42    H178    1.112   .     S
C43    C64     1.421   .     S
C43    O248    1.277   .     A
C43    O219    1.277   .     A
C44    O220    1.277   .     A
C44    O244    1.277   .     A
C44    C72     1.421   .     S
C45    O246    1.277   .     A
C45    O221    1.277   .     A
C45    C70     1.421   .     S
C46    C61     1.421   .     S
C46    O233    1.277   .     A
C46    O222    1.277   .     A
C47    O224    1.277   .     A
C47    O235    1.277   .     A
C47    C59     1.421   .     S
C48    C58     1.421   .     S
C48    O225    1.277   .     A
C48    O231    1.277   .     A
C49    O770    1.269   1_545 A
C49    C94     1.467   .     S
C49    O256    1.269   .     S
C50    O232    1.277   .     A
C50    O226    1.277   .     A
C50    C57     1.421   .     S
C51    C56     1.421   .     S
C51    O227    1.277   .     A
C51    O238    1.277   .     A
C52    O239    1.277   .     A
C52    O228    1.277   .     A
C52    C55     1.421   .     S
C53    O229    1.277   .     A
C53    O236    1.277   .     A
C53    C63     1.421   .     S
C54    C62     1.421   .     S
C54    O237    1.277   .     A
C54    O230    1.277   .     A
C55    C72     1.197   .     T
C56    C70     1.197   .     T
C57    C69     1.197   .     T
C58    C68     1.197   .     T
C59    C67     1.197   .     T
C60    O487    1.269   1_455 A
C60    C90     1.467   .     S
C60    O266    1.269   .     S
C61    C66     1.197   .     T
C62    C65     1.197   .     T
C63    C64     1.197   .     T
C69    C126    1.421   .     S
C71    O204    1.270   .     A
C71    C91     1.472   .     S
C71    O551    1.270   1_455 S
C73    C103    1.416   .     A
C73    C90     1.403   .     S
C74    C375    1.406   .     A
C74    C105    1.419   .     A
C75    C660    1.406   .     A
C75    C106    1.419   .     A
C76    C94     1.403   .     A
C76    C107    1.416   .     A
C77    C374    1.403   .     A
C77    C99     1.416   .     A
C78    C100    1.419   .     A
C78    C91     1.406   .     S
C79    C101    1.419   .     A
C79    C92     1.406   .     S
C80    C102    1.416   .     A
C80    C662    1.403   .     S
C81    C112    1.419   .     A
C81    C95     1.406   .     S
C82    C97     1.467   .     S
C82    O205    1.269   .     S
C82    O209    1.269   .     S
C83    C113    1.416   .     A
C83    C664    1.403   .     A
C84    C381    1.403   .     A
C84    C114    1.416   .     A
C85    C116    1.419   .     A
C85    C98     1.406   .     S
C86    C108    1.419   .     A
C86    C663    1.406   .     A
C87    C109    1.416   .     A
C87    C96     1.403   .     S
C88    C110    1.416   .     A
C88    C97     1.403   .     S
C89    C111    1.419   .     A
C89    C382    1.406   .     A
C90    C361    1.403   1_455 A
C91    C358    1.406   1_455 A
C92    C643    1.406   1_545 A
C93    O206    1.270   .     A
C93    C98     1.472   .     S
C93    O210    1.270   .     S
C94    C648    1.403   1_545 S
C95    C654    1.406   1_545 A
C95    C104    1.472   .     S
C96    C115    1.467   .     S
C96    C651    1.403   1_545 A
C97    C368    1.403   1_455 A
C98    C373    1.406   1_455 A
C99    C125    1.415   .     A
C99    C401    1.424   .     A
C100   C127    1.421   .     A
C100   C118    1.428   .     S
C101   C128    1.421   .     A
C101   C119    1.428   .     S
C102   C129    1.415   .     A
C102   C688    1.424   .     A
C103   C130    1.415   .     A
C103   C117    1.424   .     S
C104   O207    1.270   .     A
C104   O211    1.270   .     A
C105   C131    1.421   .     A
C105   C402    1.428   .     A
C106   C687    1.428   .     A
C106   C132    1.421   .     A
C107   C133    1.415   .     A
C107   C120    1.424   .     S
C108   C689    1.428   .     A
C108   C134    1.421   .     A
C109   C135    1.415   .     A
C109   C122    1.424   .     S
C110   C136    1.415   .     A
C110   C123    1.424   .     S
C111   C408    1.428   .     A
C112   C121    1.428   .     S
C113   C690    1.424   .     A
C114   C407    1.424   .     A
C115   O208    1.269   .     S
C115   O213    1.269   .     S
C116   C124    1.428   .     S
C117   C383    1.424   1_455 A
C117   C118    1.424   .     A
C118   C389    1.428   1_455 A
C119   C674    1.428   1_545 A
C119   C120    1.424   .     A
C120   C670    1.424   1_545 A
C121   C676    1.428   1_545 A
C121   C122    1.424   1_556 S
C122   C681    1.424   1_545 A
C122   C121    1.424   1_554 S
C123   C398    1.424   1_455 A
C123   C124    1.424   1_556 S
C124   C395    1.428   1_455 A
C124   C123    1.424   1_554 S
C125   C131    1.396   .     A
C125   O249    1.384   .     S
C126   O214    1.277   .     A
C126   O242    1.277   .     A
C127   O250    1.385   .     S
C127   C130    1.396   .     A
C128   C133    1.396   .     A
C128   O251    1.385   .     S
C129   O252    1.384   .     S
C129   C132    1.396   .     A
C130   O253    1.384   .     S
C131   O254    1.385   .     S
C132   O255    1.385   .     S
C133   O257    1.384   .     S
C134   O258    1.385   .     S
C134   C5      1.396   1_556 S
C135   O259    1.384   .     S
C135   C4      1.396   1_554 S
C136   O260    1.384   .     S
C136   C7      1.396   1_556 S
O201   Zn280   1.937   .     S
O201   Zn272   1.937   .     S
O201   Zn269   1.937   .     S
O201   Zn844   1.937   1_545 S
O202   C617    1.269   .     A
O202   Zn271   1.958   .     S
O203   Zn274   1.958   .     S
O203   C344    1.269   .     A
O204   Zn273   1.958   .     S
O205   Zn283   1.958   .     S
O206   Zn282   1.958   .     S
O207   Zn277   1.958   .     S
O208   Zn269   1.958   .     S
O209   Zn279   1.958   .     S
O210   Zn278   1.958   .     S
O211   Zn281   1.958   .     S
O212   Zn277   1.937   .     S
O212   Zn281   1.937   .     S
O212   Zn275   1.937   .     S
O212   Zn839   1.937   1_545 S
O213   Zn280   1.958   .     S
O214   Zn272   1.913   .     S
O215   Zn271   1.913   .     S
O216   Zn274   1.913   .     S
O217   Zn273   1.913   .     S
O218   Zn276   1.913   .     S
O219   Zn275   1.913   .     S
O220   Zn270   1.913   .     S
O221   Zn284   1.913   .     S
O222   Zn271   1.913   .     S
O223   Zn278   1.937   .     S
O223   Zn270   1.937   .     S
O223   Zn558   1.937   1_455 S
O223   Zn282   1.937   .     S
O224   Zn272   1.913   .     S
O225   Zn284   1.913   .     S
O226   Zn270   1.913   .     S
O227   Zn275   1.913   .     S
O228   Zn276   1.913   .     S
O229   Zn273   1.913   .     S
O230   Zn274   1.913   .     S
O231   Zn563   1.913   .     S
O232   Zn278   1.913   .     S
O233   Zn849   1.913   .     S
O234   Zn568   1.937   1_455 S
O234   Zn283   1.937   .     S
O234   Zn273   1.937   .     S
O234   Zn279   1.937   .     S
O235   Zn280   1.913   .     S
O236   Zn283   1.913   .     S
O237   Zn566   1.913   .     S
O238   Zn277   1.913   .     S
O239   Zn837   1.913   .     S
O240   Zn562   1.913   .     S
O241   Zn279   1.913   .     S
O242   Zn269   1.913   .     S
O243   Zn845   1.913   .     S
O244   Zn282   1.913   .     S
O245   Zn276   1.958   .     S
O245   C569    1.270   .     A
O246   Zn567   1.913   .     S
O247   Zn848   1.913   .     S
O248   Zn281   1.913   .     S
O256   Zn275   1.958   .     S
O266   Zn270   1.958   .     S
O267   Zn284   1.958   .     S
O267   C355    1.270   .     S
O268   Zn272   1.958   .     S
Zn269  O807    1.913   1_545 S
Zn271  O780    1.937   .     S
Zn274  O507    1.937   .     S
Zn276  O769    1.937   .     S
Zn277  O811    1.913   1_545 S
Zn278  O524    1.913   1_455 S
Zn279  O515    1.913   1_455 S
Zn280  O815    1.913   1_545 S
Zn281  O801    1.913   1_545 S
Zn282  O521    1.913   1_455 S
Zn283  O530    1.913   1_455 S
Zn284  O518    1.937   .     S
C285   C376    1.472   .     S
C285   O1097   1.270   1_545 A
C285   O552    1.270   .     S
C286   C352    1.421   .     S
C286   O527    1.277   .     A
C286   O499    1.277   .     A
C287   C395    1.421   .     A
C287   O545    1.385   .     S
C287   C290    1.396   1_554 S
C288   C396    1.421   .     A
C288   O546    1.385   .     S
C288   C419    1.396   1_556 S
C289   C397    1.415   .     A
C289   O547    1.384   .     S
C289   C418    1.396   1_554 S
C290   C398    1.415   .     A
C290   O548    1.384   .     S
C290   C287    1.396   1_556 S
C291   O549    1.385   .     S
C291   C400    1.421   .     A
C291   C420    1.396   1_554 S
C292   C357    1.455   .     S
C292   N469    1.158   .     T
C293   N477    1.158   .     T
C293   C358    1.455   .     S
C294   N478    1.158   .     T
C294   C359    1.455   .     S
C295   N479    1.158   .     T
C295   C360    1.455   .     S
C296   C361    1.455   .     S
C296   N480    1.158   .     T
C297   O500    1.277   .     A
C297   O524    1.277   .     A
C297   C351    1.421   .     S
C298   N481    1.158   .     T
C298   C362    1.455   .     S
C299   C363    1.455   .     S
C299   N482    1.158   .     T
C300   C364    1.455   .     S
C300   N483    1.158   .     T
C301   N484    1.158   .     T
C301   C365    1.455   .     S
C302   C367    1.455   .     S
C302   N470    1.158   .     T
C303   N471    1.158   .     T
C303   C368    1.455   .     S
C304   C369    1.455   .     S
C304   N472    1.158   .     T
C305   N473    1.158   .     T
C305   C370    1.455   .     S
C306   N474    1.158   .     T
C306   C371    1.455   .     S
C307   N475    1.158   .     T
C307   C372    1.455   .     S
C308   O501    1.277   .     A
C308   O525    1.277   .     A
C308   C350    1.421   .     S
C309   C373    1.455   .     S
C309   N476    1.158   .     T
C310   H421    1.113   .     S
C310   H443    1.109   .     S
C310   O533    1.411   .     S
C310   H432    1.113   .     S
C311   H464    1.112   .     S
C311   H454    1.114   .     S
C311   H465    1.109   .     S
C311   O534    1.412   .     S
C312   H467    1.112   .     S
C312   H466    1.114   .     S
C312   O535    1.412   .     S
C312   H468    1.109   .     S
C313   H422    1.113   .     S
C313   H423    1.113   .     S
C313   O536    1.411   .     S
C313   H424    1.109   .     S
C314   H427    1.109   .     S
C314   O537    1.411   .     S
C314   H425    1.113   .     S
C314   H426    1.113   .     S
C315   H430    1.109   .     S
C315   O538    1.412   .     S
C315   H428    1.114   .     S
C315   H429    1.112   .     S
C316   H433    1.112   .     S
C316   H431    1.114   .     S
C316   H434    1.109   .     S
C316   O539    1.412   .     S
C317   H435    1.113   .     S
C317   H436    1.113   .     S
C317   O541    1.411   .     S
C317   H437    1.109   .     S
C318   H439    1.112   .     S
C318   H440    1.109   .     S
C318   O542    1.412   .     S
C318   H438    1.114   .     S
C319   O502    1.277   .     A
C319   C349    1.421   .     S
C319   O531    1.277   .     A
C320   H441    1.113   .     S
C320   H442    1.113   .     S
C320   O543    1.411   .     S
C320   H444    1.109   .     S
C321   H447    1.109   .     S
C321   O544    1.411   .     S
C321   H445    1.113   .     S
C321   H446    1.113   .     S
C322   H449    1.112   .     S
C322   O545    1.412   .     S
C322   H450    1.109   .     S
C322   H448    1.114   .     S
C323   H452    1.112   .     S
C323   O546    1.412   .     S
C323   H451    1.114   .     S
C323   H453    1.109   .     S
C324   H457    1.109   .     S
C324   O547    1.411   .     S
C324   H456    1.113   .     S
C324   H455    1.113   .     S
C325   H458    1.113   .     S
C325   O548    1.411   .     S
C325   H460    1.109   .     S
C325   H459    1.113   .     S
C326   H461    1.114   .     S
C326   H463    1.109   .     S
C326   O549    1.412   .     S
C326   H462    1.112   .     S
C327   C348    1.421   .     S
C327   O532    1.277   .     A
C327   O503    1.277   .     A
C328   O504    1.277   .     A
C328   O528    1.277   .     A
C328   C356    1.421   .     S
C329   O530    1.277   .     A
C329   O505    1.277   .     A
C329   C354    1.421   .     S
C330   C345    1.421   .     S
C330   O517    1.277   .     A
C330   O506    1.277   .     A
C331   O508    1.277   .     A
C331   O519    1.277   .     A
C331   C343    1.421   .     S
C332   C342    1.421   .     S
C332   O509    1.277   .     A
C332   O515    1.277   .     A
C333   O1054   1.269   1_545 A
C333   C378    1.467   .     S
C333   O540    1.269   .     S
C334   O516    1.277   .     A
C334   O510    1.277   .     A
C334   C341    1.421   .     S
C335   C340    1.421   .     S
C335   O511    1.277   .     A
C335   O522    1.277   .     A
C336   O523    1.277   .     A
C336   O512    1.277   .     A
C336   C339    1.421   .     S
C337   O513    1.277   .     A
C337   O520    1.277   .     A
C337   C347    1.421   .     S
C338   C346    1.421   .     S
C338   O521    1.277   .     A
C338   O514    1.277   .     A
C339   C356    1.197   .     T
C340   C354    1.197   .     T
C341   C353    1.197   .     T
C342   C352    1.197   .     T
C343   C351    1.197   .     T
C344   C374    1.467   .     S
C344   O550    1.269   .     S
C345   C350    1.197   .     T
C346   C349    1.197   .     T
C347   C348    1.197   .     T
C353   C410    1.421   .     S
C355   O488    1.270   .     A
C355   C375    1.472   .     S
C357   C387    1.416   .     A
C357   C374    1.403   .     S
C358   C91     1.406   1_655 A
C358   C389    1.419   .     A
C359   C944    1.406   .     A
C359   C390    1.419   .     A
C360   C378    1.403   .     A
C360   C391    1.416   .     A
C361   C90     1.403   1_655 A
C361   C383    1.416   .     A
C362   C384    1.419   .     A
C362   C375    1.406   .     S
C363   C385    1.419   .     A
C363   C376    1.406   .     S
C364   C386    1.416   .     A
C364   C946    1.403   .     S
C365   C396    1.419   .     A
C365   C379    1.406   .     S
C366   C381    1.467   .     S
C366   O489    1.269   .     S
C366   O493    1.269   .     S
C367   C397    1.416   .     A
C367   C948    1.403   .     A
C368   C97     1.403   1_655 A
C368   C398    1.416   .     A
C369   C400    1.419   .     A
C369   C382    1.406   .     S
C370   C392    1.419   .     A
C370   C947    1.406   .     A
C371   C393    1.416   .     A
C371   C380    1.403   .     S
C372   C394    1.416   .     A
C372   C381    1.403   .     S
C373   C395    1.419   .     A
C373   C98     1.406   1_655 A
C376   C927    1.406   1_545 A
C377   O490    1.270   .     A
C377   C382    1.472   .     S
C377   O494    1.270   .     S
C378   C932    1.403   1_545 S
C379   C938    1.406   1_545 A
C379   C388    1.472   .     S
C380   C399    1.467   .     S
C380   C935    1.403   1_545 A
C383   C409    1.415   .     A
C383   C117    1.424   1_655 A
C384   C411    1.421   .     A
C384   C402    1.428   .     S
C385   C412    1.421   .     A
C385   C403    1.428   .     S
C386   C413    1.415   .     A
C386   C972    1.424   .     A
C387   C414    1.415   .     A
C387   C401    1.424   .     S
C388   O491    1.270   .     A
C388   O495    1.270   .     A
C389   C415    1.421   .     A
C389   C118    1.428   1_655 A
C390   C971    1.428   .     A
C390   C416    1.421   .     A
C391   C417    1.415   .     A
C391   C404    1.424   .     S
C392   C973    1.428   .     A
C392   C418    1.421   .     A
C393   C419    1.415   .     A
C393   C406    1.424   .     S
C394   C420    1.415   .     A
C394   C407    1.424   .     S
C395   C124    1.428   1_655 A
C396   C405    1.428   .     S
C397   C974    1.424   .     A
C398   C123    1.424   1_655 A
C399   O492    1.269   .     S
C399   O497    1.269   .     S
C400   C408    1.428   .     S
C401   C402    1.424   .     A
C403   C958    1.428   1_545 A
C403   C404    1.424   .     A
C404   C954    1.424   1_545 A
C405   C960    1.428   1_545 A
C405   C406    1.424   1_556 S
C406   C965    1.424   1_545 A
C406   C405    1.424   1_554 S
C407   C408    1.424   1_556 S
C408   C407    1.424   1_554 S
C409   C415    1.396   .     A
C409   O533    1.384   .     S
C410   O498    1.277   .     A
C410   O526    1.277   .     A
C411   O534    1.385   .     S
C411   C414    1.396   .     A
C412   C417    1.396   .     A
C412   O535    1.385   .     S
C413   O536    1.384   .     S
C413   C416    1.396   .     A
C414   O537    1.384   .     S
C415   O538    1.385   .     S
C416   O539    1.385   .     S
C417   O541    1.384   .     S
C418   O542    1.385   .     S
C418   C289    1.396   1_556 S
C419   O543    1.384   .     S
C419   C288    1.396   1_554 S
C420   O544    1.384   .     S
C420   C291    1.396   1_556 S
O485   Zn564   1.937   .     S
O485   Zn556   1.937   .     S
O485   Zn553   1.937   .     S
O485   Zn1128  1.937   1_545 S
O486   C901    1.269   .     A
O486   Zn555   1.958   .     S
O487   Zn558   1.958   .     S
O487   C60     1.269   1_655 A
O488   Zn557   1.958   .     S
O489   Zn567   1.958   .     S
O490   Zn566   1.958   .     S
O491   Zn561   1.958   .     S
O492   Zn553   1.958   .     S
O493   Zn563   1.958   .     S
O494   Zn562   1.958   .     S
O495   Zn565   1.958   .     S
O496   Zn561   1.937   .     S
O496   Zn565   1.937   .     S
O496   Zn559   1.937   .     S
O496   Zn1123  1.937   1_545 S
O497   Zn564   1.958   .     S
O498   Zn556   1.913   .     S
O499   Zn555   1.913   .     S
O500   Zn558   1.913   .     S
O501   Zn557   1.913   .     S
O502   Zn560   1.913   .     S
O503   Zn559   1.913   .     S
O504   Zn554   1.913   .     S
O505   Zn568   1.913   .     S
O506   Zn555   1.913   .     S
O507   Zn562   1.937   .     S
O507   Zn554   1.937   .     S
O507   Zn566   1.937   .     S
O508   Zn556   1.913   .     S
O509   Zn568   1.913   .     S
O510   Zn554   1.913   .     S
O511   Zn559   1.913   .     S
O512   Zn560   1.913   .     S
O513   Zn557   1.913   .     S
O514   Zn558   1.913   .     S
O515   Zn279   1.913   1_655 S
O516   Zn562   1.913   .     S
O517   Zn1133  1.913   .     S
O518   Zn567   1.937   .     S
O518   Zn557   1.937   .     S
O518   Zn563   1.937   .     S
O519   Zn564   1.913   .     S
O520   Zn567   1.913   .     S
O521   Zn282   1.913   1_655 S
O522   Zn561   1.913   .     S
O523   Zn1121  1.913   .     S
O524   Zn278   1.913   1_655 S
O525   Zn563   1.913   .     S
O526   Zn553   1.913   .     S
O527   Zn1129  1.913   .     S
O528   Zn566   1.913   .     S
O529   Zn560   1.958   .     S
O529   C853    1.270   .     A
O530   Zn283   1.913   1_655 S
O531   Zn1132  1.913   .     S
O532   Zn565   1.913   .     S
O540   Zn559   1.958   .     S
O550   Zn554   1.958   .     S
O551   Zn568   1.958   .     S
O551   C71     1.270   1_655 S
O552   Zn556   1.958   .     S
Zn553  O1091   1.913   1_545 S
Zn555  O1064   1.937   .     S
Zn558  O223    1.937   1_655 S
Zn560  O1053   1.937   .     S
Zn561  O1095   1.913   1_545 S
Zn564  O1099   1.913   1_545 S
Zn565  O1085   1.913   1_545 S
Zn568  O234    1.937   1_655 S
C569   C660    1.472   .     S
C569   O836    1.270   .     S
C570   C636    1.421   .     S
C570   O811    1.277   .     A
C570   O783    1.277   .     A
C571   C679    1.421   .     A
C571   O829    1.385   .     S
C571   C574    1.396   1_554 S
C572   C680    1.421   .     A
C572   O830    1.385   .     S
C572   C703    1.396   1_556 S
C573   C681    1.415   .     A
C573   O831    1.384   .     S
C573   C702    1.396   1_554 S
C574   C682    1.415   .     A
C574   O832    1.384   .     S
C574   C571    1.396   1_556 S
C575   O833    1.385   .     S
C575   C684    1.421   .     A
C575   C704    1.396   1_554 S
C576   C641    1.455   .     S
C576   N753    1.158   .     T
C577   N761    1.158   .     T
C577   C642    1.455   .     S
C578   N762    1.158   .     T
C578   C643    1.455   .     S
C579   N763    1.158   .     T
C579   C644    1.455   .     S
C580   C645    1.455   .     S
C580   N764    1.158   .     T
C581   O784    1.277   .     A
C581   O808    1.277   .     A
C581   C635    1.421   .     S
C582   N765    1.158   .     T
C582   C646    1.455   .     S
C583   C647    1.455   .     S
C583   N766    1.158   .     T
C584   C648    1.455   .     S
C584   N767    1.158   .     T
C585   N768    1.158   .     T
C585   C649    1.455   .     S
C586   C651    1.455   .     S
C586   N754    1.158   .     T
C587   N755    1.158   .     T
C587   C652    1.455   .     S
C588   C653    1.455   .     S
C588   N756    1.158   .     T
C589   N757    1.158   .     T
C589   C654    1.455   .     S
C590   N758    1.158   .     T
C590   C655    1.455   .     S
C591   N759    1.158   .     T
C591   C656    1.455   .     S
C592   O785    1.277   .     A
C592   O809    1.277   .     A
C592   C634    1.421   .     S
C593   C657    1.455   .     S
C593   N760    1.158   .     T
C594   H705    1.113   .     S
C594   H727    1.109   .     S
C594   O817    1.411   .     S
C594   H716    1.113   .     S
C595   H748    1.112   .     S
C595   H738    1.114   .     S
C595   H749    1.109   .     S
C595   O818    1.412   .     S
C596   H751    1.112   .     S
C596   H750    1.114   .     S
C596   O819    1.412   .     S
C596   H752    1.109   .     S
C597   H706    1.113   .     S
C597   H707    1.113   .     S
C597   O820    1.411   .     S
C597   H708    1.109   .     S
C598   H711    1.109   .     S
C598   O821    1.411   .     S
C598   H709    1.113   .     S
C598   H710    1.113   .     S
C599   H714    1.109   .     S
C599   O822    1.412   .     S
C599   H712    1.114   .     S
C599   H713    1.112   .     S
C600   H717    1.112   .     S
C600   H715    1.114   .     S
C600   H718    1.109   .     S
C600   O823    1.412   .     S
C601   H719    1.113   .     S
C601   H720    1.113   .     S
C601   O825    1.411   .     S
C601   H721    1.109   .     S
C602   H723    1.112   .     S
C602   H724    1.109   .     S
C602   O826    1.412   .     S
C602   H722    1.114   .     S
C603   O786    1.277   .     A
C603   C633    1.421   .     S
C603   O815    1.277   .     A
C604   H725    1.113   .     S
C604   H726    1.113   .     S
C604   O827    1.411   .     S
C604   H728    1.109   .     S
C605   H731    1.109   .     S
C605   O828    1.411   .     S
C605   H729    1.113   .     S
C605   H730    1.113   .     S
C606   H733    1.112   .     S
C606   O829    1.412   .     S
C606   H734    1.109   .     S
C606   H732    1.114   .     S
C607   H736    1.112   .     S
C607   O830    1.412   .     S
C607   H735    1.114   .     S
C607   H737    1.109   .     S
C608   H741    1.109   .     S
C608   O831    1.411   .     S
C608   H740    1.113   .     S
C608   H739    1.113   .     S
C609   H742    1.113   .     S
C609   O832    1.411   .     S
C609   H744    1.109   .     S
C609   H743    1.113   .     S
C610   H745    1.114   .     S
C610   H747    1.109   .     S
C610   O833    1.412   .     S
C610   H746    1.112   .     S
C611   C632    1.421   .     S
C611   O816    1.277   .     A
C611   O787    1.277   .     A
C612   O788    1.277   .     A
C612   O812    1.277   .     A
C612   C640    1.421   .     S
C613   O814    1.277   .     A
C613   O789    1.277   .     A
C613   C638    1.421   .     S
C614   C629    1.421   .     S
C614   O801    1.277   .     A
C614   O790    1.277   .     A
C615   O792    1.277   .     A
C615   O803    1.277   .     A
C615   C627    1.421   .     S
C616   C626    1.421   .     S
C616   O793    1.277   .     A
C616   O799    1.277   .     A
C617   C662    1.467   .     S
C617   O824    1.269   .     S
C618   O800    1.277   .     A
C618   O794    1.277   .     A
C618   C625    1.421   .     S
C619   C624    1.421   .     S
C619   O795    1.277   .     A
C619   O806    1.277   .     A
C620   O807    1.277   .     A
C620   O796    1.277   .     A
C620   C623    1.421   .     S
C621   O797    1.277   .     A
C621   O804    1.277   .     A
C621   C631    1.421   .     S
C622   C630    1.421   .     S
C622   O805    1.277   .     A
C622   O798    1.277   .     A
C623   C640    1.197   .     T
C624   C638    1.197   .     T
C625   C637    1.197   .     T
C626   C636    1.197   .     T
C627   C635    1.197   .     T
C628   O1055   1.269   1_455 A
C628   C658    1.467   .     S
C628   O834    1.269   .     S
C629   C634    1.197   .     T
C630   C633    1.197   .     T
C631   C632    1.197   .     T
C637   C694    1.421   .     S
C639   O772    1.270   .     A
C639   C659    1.472   .     S
C639   O1119   1.270   1_455 S
C641   C671    1.416   .     A
C641   C658    1.403   .     S
C642   C943    1.406   .     A
C642   C673    1.419   .     A
C643   C92     1.406   1_565 A
C643   C674    1.419   .     A
C644   C662    1.403   .     A
C644   C675    1.416   .     A
C645   C942    1.403   .     A
C645   C667    1.416   .     A
C646   C668    1.419   .     A
C646   C659    1.406   .     S
C647   C669    1.419   .     A
C647   C660    1.406   .     S
C648   C670    1.416   .     A
C648   C94     1.403   1_565 S
C649   C680    1.419   .     A
C649   C663    1.406   .     S
C650   C665    1.467   .     S
C650   O773    1.269   .     S
C650   O777    1.269   .     S
C651   C681    1.416   .     A
C651   C96     1.403   1_565 A
C652   C949    1.403   .     A
C652   C682    1.416   .     A
C653   C684    1.419   .     A
C653   C666    1.406   .     S
C654   C676    1.419   .     A
C654   C95     1.406   1_565 A
C655   C677    1.416   .     A
C655   C664    1.403   .     S
C656   C678    1.416   .     A
C656   C665    1.403   .     S
C657   C679    1.419   .     A
C657   C950    1.406   .     A
C658   C929    1.403   1_455 A
C659   C926    1.406   1_455 A
C661   O774    1.270   .     A
C661   C666    1.472   .     S
C661   O778    1.270   .     S
C663   C672    1.472   .     S
C664   C683    1.467   .     S
C665   C936    1.403   1_455 A
C666   C941    1.406   1_455 A
C667   C693    1.415   .     A
C667   C969    1.424   .     A
C668   C695    1.421   .     A
C668   C686    1.428   .     S
C669   C696    1.421   .     A
C669   C687    1.428   .     S
C670   C697    1.415   .     A
C670   C120    1.424   1_565 A
C671   C698    1.415   .     A
C671   C685    1.424   .     S
C672   O775    1.270   .     A
C672   O779    1.270   .     A
C673   C699    1.421   .     A
C673   C970    1.428   .     A
C674   C119    1.428   1_565 A
C674   C700    1.421   .     A
C675   C701    1.415   .     A
C675   C688    1.424   .     S
C676   C121    1.428   1_565 A
C676   C702    1.421   .     A
C677   C703    1.415   .     A
C677   C690    1.424   .     S
C678   C704    1.415   .     A
C678   C691    1.424   .     S
C679   C976    1.428   .     A
C680   C689    1.428   .     S
C681   C122    1.424   1_565 A
C682   C975    1.424   .     A
C683   O776    1.269   .     S
C683   O781    1.269   .     S
C684   C692    1.428   .     S
C685   C951    1.424   1_455 A
C685   C686    1.424   .     A
C686   C957    1.428   1_455 A
C687   C688    1.424   .     A
C689   C690    1.424   1_556 S
C690   C689    1.424   1_554 S
C691   C966    1.424   1_455 A
C691   C692    1.424   1_556 S
C692   C963    1.428   1_455 A
C692   C691    1.424   1_554 S
C693   C699    1.396   .     A
C693   O817    1.384   .     S
C694   O782    1.277   .     A
C694   O810    1.277   .     A
C695   O818    1.385   .     S
C695   C698    1.396   .     A
C696   C701    1.396   .     A
C696   O819    1.385   .     S
C697   O820    1.384   .     S
C697   C700    1.396   .     A
C698   O821    1.384   .     S
C699   O822    1.385   .     S
C700   O823    1.385   .     S
C701   O825    1.384   .     S
C702   O826    1.385   .     S
C702   C573    1.396   1_556 S
C703   O827    1.384   .     S
C703   C572    1.396   1_554 S
C704   O828    1.384   .     S
C704   C575    1.396   1_556 S
O769   Zn848   1.937   .     S
O769   Zn840   1.937   .     S
O769   Zn837   1.937   .     S
O770   C49     1.269   1_565 A
O770   Zn839   1.958   .     S
O771   Zn842   1.958   .     S
O771   C912    1.269   .     A
O772   Zn841   1.958   .     S
O773   Zn851   1.958   .     S
O774   Zn850   1.958   .     S
O775   Zn845   1.958   .     S
O776   Zn837   1.958   .     S
O777   Zn847   1.958   .     S
O778   Zn846   1.958   .     S
O779   Zn849   1.958   .     S
O780   Zn845   1.937   .     S
O780   Zn849   1.937   .     S
O780   Zn843   1.937   .     S
O781   Zn848   1.958   .     S
O782   Zn840   1.913   .     S
O783   Zn839   1.913   .     S
O784   Zn842   1.913   .     S
O785   Zn841   1.913   .     S
O786   Zn844   1.913   .     S
O787   Zn843   1.913   .     S
O788   Zn838   1.913   .     S
O789   Zn852   1.913   .     S
O790   Zn839   1.913   .     S
O791   Zn846   1.937   .     S
O791   Zn838   1.937   .     S
O791   Zn1126  1.937   1_455 S
O791   Zn850   1.937   .     S
O792   Zn840   1.913   .     S
O793   Zn852   1.913   .     S
O794   Zn838   1.913   .     S
O795   Zn843   1.913   .     S
O796   Zn844   1.913   .     S
O797   Zn841   1.913   .     S
O798   Zn842   1.913   .     S
O799   Zn1131  1.913   .     S
O800   Zn846   1.913   .     S
O801   Zn281   1.913   1_565 S
O802   Zn1136  1.937   1_455 S
O802   Zn851   1.937   .     S
O802   Zn841   1.937   .     S
O802   Zn847   1.937   .     S
O803   Zn848   1.913   .     S
O804   Zn851   1.913   .     S
O805   Zn1134  1.913   .     S
O806   Zn845   1.913   .     S
O807   Zn269   1.913   1_565 S
O808   Zn1130  1.913   .     S
O809   Zn847   1.913   .     S
O810   Zn837   1.913   .     S
O811   Zn277   1.913   1_565 S
O812   Zn850   1.913   .     S
O813   Zn844   1.958   .     S
O813   C1      1.270   1_565 A
O814   Zn1135  1.913   .     S
O815   Zn280   1.913   1_565 S
O816   Zn849   1.913   .     S
O824   Zn843   1.958   .     S
O834   Zn838   1.958   .     S
O835   Zn852   1.958   .     S
O835   C923    1.270   .     S
O836   Zn840   1.958   .     S
Zn839  O212    1.937   1_565 S
Zn842  O1075   1.937   .     S
Zn844  O201    1.937   1_565 S
Zn846  O1092   1.913   1_455 S
Zn847  O1083   1.913   1_455 S
Zn850  O1089   1.913   1_455 S
Zn851  O1098   1.913   1_455 S
Zn852  O1086   1.937   .     S
C853   C944    1.472   .     S
C853   O1120   1.270   .     S
C854   C920    1.421   .     S
C854   O1095   1.277   .     A
C854   O1067   1.277   .     A
C855   C963    1.421   .     A
C855   O1113   1.385   .     S
C855   C858    1.396   1_554 S
C856   C964    1.421   .     A
C856   O1114   1.385   .     S
C856   C987    1.396   1_556 S
C857   C965    1.415   .     A
C857   O1115   1.384   .     S
C857   C986    1.396   1_554 S
C858   C966    1.415   .     A
C858   O1116   1.384   .     S
C858   C855    1.396   1_556 S
C859   O1117   1.385   .     S
C859   C968    1.421   .     A
C859   C988    1.396   1_554 S
C860   C925    1.455   .     S
C860   N1037   1.158   .     T
C861   N1045   1.158   .     T
C861   C926    1.455   .     S
C862   N1046   1.158   .     T
C862   C927    1.455   .     S
C863   N1047   1.158   .     T
C863   C928    1.455   .     S
C864   C929    1.455   .     S
C864   N1048   1.158   .     T
C865   O1068   1.277   .     A
C865   O1092   1.277   .     A
C865   C919    1.421   .     S
C866   N1049   1.158   .     T
C866   C930    1.455   .     S
C867   C931    1.455   .     S
C867   N1050   1.158   .     T
C868   C932    1.455   .     S
C868   N1051   1.158   .     T
C869   N1052   1.158   .     T
C869   C933    1.455   .     S
C870   C935    1.455   .     S
C870   N1038   1.158   .     T
C871   N1039   1.158   .     T
C871   C936    1.455   .     S
C872   C937    1.455   .     S
C872   N1040   1.158   .     T
C873   N1041   1.158   .     T
C873   C938    1.455   .     S
C874   N1042   1.158   .     T
C874   C939    1.455   .     S
C875   N1043   1.158   .     T
C875   C940    1.455   .     S
C876   O1069   1.277   .     A
C876   O1093   1.277   .     A
C876   C918    1.421   .     S
C877   C941    1.455   .     S
C877   N1044   1.158   .     T
C878   H989    1.113   .     S
C878   H1011   1.109   .     S
C878   O1101   1.411   .     S
C878   H1000   1.113   .     S
C879   H1032   1.112   .     S
C879   H1022   1.114   .     S
C879   H1033   1.109   .     S
C879   O1102   1.412   .     S
C880   H1035   1.112   .     S
C880   H1034   1.114   .     S
C880   O1103   1.412   .     S
C880   H1036   1.109   .     S
C881   H990    1.113   .     S
C881   H991    1.113   .     S
C881   O1104   1.411   .     S
C881   H992    1.109   .     S
C882   H995    1.109   .     S
C882   O1105   1.411   .     S
C882   H993    1.113   .     S
C882   H994    1.113   .     S
C883   H998    1.109   .     S
C883   O1106   1.412   .     S
C883   H996    1.114   .     S
C883   H997    1.112   .     S
C884   H1001   1.112   .     S
C884   H999    1.114   .     S
C884   H1002   1.109   .     S
C884   O1107   1.412   .     S
C885   H1003   1.113   .     S
C885   H1004   1.113   .     S
C885   O1109   1.411   .     S
C885   H1005   1.109   .     S
C886   H1007   1.112   .     S
C886   H1008   1.109   .     S
C886   O1110   1.412   .     S
C886   H1006   1.114   .     S
C887   O1070   1.277   .     A
C887   C917    1.421   .     S
C887   O1099   1.277   .     A
C888   H1009   1.113   .     S
C888   H1010   1.113   .     S
C888   O1111   1.411   .     S
C888   H1012   1.109   .     S
C889   H1015   1.109   .     S
C889   O1112   1.411   .     S
C889   H1013   1.113   .     S
C889   H1014   1.113   .     S
C890   H1017   1.112   .     S
C890   O1113   1.412   .     S
C890   H1018   1.109   .     S
C890   H1016   1.114   .     S
C891   H1020   1.112   .     S
C891   O1114   1.412   .     S
C891   H1019   1.114   .     S
C891   H1021   1.109   .     S
C892   H1025   1.109   .     S
C892   O1115   1.411   .     S
C892   H1024   1.113   .     S
C892   H1023   1.113   .     S
C893   H1026   1.113   .     S
C893   O1116   1.411   .     S
C893   H1028   1.109   .     S
C893   H1027   1.113   .     S
C894   H1029   1.114   .     S
C894   H1031   1.109   .     S
C894   O1117   1.412   .     S
C894   H1030   1.112   .     S
C895   C916    1.421   .     S
C895   O1100   1.277   .     A
C895   O1071   1.277   .     A
C896   O1072   1.277   .     A
C896   O1096   1.277   .     A
C896   C924    1.421   .     S
C897   O1098   1.277   .     A
C897   O1073   1.277   .     A
C897   C922    1.421   .     S
C898   C913    1.421   .     S
C898   O1085   1.277   .     A
C898   O1074   1.277   .     A
C899   O1076   1.277   .     A
C899   O1087   1.277   .     A
C899   C911    1.421   .     S
C900   C910    1.421   .     S
C900   O1077   1.277   .     A
C900   O1083   1.277   .     A
C901   C946    1.467   .     S
C901   O1108   1.269   .     S
C902   O1084   1.277   .     A
C902   O1078   1.277   .     A
C902   C909    1.421   .     S
C903   C908    1.421   .     S
C903   O1079   1.277   .     A
C903   O1090   1.277   .     A
C904   O1091   1.277   .     A
C904   O1080   1.277   .     A
C904   C907    1.421   .     S
C905   O1081   1.277   .     A
C905   O1088   1.277   .     A
C905   C915    1.421   .     S
C906   C914    1.421   .     S
C906   O1089   1.277   .     A
C906   O1082   1.277   .     A
C907   C924    1.197   .     T
C908   C922    1.197   .     T
C909   C921    1.197   .     T
C910   C920    1.197   .     T
C911   C919    1.197   .     T
C912   C942    1.467   .     S
C912   O1118   1.269   .     S
C913   C918    1.197   .     T
C914   C917    1.197   .     T
C915   C916    1.197   .     T
C921   C978    1.421   .     S
C923   O1056   1.270   .     A
C923   C943    1.472   .     S
C925   C955    1.416   .     A
C925   C942    1.403   .     S
C926   C659    1.406   1_655 A
C926   C957    1.419   .     A
C927   C376    1.406   1_565 A
C927   C958    1.419   .     A
C928   C946    1.403   .     A
C928   C959    1.416   .     A
C929   C658    1.403   1_655 A
C929   C951    1.416   .     A
C930   C952    1.419   .     A
C930   C943    1.406   .     S
C931   C953    1.419   .     A
C931   C944    1.406   .     S
C932   C954    1.416   .     A
C932   C378    1.403   1_565 S
C933   C964    1.419   .     A
C933   C947    1.406   .     S
C934   C949    1.467   .     S
C934   O1057   1.269   .     S
C934   O1061   1.269   .     S
C935   C965    1.416   .     A
C935   C380    1.403   1_565 A
C936   C665    1.403   1_655 A
C936   C966    1.416   .     A
C937   C968    1.419   .     A
C937   C950    1.406   .     S
C938   C960    1.419   .     A
C938   C379    1.406   1_565 A
C939   C961    1.416   .     A
C939   C948    1.403   .     S
C940   C962    1.416   .     A
C940   C949    1.403   .     S
C941   C963    1.419   .     A
C941   C666    1.406   1_655 A
C945   O1058   1.270   .     A
C945   C950    1.472   .     S
C945   O1062   1.270   .     S
C947   C956    1.472   .     S
C948   C967    1.467   .     S
C951   C977    1.415   .     A
C951   C685    1.424   1_655 A
C952   C979    1.421   .     A
C952   C970    1.428   .     S
C953   C980    1.421   .     A
C953   C971    1.428   .     S
C954   C981    1.415   .     A
C954   C404    1.424   1_565 A
C955   C982    1.415   .     A
C955   C969    1.424   .     S
C956   O1059   1.270   .     A
C956   O1063   1.270   .     A
C957   C983    1.421   .     A
C957   C686    1.428   1_655 A
C958   C403    1.428   1_565 A
C958   C984    1.421   .     A
C959   C985    1.415   .     A
C959   C972    1.424   .     S
C960   C405    1.428   1_565 A
C960   C986    1.421   .     A
C961   C987    1.415   .     A
C961   C974    1.424   .     S
C962   C988    1.415   .     A
C962   C975    1.424   .     S
C963   C692    1.428   1_655 A
C964   C973    1.428   .     S
C965   C406    1.424   1_565 A
C966   C691    1.424   1_655 A
C967   O1060   1.269   .     S
C967   O1065   1.269   .     S
C968   C976    1.428   .     S
C969   C970    1.424   .     A
C971   C972    1.424   .     A
C973   C974    1.424   1_556 S
C974   C973    1.424   1_554 S
C975   C976    1.424   1_556 S
C976   C975    1.424   1_554 S
C977   C983    1.396   .     A
C977   O1101   1.384   .     S
C978   O1066   1.277   .     A
C978   O1094   1.277   .     A
C979   O1102   1.385   .     S
C979   C982    1.396   .     A
C980   C985    1.396   .     A
C980   O1103   1.385   .     S
C981   O1104   1.384   .     S
C981   C984    1.396   .     A
C982   O1105   1.384   .     S
C983   O1106   1.385   .     S
C984   O1107   1.385   .     S
C985   O1109   1.384   .     S
C986   O1110   1.385   .     S
C986   C857    1.396   1_556 S
C987   O1111   1.384   .     S
C987   C856    1.396   1_554 S
C988   O1112   1.384   .     S
C988   C859    1.396   1_556 S
O1053  Zn1132  1.937   .     S
O1053  Zn1124  1.937   .     S
O1053  Zn1121  1.937   .     S
O1054  C333    1.269   1_565 A
O1054  Zn1123  1.958   .     S
O1055  Zn1126  1.958   .     S
O1055  C628    1.269   1_655 A
O1056  Zn1125  1.958   .     S
O1057  Zn1135  1.958   .     S
O1058  Zn1134  1.958   .     S
O1059  Zn1129  1.958   .     S
O1060  Zn1121  1.958   .     S
O1061  Zn1131  1.958   .     S
O1062  Zn1130  1.958   .     S
O1063  Zn1133  1.958   .     S
O1064  Zn1129  1.937   .     S
O1064  Zn1133  1.937   .     S
O1064  Zn1127  1.937   .     S
O1065  Zn1132  1.958   .     S
O1066  Zn1124  1.913   .     S
O1067  Zn1123  1.913   .     S
O1068  Zn1126  1.913   .     S
O1069  Zn1125  1.913   .     S
O1070  Zn1128  1.913   .     S
O1071  Zn1127  1.913   .     S
O1072  Zn1122  1.913   .     S
O1073  Zn1136  1.913   .     S
O1074  Zn1123  1.913   .     S
O1075  Zn1130  1.937   .     S
O1075  Zn1122  1.937   .     S
O1075  Zn1134  1.937   .     S
O1076  Zn1124  1.913   .     S
O1077  Zn1136  1.913   .     S
O1078  Zn1122  1.913   .     S
O1079  Zn1127  1.913   .     S
O1080  Zn1128  1.913   .     S
O1081  Zn1125  1.913   .     S
O1082  Zn1126  1.913   .     S
O1083  Zn847   1.913   1_655 S
O1084  Zn1130  1.913   .     S
O1085  Zn565   1.913   1_565 S
O1086  Zn1135  1.937   .     S
O1086  Zn1125  1.937   .     S
O1086  Zn1131  1.937   .     S
O1087  Zn1132  1.913   .     S
O1088  Zn1135  1.913   .     S
O1089  Zn850   1.913   1_655 S
O1090  Zn1129  1.913   .     S
O1091  Zn553   1.913   1_565 S
O1092  Zn846   1.913   1_655 S
O1093  Zn1131  1.913   .     S
O1094  Zn1121  1.913   .     S
O1095  Zn561   1.913   1_565 S
O1096  Zn1134  1.913   .     S
O1097  Zn1128  1.958   .     S
O1097  C285    1.270   1_565 A
O1098  Zn851   1.913   1_655 S
O1099  Zn564   1.913   1_565 S
O1100  Zn1133  1.913   .     S
O1108  Zn1127  1.958   .     S
O1118  Zn1122  1.958   .     S
O1119  Zn1136  1.958   .     S
O1119  C639    1.270   1_655 S
O1120  Zn1124  1.958   .     S
Zn1123 O496    1.937   1_565 S
Zn1126 O791    1.937   1_655 S
Zn1128 O485    1.937   1_565 S
Zn1136 O802    1.937   1_655 S
