data_str_m1_o5_o17_pcu_sym.88
_audit_creation_date              2020-01-03
_audit_creation_method            'Materials Studio'
_symmetry_space_group_name_H-M    'P1'
_symmetry_Int_Tables_number       1
_symmetry_cell_setting            triclinic
loop_
_symmetry_equiv_pos_as_xyz
  x,y,z
_cell_length_a                    31.7580
_cell_length_b                    31.7581
_cell_length_c                    34.4504
_cell_angle_alpha                 89.9999
_cell_angle_beta                  89.9998
_cell_angle_gamma                 90.0758
loop_
_atom_site_label
_atom_site_type_symbol
_atom_site_fract_x
_atom_site_fract_y
_atom_site_fract_z
_atom_site_U_iso_or_equiv
_atom_site_adp_type
_atom_site_occupancy
C1     C     0.25000   0.00000   0.35582   0.00000  Uiso   1.00
C2     C     0.33003   0.41997   0.75000   0.00000  Uiso   1.00
C3     C     0.42411   0.23648   0.01976   0.00000  Uiso   1.00
C4     C     0.26360   0.07588   0.98024   0.00000  Uiso   1.00
C5     C     0.24670   0.42302   0.01981   0.00000  Uiso   1.00
C6     C     0.42301   0.24679   0.98019   0.00000  Uiso   1.00
C7     C     0.07589   0.26353   0.01976   0.00000  Uiso   1.00
C8     C     0.01880   0.34249   0.36800   0.00000  Uiso   1.00
C9     C     0.49779   0.15615   0.63236   0.00000  Uiso   1.00
C10    C     0.15616   0.49752   0.36764   0.00000  Uiso   1.00
C11    C     0.34244   0.01905   0.63199   0.00000  Uiso   1.00
C12    C     0.48120   0.15752   0.36800   0.00000  Uiso   1.00
C13    C     0.41998   0.16998   0.25000   0.00000  Uiso   1.00
C14    C     0.00222   0.34385   0.63236   0.00000  Uiso   1.00
C15    C     0.34384   0.00248   0.36764   0.00000  Uiso   1.00
C16    C     0.15756   0.48095   0.63199   0.00000  Uiso   1.00
C17    C     0.26816   0.09258   0.86798   0.00000  Uiso   1.00
C18    C     0.24842   0.40614   0.13236   0.00000  Uiso   1.00
C19    C     0.40613   0.24851   0.86764   0.00000  Uiso   1.00
C20    C     0.09260   0.26809   0.13202   0.00000  Uiso   1.00
C21    C     0.23184   0.40742   0.86798   0.00000  Uiso   1.00
C22    C     0.25158   0.09386   0.13236   0.00000  Uiso   1.00
C23    C     0.09387   0.25149   0.86764   0.00000  Uiso   1.00
C24    C     0.08002   0.33002   0.75000   0.00000  Uiso   1.00
C25    C     0.40740   0.23191   0.13202   0.00000  Uiso   1.00
C26    C     0.45882   0.13838   0.46422   0.00000  Uiso   1.00
C27    C     0.41566   0.15403   0.45092   0.00000  Uiso   1.00
C28    C     0.48557   0.36791   0.53582   0.00000  Uiso   1.00
C29    C     0.44010   0.36219   0.54946   0.00000  Uiso   1.00
C30    C     0.36795   0.48593   0.46419   0.00000  Uiso   1.00
C31    C     0.36238   0.44044   0.45054   0.00000  Uiso   1.00
C32    C     0.13851   0.45847   0.53578   0.00000  Uiso   1.00
C33    C     0.15430   0.41536   0.54909   0.00000  Uiso   1.00
C34    C     0.04120   0.36161   0.46422   0.00000  Uiso   1.00
C35    C     0.33003   0.41997   0.25000   0.00000  Uiso   1.00
C36    C     0.08435   0.34595   0.45091   0.00000  Uiso   1.00
C37    C     0.01446   0.13210   0.53581   0.00000  Uiso   1.00
C38    C     0.05994   0.13784   0.54945   0.00000  Uiso   1.00
C39    C     0.13205   0.01408   0.46419   0.00000  Uiso   1.00
C40    C     0.13763   0.05957   0.45054   0.00000  Uiso   1.00
C41    C     0.36148   0.04154   0.53578   0.00000  Uiso   1.00
C42    C     0.34569   0.08464   0.54909   0.00000  Uiso   1.00
C43    C     0.20960   0.38810   0.96422   0.00000  Uiso   1.00
C44    C     0.16634   0.40346   0.95090   0.00000  Uiso   1.00
C45    C     0.23473   0.11780   0.03582   0.00000  Uiso   1.00
C46    C     0.16997   0.08003   0.75000   0.00000  Uiso   1.00
C47    C     0.18929   0.11176   0.04945   0.00000  Uiso   1.00
C48    C     0.11779   0.23463   0.96418   0.00000  Uiso   1.00
C49    C     0.11172   0.18920   0.95055   0.00000  Uiso   1.00
C50    C     0.38806   0.20972   0.03578   0.00000  Uiso   1.00
C51    C     0.40337   0.16644   0.04909   0.00000  Uiso   1.00
C52    C     0.29040   0.11190   0.96422   0.00000  Uiso   1.00
C53    C     0.33366   0.09654   0.95090   0.00000  Uiso   1.00
C54    C     0.26527   0.38220   0.03582   0.00000  Uiso   1.00
C55    C     0.31070   0.38823   0.04945   0.00000  Uiso   1.00
C56    C     0.38222   0.26540   0.96418   0.00000  Uiso   1.00
C57    C     0.08002   0.33002   0.25000   0.00000  Uiso   1.00
C58    C     0.38830   0.31083   0.95055   0.00000  Uiso   1.00
C59    C     0.11193   0.29031   0.03578   0.00000  Uiso   1.00
C60    C     0.09661   0.33358   0.04910   0.00000  Uiso   1.00
C61    C     0.41998   0.16998   0.75000   0.00000  Uiso   1.00
C62    C     0.16998   0.41998   0.75000   0.00000  Uiso   1.00
C63    C     0.33002   0.08002   0.25000   0.00000  Uiso   1.00
C64    C     0.41997   0.33003   0.75000   0.00000  Uiso   1.00
C65    C     0.25000   0.00000   0.64417   0.00000  Uiso   1.00
C66    C     0.08003   0.16997   0.25000   0.00000  Uiso   1.00
C67    C     0.33002   0.08002   0.75000   0.00000  Uiso   1.00
C68    C     0.16998   0.41998   0.25000   0.00000  Uiso   1.00
C69    C     0.08003   0.16997   0.75000   0.00000  Uiso   1.00
C70    C     0.41997   0.33003   0.25000   0.00000  Uiso   1.00
C71    C     0.13833   0.38834   0.25000   0.00000  Uiso   1.00
C72    C     0.36166   0.11166   0.75000   0.00000  Uiso   1.00
C73    C     0.11167   0.13833   0.25000   0.00000  Uiso   1.00
C74    C     0.38833   0.36167   0.75000   0.00000  Uiso   1.00
C75    C     0.36166   0.11166   0.25000   0.00000  Uiso   1.00
C76    C    -0.00000   0.25000   0.35583   0.00000  Uiso   1.00
C77    C     0.13834   0.38834   0.75000   0.00000  Uiso   1.00
C78    C     0.38833   0.36167   0.25000   0.00000  Uiso   1.00
C79    C     0.11167   0.13833   0.75000   0.00000  Uiso   1.00
C80    C     0.13833   0.11167   0.75000   0.00000  Uiso   1.00
C81    C     0.36167   0.38833   0.25000   0.00000  Uiso   1.00
C82    C     0.11166   0.36166   0.75000   0.00000  Uiso   1.00
C83    C     0.38834   0.13834   0.25000   0.00000  Uiso   1.00
C84    C     0.36167   0.38833   0.75000   0.00000  Uiso   1.00
C85    C     0.13833   0.11167   0.25000   0.00000  Uiso   1.00
C86    C     0.38834   0.13834   0.75000   0.00000  Uiso   1.00
C87    C     0.00000   0.25000   0.64418   0.00000  Uiso   1.00
C88    C     0.11166   0.36166   0.25000   0.00000  Uiso   1.00
C89    C     0.00124   0.28858   0.41802   0.00000  Uiso   1.00
C90    C     0.49214   0.21221   0.58200   0.00000  Uiso   1.00
C91    C     0.21223   0.49202   0.41800   0.00000  Uiso   1.00
C92    C     0.28858   0.00135   0.58198   0.00000  Uiso   1.00
C93    C     0.49876   0.21142   0.41802   0.00000  Uiso   1.00
C94    C     0.00787   0.28779   0.58200   0.00000  Uiso   1.00
C95    C     0.28777   0.00798   0.41800   0.00000  Uiso   1.00
C96    C     0.21142   0.49865   0.58198   0.00000  Uiso   1.00
C97    C     0.25096   0.03859   0.91801   0.00000  Uiso   1.00
C98    C    -0.00000   0.25000   0.85582   0.00000  Uiso   1.00
C99    C     0.24240   0.46215   0.08200   0.00000  Uiso   1.00
C100   C     0.46214   0.24244   0.91800   0.00000  Uiso   1.00
C101   C     0.03859   0.25093   0.08198   0.00000  Uiso   1.00
C102   C     0.24904   0.46141   0.91801   0.00000  Uiso   1.00
C103   C     0.25760   0.03785   0.08200   0.00000  Uiso   1.00
C104   C     0.03785   0.25756   0.91800   0.00000  Uiso   1.00
C105   C     0.46141   0.24908   0.08198   0.00000  Uiso   1.00
C106   C    -0.00000   0.25000   0.39807   0.00000  Uiso   1.00
C107   C     0.00000   0.25000   0.60195   0.00000  Uiso   1.00
C108   C     0.25000   0.00000   0.39805   0.00000  Uiso   1.00
C109   C    -0.00000   0.25000   0.14417   0.00000  Uiso   1.00
C110   C     0.25000   0.00000   0.60193   0.00000  Uiso   1.00
C111   C     0.25000  -0.00000   0.89807   0.00000  Uiso   1.00
C112   C     0.25000  -0.00000   0.10195   0.00000  Uiso   1.00
C113   C     0.00000   0.25000   0.89805   0.00000  Uiso   1.00
C114   C    -0.00000   0.25000   0.10193   0.00000  Uiso   1.00
C115   C     0.49441   0.21153   0.45892   0.00000  Uiso   1.00
C116   C     0.00360   0.28870   0.54110   0.00000  Uiso   1.00
C117   C     0.28868   0.00372   0.45890   0.00000  Uiso   1.00
C118   C     0.21154   0.49429   0.54108   0.00000  Uiso   1.00
C119   C     0.00559   0.28847   0.45892   0.00000  Uiso   1.00
C120   C     0.25000   0.00000   0.85583   0.00000  Uiso   1.00
C121   C     0.49641   0.21131   0.54110   0.00000  Uiso   1.00
C122   C     0.21132   0.49628   0.45890   0.00000  Uiso   1.00
C123   C     0.28846   0.00571   0.54108   0.00000  Uiso   1.00
C124   C     0.24469   0.46149   0.95892   0.00000  Uiso   1.00
C125   C     0.25332   0.03872   0.04110   0.00000  Uiso   1.00
C126   C     0.03872   0.25329   0.95890   0.00000  Uiso   1.00
C127   C     0.46148   0.24473   0.04108   0.00000  Uiso   1.00
C128   C     0.25531   0.03851   0.95892   0.00000  Uiso   1.00
C129   C     0.24668   0.46128   0.04110   0.00000  Uiso   1.00
C130   C     0.46128   0.24672   0.95890   0.00000  Uiso   1.00
C131   C     0.25000   0.00000   0.14418   0.00000  Uiso   1.00
C132   C     0.03852   0.25528   0.04108   0.00000  Uiso   1.00
C133   C     0.00000   0.25000   0.47943   0.00000  Uiso   1.00
C134   C     0.00000   0.25000   0.52059   0.00000  Uiso   1.00
C135   C     0.25000   0.00000   0.47941   0.00000  Uiso   1.00
C136   C     0.25000   0.00000   0.52057   0.00000  Uiso   1.00
C137   C     0.25000  -0.00000   0.97943   0.00000  Uiso   1.00
C138   C     0.25000  -0.00000   0.02059   0.00000  Uiso   1.00
C139   C    -0.00000   0.25001   0.97941   0.00000  Uiso   1.00
C140   C    -0.00000   0.25000   0.02057   0.00000  Uiso   1.00
C141   C     0.48587   0.17422   0.48024   0.00000  Uiso   1.00
C142   C     0.16997   0.08003   0.25000   0.00000  Uiso   1.00
C143   C     0.00385   0.32696   0.51981   0.00000  Uiso   1.00
C144   C     0.32695   0.00408   0.48019   0.00000  Uiso   1.00
C145   C     0.17426   0.48563   0.51976   0.00000  Uiso   1.00
C146   C     0.01415   0.32578   0.48024   0.00000  Uiso   1.00
C147   C     0.49616   0.17304   0.51981   0.00000  Uiso   1.00
C148   C     0.17305   0.49592   0.48019   0.00000  Uiso   1.00
C149   C     0.32574   0.01437   0.51976   0.00000  Uiso   1.00
C150   C     0.23640   0.42412   0.98024   0.00000  Uiso   1.00
C151   C     0.25330   0.07698   0.01981   0.00000  Uiso   1.00
C152   C     0.07698   0.25323   0.98019   0.00000  Uiso   1.00
H153   H     0.47127   0.34774   0.41134   0.00000  Uiso   1.00
H154   H     0.12212   0.49997   0.37451   0.00000  Uiso   1.00
H155   H     0.33189   0.10193   0.52411   0.00000  Uiso   1.00
H156   H     0.32144   0.08174   0.57203   0.00000  Uiso   1.00
H157   H     0.37244   0.10331   0.56076   0.00000  Uiso   1.00
H158   H     0.37923   0.02553   0.55895   0.00000  Uiso   1.00
H159   H     0.38522   0.04840   0.51294   0.00000  Uiso   1.00
H160   H     0.14891   0.41711   0.97587   0.00000  Uiso   1.00
H161   H     0.16901   0.42772   0.92793   0.00000  Uiso   1.00
H162   H     0.14793   0.37652   0.93924   0.00000  Uiso   1.00
H163   H     0.22579   0.37051   0.94106   0.00000  Uiso   1.00
H164   H     0.20296   0.36431   0.98706   0.00000  Uiso   1.00
H165   H     0.15941   0.48107   0.33938   0.00000  Uiso   1.00
H166   H     0.16926   0.10160   0.02472   0.00000  Uiso   1.00
H167   H     0.18704   0.08783   0.07274   0.00000  Uiso   1.00
H168   H     0.17691   0.14204   0.06082   0.00000  Uiso   1.00
H169   H     0.25444   0.13178   0.05879   0.00000  Uiso   1.00
H170   H     0.23305   0.14233   0.01289   0.00000  Uiso   1.00
H171   H     0.10154   0.16917   0.97529   0.00000  Uiso   1.00
H172   H     0.08777   0.18696   0.92727   0.00000  Uiso   1.00
H173   H     0.14198   0.17678   0.93918   0.00000  Uiso   1.00
H174   H     0.13179   0.25433   0.94121   0.00000  Uiso   1.00
H175   H     0.14232   0.23293   0.98712   0.00000  Uiso   1.00
H176   H     0.16911   0.02988   0.36486   0.00000  Uiso   1.00
H177   H     0.41700   0.14900   0.02412   0.00000  Uiso   1.00
H178   H     0.42763   0.16908   0.07206   0.00000  Uiso   1.00
H179   H     0.37640   0.14806   0.06074   0.00000  Uiso   1.00
H180   H     0.37048   0.22592   0.05894   0.00000  Uiso   1.00
H181   H     0.36425   0.20311   0.01293   0.00000  Uiso   1.00
H182   H     0.35108   0.08289   0.97587   0.00000  Uiso   1.00
H183   H     0.33099   0.07228   0.92793   0.00000  Uiso   1.00
H184   H     0.35206   0.12348   0.93924   0.00000  Uiso   1.00
H185   H     0.27421   0.12949   0.94106   0.00000  Uiso   1.00
H186   H     0.29703   0.13569   0.98706   0.00000  Uiso   1.00
H187   H     0.34782   0.47154   0.58864   0.00000  Uiso   1.00
H188   H     0.33074   0.39839   0.02472   0.00000  Uiso   1.00
H189   H     0.31296   0.41217   0.07274   0.00000  Uiso   1.00
H190   H     0.32309   0.35796   0.06082   0.00000  Uiso   1.00
H191   H     0.24555   0.36822   0.05879   0.00000  Uiso   1.00
H192   H     0.26694   0.35766   0.01289   0.00000  Uiso   1.00
H193   H     0.39849   0.33085   0.97528   0.00000  Uiso   1.00
H194   H     0.41224   0.31306   0.92726   0.00000  Uiso   1.00
H195   H     0.35804   0.32325   0.93918   0.00000  Uiso   1.00
H196   H     0.36821   0.24570   0.94121   0.00000  Uiso   1.00
H197   H     0.35768   0.26710   0.98711   0.00000  Uiso   1.00
H198   H     0.37574   0.02728   0.62582   0.00000  Uiso   1.00
H199   H     0.08297   0.35101   0.02413   0.00000  Uiso   1.00
H200   H     0.07235   0.33093   0.07207   0.00000  Uiso   1.00
H201   H     0.12357   0.35196   0.06075   0.00000  Uiso   1.00
H202   H     0.12952   0.27410   0.05894   0.00000  Uiso   1.00
H203   H     0.13573   0.29692   0.01294   0.00000  Uiso   1.00
H204   H     0.34123   0.00308   0.66063   0.00000  Uiso   1.00
H205   H     0.32406   0.04870   0.63351   0.00000  Uiso   1.00
H206   H     0.02874   0.15226   0.41133   0.00000  Uiso   1.00
H207   H     0.47303   0.12421   0.37419   0.00000  Uiso   1.00
H208   H     0.49717   0.15875   0.33937   0.00000  Uiso   1.00
H209   H     0.02697   0.37579   0.37419   0.00000  Uiso   1.00
H210   H     0.45151   0.17584   0.36647   0.00000  Uiso   1.00
H211   H     0.05004   0.33911   0.58913   0.00000  Uiso   1.00
H212   H     0.49969   0.37788   0.62550   0.00000  Uiso   1.00
H213   H     0.01867   0.34063   0.66063   0.00000  Uiso   1.00
H214   H     0.46989   0.33082   0.63513   0.00000  Uiso   1.00
H215   H     0.33896   0.05030   0.41086   0.00000  Uiso   1.00
H216   H     0.37788   0.00003   0.37451   0.00000  Uiso   1.00
H217   H     0.34059   0.01893   0.33938   0.00000  Uiso   1.00
H218   H     0.33089   0.47012   0.36486   0.00000  Uiso   1.00
H219   H     0.15218   0.02846   0.58864   0.00000  Uiso   1.00
H220   H     0.00282   0.34125   0.33937   0.00000  Uiso   1.00
H221   H     0.12426   0.47273   0.62582   0.00000  Uiso   1.00
H222   H     0.15877   0.49692   0.66063   0.00000  Uiso   1.00
H223   H     0.17594   0.45130   0.63351   0.00000  Uiso   1.00
H224   H     0.22059   0.09755   0.91132   0.00000  Uiso   1.00
H225   H     0.27617   0.12593   0.87419   0.00000  Uiso   1.00
H226   H     0.25216   0.09130   0.83936   0.00000  Uiso   1.00
H227   H     0.29793   0.07440   0.86640   0.00000  Uiso   1.00
H228   H     0.20058   0.41055   0.08912   0.00000  Uiso   1.00
H229   H     0.25113   0.37212   0.12552   0.00000  Uiso   1.00
H230   H     0.23197   0.40929   0.16063   0.00000  Uiso   1.00
H231   H     0.04848   0.32416   0.36647   0.00000  Uiso   1.00
H232   H     0.28068   0.41934   0.13510   0.00000  Uiso   1.00
H233   H     0.41050   0.20067   0.91089   0.00000  Uiso   1.00
H234   H     0.37211   0.25125   0.87448   0.00000  Uiso   1.00
H235   H     0.40928   0.23206   0.83937   0.00000  Uiso   1.00
H236   H     0.41936   0.28076   0.86490   0.00000  Uiso   1.00
H237   H     0.09753   0.22051   0.08868   0.00000  Uiso   1.00
H238   H     0.12594   0.27609   0.12581   0.00000  Uiso   1.00
H239   H     0.09130   0.25209   0.16063   0.00000  Uiso   1.00
H240   H     0.07443   0.29787   0.13361   0.00000  Uiso   1.00
H241   H     0.27941   0.40245   0.91132   0.00000  Uiso   1.00
H242   H     0.44997   0.16088   0.58912   0.00000  Uiso   1.00
H243   H     0.22382   0.37407   0.87419   0.00000  Uiso   1.00
H244   H     0.24784   0.40870   0.83936   0.00000  Uiso   1.00
H245   H     0.20206   0.42560   0.86640   0.00000  Uiso   1.00
H246   H     0.29942   0.08945   0.08912   0.00000  Uiso   1.00
H247   H     0.24887   0.12788   0.12552   0.00000  Uiso   1.00
H248   H     0.26803   0.09071   0.16063   0.00000  Uiso   1.00
H249   H     0.21932   0.08066   0.13510   0.00000  Uiso   1.00
H250   H     0.08949   0.29934   0.91088   0.00000  Uiso   1.00
H251   H     0.12789   0.24875   0.87448   0.00000  Uiso   1.00
H252   H     0.09072   0.26794   0.83937   0.00000  Uiso   1.00
H253   H     0.00032   0.12212   0.62550   0.00000  Uiso   1.00
H254   H     0.08064   0.21924   0.86490   0.00000  Uiso   1.00
H255   H     0.40248   0.27950   0.08869   0.00000  Uiso   1.00
H256   H     0.37406   0.22391   0.12581   0.00000  Uiso   1.00
H257   H     0.40869   0.24791   0.16064   0.00000  Uiso   1.00
H258   H     0.42557   0.20213   0.13361   0.00000  Uiso   1.00
H259   H     0.39833   0.16777   0.47590   0.00000  Uiso   1.00
H260   H     0.41848   0.17829   0.42797   0.00000  Uiso   1.00
H261   H     0.39708   0.12721   0.43925   0.00000  Uiso   1.00
H262   H     0.47488   0.12068   0.44106   0.00000  Uiso   1.00
H263   H     0.45204   0.11462   0.48706   0.00000  Uiso   1.00
H264   H     0.48132   0.15937   0.66062   0.00000  Uiso   1.00
H265   H     0.41999   0.35216   0.52473   0.00000  Uiso   1.00
H266   H     0.43768   0.33827   0.57275   0.00000  Uiso   1.00
H267   H     0.42792   0.39255   0.56083   0.00000  Uiso   1.00
H268   H     0.00539   0.38175   0.55878   0.00000  Uiso   1.00
H269   H     0.48406   0.39245   0.51288   0.00000  Uiso   1.00
H270   H     0.35242   0.42030   0.47527   0.00000  Uiso   1.00
H271   H     0.33847   0.43795   0.42726   0.00000  Uiso   1.00
H272   H     0.39277   0.42836   0.43917   0.00000  Uiso   1.00
H273   H     0.38174   0.00579   0.44122   0.00000  Uiso   1.00
H274   H     0.39250   0.48450   0.48712   0.00000  Uiso   1.00
H275   H     0.03011   0.16918   0.63514   0.00000  Uiso   1.00
H276   H     0.16810   0.39807   0.52411   0.00000  Uiso   1.00
H277   H     0.17856   0.41827   0.57203   0.00000  Uiso   1.00
H278   H     0.12755   0.39670   0.56076   0.00000  Uiso   1.00
H279   H     0.12076   0.47448   0.55895   0.00000  Uiso   1.00
H280   H     0.11478   0.45161   0.51295   0.00000  Uiso   1.00
H281   H     0.10168   0.33221   0.47589   0.00000  Uiso   1.00
H282   H     0.08152   0.32170   0.42796   0.00000  Uiso   1.00
H283   H     0.10294   0.37277   0.43924   0.00000  Uiso   1.00
H284   H     0.02514   0.37932   0.44106   0.00000  Uiso   1.00
H285   H     0.04799   0.38537   0.48706   0.00000  Uiso   1.00
H286   H     0.16104   0.44970   0.41086   0.00000  Uiso   1.00
H287   H     0.08003   0.14794   0.52473   0.00000  Uiso   1.00
H288   H     0.06234   0.16172   0.57277   0.00000  Uiso   1.00
H289   H     0.07215   0.10748   0.56076   0.00000  Uiso   1.00
H290   H     0.49466   0.11825   0.55878   0.00000  Uiso   1.00
H291   H     0.01598   0.10756   0.51287   0.00000  Uiso   1.00
H292   H     0.14760   0.07971   0.47527   0.00000  Uiso   1.00
H293   H     0.16154   0.06206   0.42725   0.00000  Uiso   1.00
H294   H     0.10723   0.07165   0.43917   0.00000  Uiso   1.00
H295   H     0.11826   0.49422   0.44122   0.00000  Uiso   1.00
H296   H     0.10750   0.01552   0.48712   0.00000  Uiso   1.00
N297   N     0.49057   0.32633   0.39761   0.00000  Uiso   1.00
N298   N     0.22422   0.42744   0.10252   0.00000  Uiso   1.00
N299   N     0.42741   0.22429   0.89748   0.00000  Uiso   1.00
N300   N     0.07626   0.23999   0.10239   0.00000  Uiso   1.00
N301   N     0.25995   0.42374   0.89761   0.00000  Uiso   1.00
N302   N     0.27578   0.07256   0.10252   0.00000  Uiso   1.00
N303   N     0.07258   0.27572   0.89748   0.00000  Uiso   1.00
N304   N     0.42374   0.26001   0.10240   0.00000  Uiso   1.00
N305   N     0.47372   0.17761   0.60252   0.00000  Uiso   1.00
N306   N     0.17769   0.47351   0.39748   0.00000  Uiso   1.00
N307   N     0.32636   0.49078   0.60238   0.00000  Uiso   1.00
N308   N     0.00943   0.17367   0.39761   0.00000  Uiso   1.00
N309   N     0.02629   0.32238   0.60252   0.00000  Uiso   1.00
N310   N     0.32231   0.02649   0.39748   0.00000  Uiso   1.00
N311   N     0.17364   0.00922   0.60238   0.00000  Uiso   1.00
N312   N     0.24005   0.07626   0.89761   0.00000  Uiso   1.00
O313   O     0.25000   0.00000   0.25000   0.00000  Uiso   1.00
O314   O     0.25000   0.46539   0.66251   0.00000  Uiso   1.00
O315   O     0.46538   0.25000   0.33749   0.00000  Uiso   1.00
O316   O     0.03461   0.25000   0.66251   0.00000  Uiso   1.00
O317   O     0.00000   0.21539   0.83749   0.00000  Uiso   1.00
O318   O    -0.00000   0.28462   0.16251   0.00000  Uiso   1.00
O319   O     0.28461   0.00000   0.83749   0.00000  Uiso   1.00
O320   O     0.21538   0.00000   0.16251   0.00000  Uiso   1.00
O321   O    -0.00000   0.28462   0.83749   0.00000  Uiso   1.00
O322   O    -0.00000   0.21539   0.16251   0.00000  Uiso   1.00
O323   O     0.21538   0.00000   0.83749   0.00000  Uiso   1.00
O324   O     0.25000   0.00000   0.75000   0.00000  Uiso   1.00
O325   O     0.28461   0.00000   0.16251   0.00000  Uiso   1.00
O326   O     0.20126   0.08332   0.27298   0.00000  Uiso   1.00
O327   O     0.29873   0.41668   0.72702   0.00000  Uiso   1.00
O328   O     0.41668   0.20127   0.27298   0.00000  Uiso   1.00
O329   O     0.08332   0.29874   0.72702   0.00000  Uiso   1.00
O330   O     0.29873   0.41668   0.27298   0.00000  Uiso   1.00
O331   O     0.20126   0.08332   0.72702   0.00000  Uiso   1.00
O332   O     0.08332   0.29874   0.27298   0.00000  Uiso   1.00
O333   O     0.41668   0.20127   0.72702   0.00000  Uiso   1.00
O334   O     0.20126   0.41668   0.72702   0.00000  Uiso   1.00
O335   O     0.00000   0.25000   0.25000   0.00000  Uiso   1.00
O336   O     0.29873   0.08332   0.27298   0.00000  Uiso   1.00
O337   O     0.41668   0.29874   0.72702   0.00000  Uiso   1.00
O338   O     0.08332   0.20127   0.27298   0.00000  Uiso   1.00
O339   O     0.29873   0.08332   0.72702   0.00000  Uiso   1.00
O340   O     0.20126   0.41668   0.27298   0.00000  Uiso   1.00
O341   O     0.08332   0.20127   0.72702   0.00000  Uiso   1.00
O342   O     0.41668   0.29874   0.27298   0.00000  Uiso   1.00
O343   O     0.45126   0.33332   0.77298   0.00000  Uiso   1.00
O344   O     0.04873   0.16668   0.22702   0.00000  Uiso   1.00
O345   O     0.16668   0.45127   0.77298   0.00000  Uiso   1.00
O346   O     0.00000   0.25000   0.75000   0.00000  Uiso   1.00
O347   O     0.33332   0.04874   0.22702   0.00000  Uiso   1.00
O348   O     0.04873   0.16668   0.77298   0.00000  Uiso   1.00
O349   O     0.45126   0.33332   0.22702   0.00000  Uiso   1.00
O350   O     0.33332   0.04874   0.77298   0.00000  Uiso   1.00
O351   O     0.16668   0.45127   0.22702   0.00000  Uiso   1.00
O352   O     0.45126   0.16668   0.22702   0.00000  Uiso   1.00
O353   O     0.04873   0.33332   0.77298   0.00000  Uiso   1.00
O354   O     0.16668   0.04874   0.22702   0.00000  Uiso   1.00
O355   O     0.33332   0.45127   0.77298   0.00000  Uiso   1.00
O356   O     0.04873   0.33332   0.22702   0.00000  Uiso   1.00
O357   O     0.25000   0.46539   0.33749   0.00000  Uiso   1.00
O358   O     0.45126   0.16668   0.77298   0.00000  Uiso   1.00
O359   O     0.33332   0.45127   0.22702   0.00000  Uiso   1.00
O360   O     0.16668   0.04874   0.77298   0.00000  Uiso   1.00
O361   O     0.25000   0.03462   0.66251   0.00000  Uiso   1.00
O362   O     0.03461   0.25000   0.33749   0.00000  Uiso   1.00
O363   O     0.46538   0.25000   0.66251   0.00000  Uiso   1.00
O364   O     0.25000   0.03462   0.33749   0.00000  Uiso   1.00
Zn365  Zn    0.20052   0.00000   0.21730   0.00000  Uiso   1.00
Zn366  Zn    0.04947   0.25000   0.28270   0.00000  Uiso   1.00
Zn367  Zn    0.25000   0.45053   0.71730   0.00000  Uiso   1.00
Zn368  Zn    0.25000   0.04948   0.28270   0.00000  Uiso   1.00
Zn369  Zn    0.04947   0.25000   0.71730   0.00000  Uiso   1.00
Zn370  Zn    0.45052   0.25000   0.28270   0.00000  Uiso   1.00
Zn371  Zn    0.25000   0.04948   0.71730   0.00000  Uiso   1.00
Zn372  Zn    0.25000   0.45053   0.28270   0.00000  Uiso   1.00
Zn373  Zn    0.29947   0.00000   0.78270   0.00000  Uiso   1.00
Zn374  Zn    0.00000   0.20053   0.21730   0.00000  Uiso   1.00
Zn375  Zn    0.00000   0.29948   0.78270   0.00000  Uiso   1.00
Zn376  Zn    0.29947   0.00000   0.21730   0.00000  Uiso   1.00
Zn377  Zn    0.20052   0.00000   0.78270   0.00000  Uiso   1.00
Zn378  Zn    0.00000   0.29948   0.21730   0.00000  Uiso   1.00
Zn379  Zn    0.00000   0.20053   0.78270   0.00000  Uiso   1.00
Zn380  Zn    0.45052   0.25000   0.71730   0.00000  Uiso   1.00
C381   C     0.75000   0.00000   0.35582   0.00000  Uiso   1.00
C382   C     0.83003   0.41997   0.75000   0.00000  Uiso   1.00
C383   C     0.92411   0.23648   0.01976   0.00000  Uiso   1.00
C384   C     0.76360   0.07588   0.98024   0.00000  Uiso   1.00
C385   C     0.74670   0.42302   0.01981   0.00000  Uiso   1.00
C386   C     0.92301   0.24679   0.98019   0.00000  Uiso   1.00
C387   C     0.57589   0.26353   0.01976   0.00000  Uiso   1.00
C388   C     0.51880   0.34249   0.36800   0.00000  Uiso   1.00
C389   C     0.99779   0.15615   0.63236   0.00000  Uiso   1.00
C390   C     0.65616   0.49752   0.36764   0.00000  Uiso   1.00
C391   C     0.84244   0.01905   0.63199   0.00000  Uiso   1.00
C392   C     0.98120   0.15752   0.36800   0.00000  Uiso   1.00
C393   C     0.91998   0.16998   0.25000   0.00000  Uiso   1.00
C394   C     0.50222   0.34385   0.63236   0.00000  Uiso   1.00
C395   C     0.84384   0.00248   0.36764   0.00000  Uiso   1.00
C396   C     0.65756   0.48095   0.63199   0.00000  Uiso   1.00
C397   C     0.76816   0.09258   0.86798   0.00000  Uiso   1.00
C398   C     0.74842   0.40614   0.13236   0.00000  Uiso   1.00
C399   C     0.90613   0.24851   0.86764   0.00000  Uiso   1.00
C400   C     0.59260   0.26809   0.13202   0.00000  Uiso   1.00
C401   C     0.73184   0.40742   0.86798   0.00000  Uiso   1.00
C402   C     0.75158   0.09386   0.13236   0.00000  Uiso   1.00
C403   C     0.59387   0.25149   0.86764   0.00000  Uiso   1.00
C404   C     0.58002   0.33002   0.75000   0.00000  Uiso   1.00
C405   C     0.90740   0.23191   0.13202   0.00000  Uiso   1.00
C406   C     0.95882   0.13838   0.46422   0.00000  Uiso   1.00
C407   C     0.91566   0.15403   0.45092   0.00000  Uiso   1.00
C408   C     0.98557   0.36791   0.53582   0.00000  Uiso   1.00
C409   C     0.94010   0.36219   0.54946   0.00000  Uiso   1.00
C410   C     0.86795   0.48593   0.46419   0.00000  Uiso   1.00
C411   C     0.86238   0.44044   0.45054   0.00000  Uiso   1.00
C412   C     0.63851   0.45847   0.53578   0.00000  Uiso   1.00
C413   C     0.65430   0.41536   0.54909   0.00000  Uiso   1.00
C414   C     0.54120   0.36161   0.46422   0.00000  Uiso   1.00
C415   C     0.83003   0.41997   0.25000   0.00000  Uiso   1.00
C416   C     0.58435   0.34595   0.45091   0.00000  Uiso   1.00
C417   C     0.51446   0.13210   0.53581   0.00000  Uiso   1.00
C418   C     0.55994   0.13784   0.54945   0.00000  Uiso   1.00
C419   C     0.63205   0.01408   0.46419   0.00000  Uiso   1.00
C420   C     0.63763   0.05957   0.45054   0.00000  Uiso   1.00
C421   C     0.86148   0.04154   0.53578   0.00000  Uiso   1.00
C422   C     0.84569   0.08464   0.54909   0.00000  Uiso   1.00
C423   C     0.70960   0.38810   0.96422   0.00000  Uiso   1.00
C424   C     0.66634   0.40346   0.95090   0.00000  Uiso   1.00
C425   C     0.73473   0.11780   0.03582   0.00000  Uiso   1.00
C426   C     0.66997   0.08003   0.75000   0.00000  Uiso   1.00
C427   C     0.68929   0.11176   0.04945   0.00000  Uiso   1.00
C428   C     0.61779   0.23463   0.96418   0.00000  Uiso   1.00
C429   C     0.61172   0.18920   0.95055   0.00000  Uiso   1.00
C430   C     0.88806   0.20972   0.03578   0.00000  Uiso   1.00
C431   C     0.90337   0.16644   0.04909   0.00000  Uiso   1.00
C432   C     0.79040   0.11190   0.96422   0.00000  Uiso   1.00
C433   C     0.83366   0.09654   0.95090   0.00000  Uiso   1.00
C434   C     0.76527   0.38220   0.03582   0.00000  Uiso   1.00
C435   C     0.81070   0.38823   0.04945   0.00000  Uiso   1.00
C436   C     0.88222   0.26540   0.96418   0.00000  Uiso   1.00
C437   C     0.58002   0.33002   0.25000   0.00000  Uiso   1.00
C438   C     0.88830   0.31083   0.95055   0.00000  Uiso   1.00
C439   C     0.61193   0.29031   0.03578   0.00000  Uiso   1.00
C440   C     0.59661   0.33358   0.04910   0.00000  Uiso   1.00
C441   C     0.91998   0.16998   0.75000   0.00000  Uiso   1.00
C442   C     0.66998   0.41998   0.75000   0.00000  Uiso   1.00
C443   C     0.83002   0.08002   0.25000   0.00000  Uiso   1.00
C444   C     0.91997   0.33003   0.75000   0.00000  Uiso   1.00
C445   C     0.75000   0.00000   0.64417   0.00000  Uiso   1.00
C446   C     0.58003   0.16997   0.25000   0.00000  Uiso   1.00
C447   C     0.83002   0.08002   0.75000   0.00000  Uiso   1.00
C448   C     0.66998   0.41998   0.25000   0.00000  Uiso   1.00
C449   C     0.58003   0.16997   0.75000   0.00000  Uiso   1.00
C450   C     0.91997   0.33003   0.25000   0.00000  Uiso   1.00
C451   C     0.63833   0.38834   0.25000   0.00000  Uiso   1.00
C452   C     0.86166   0.11166   0.75000   0.00000  Uiso   1.00
C453   C     0.61167   0.13833   0.25000   0.00000  Uiso   1.00
C454   C     0.88833   0.36167   0.75000   0.00000  Uiso   1.00
C455   C     0.86166   0.11166   0.25000   0.00000  Uiso   1.00
C456   C     0.50000   0.25000   0.35583   0.00000  Uiso   1.00
C457   C     0.63834   0.38834   0.75000   0.00000  Uiso   1.00
C458   C     0.88833   0.36167   0.25000   0.00000  Uiso   1.00
C459   C     0.61167   0.13833   0.75000   0.00000  Uiso   1.00
C460   C     0.63833   0.11167   0.75000   0.00000  Uiso   1.00
C461   C     0.86167   0.38833   0.25000   0.00000  Uiso   1.00
C462   C     0.61166   0.36166   0.75000   0.00000  Uiso   1.00
C463   C     0.88834   0.13834   0.25000   0.00000  Uiso   1.00
C464   C     0.86167   0.38833   0.75000   0.00000  Uiso   1.00
C465   C     0.63833   0.11167   0.25000   0.00000  Uiso   1.00
C466   C     0.88834   0.13834   0.75000   0.00000  Uiso   1.00
C467   C     0.50000   0.25000   0.64418   0.00000  Uiso   1.00
C468   C     0.61166   0.36166   0.25000   0.00000  Uiso   1.00
C469   C     0.50124   0.28858   0.41802   0.00000  Uiso   1.00
C470   C     0.99214   0.21221   0.58200   0.00000  Uiso   1.00
C471   C     0.71223   0.49202   0.41800   0.00000  Uiso   1.00
C472   C     0.78858   0.00135   0.58198   0.00000  Uiso   1.00
C473   C     0.99876   0.21142   0.41802   0.00000  Uiso   1.00
C474   C     0.50787   0.28779   0.58200   0.00000  Uiso   1.00
C475   C     0.78777   0.00798   0.41800   0.00000  Uiso   1.00
C476   C     0.71142   0.49865   0.58198   0.00000  Uiso   1.00
C477   C     0.75096   0.03859   0.91801   0.00000  Uiso   1.00
C478   C     0.50000   0.25000   0.85582   0.00000  Uiso   1.00
C479   C     0.74240   0.46215   0.08200   0.00000  Uiso   1.00
C480   C     0.96214   0.24244   0.91800   0.00000  Uiso   1.00
C481   C     0.53859   0.25093   0.08198   0.00000  Uiso   1.00
C482   C     0.74904   0.46141   0.91801   0.00000  Uiso   1.00
C483   C     0.75760   0.03785   0.08200   0.00000  Uiso   1.00
C484   C     0.53785   0.25756   0.91800   0.00000  Uiso   1.00
C485   C     0.96141   0.24908   0.08198   0.00000  Uiso   1.00
C486   C     0.50000   0.25000   0.39807   0.00000  Uiso   1.00
C487   C     0.50000   0.25000   0.60195   0.00000  Uiso   1.00
C488   C     0.75000   0.00000   0.39805   0.00000  Uiso   1.00
C489   C     0.50000   0.25000   0.14417   0.00000  Uiso   1.00
C490   C     0.75000   0.00000   0.60193   0.00000  Uiso   1.00
C491   C     0.75000  -0.00000   0.89807   0.00000  Uiso   1.00
C492   C     0.75000  -0.00000   0.10195   0.00000  Uiso   1.00
C493   C     0.50000   0.25000   0.89805   0.00000  Uiso   1.00
C494   C     0.50000   0.25000   0.10193   0.00000  Uiso   1.00
C495   C     0.99441   0.21153   0.45892   0.00000  Uiso   1.00
C496   C     0.50360   0.28870   0.54110   0.00000  Uiso   1.00
C497   C     0.78868   0.00372   0.45890   0.00000  Uiso   1.00
C498   C     0.71154   0.49429   0.54108   0.00000  Uiso   1.00
C499   C     0.50559   0.28847   0.45892   0.00000  Uiso   1.00
C500   C     0.75000   0.00000   0.85583   0.00000  Uiso   1.00
C501   C     0.99641   0.21131   0.54110   0.00000  Uiso   1.00
C502   C     0.71132   0.49628   0.45890   0.00000  Uiso   1.00
C503   C     0.78846   0.00571   0.54108   0.00000  Uiso   1.00
C504   C     0.74469   0.46149   0.95892   0.00000  Uiso   1.00
C505   C     0.75332   0.03872   0.04110   0.00000  Uiso   1.00
C506   C     0.53872   0.25329   0.95890   0.00000  Uiso   1.00
C507   C     0.96148   0.24473   0.04108   0.00000  Uiso   1.00
C508   C     0.75531   0.03851   0.95892   0.00000  Uiso   1.00
C509   C     0.74668   0.46128   0.04110   0.00000  Uiso   1.00
C510   C     0.96128   0.24672   0.95890   0.00000  Uiso   1.00
C511   C     0.75000   0.00000   0.14418   0.00000  Uiso   1.00
C512   C     0.53852   0.25528   0.04108   0.00000  Uiso   1.00
C513   C     0.50000   0.25000   0.47943   0.00000  Uiso   1.00
C514   C     0.50000   0.25000   0.52059   0.00000  Uiso   1.00
C515   C     0.75000   0.00000   0.47941   0.00000  Uiso   1.00
C516   C     0.75000   0.00000   0.52057   0.00000  Uiso   1.00
C517   C     0.75000  -0.00000   0.97943   0.00000  Uiso   1.00
C518   C     0.75000  -0.00000   0.02059   0.00000  Uiso   1.00
C519   C     0.50000   0.25001   0.97941   0.00000  Uiso   1.00
C520   C     0.50000   0.25000   0.02057   0.00000  Uiso   1.00
C521   C     0.98587   0.17422   0.48024   0.00000  Uiso   1.00
C522   C     0.66997   0.08003   0.25000   0.00000  Uiso   1.00
C523   C     0.50385   0.32696   0.51981   0.00000  Uiso   1.00
C524   C     0.82695   0.00408   0.48019   0.00000  Uiso   1.00
C525   C     0.67426   0.48563   0.51976   0.00000  Uiso   1.00
C526   C     0.51415   0.32578   0.48024   0.00000  Uiso   1.00
C527   C     0.99616   0.17304   0.51981   0.00000  Uiso   1.00
C528   C     0.67305   0.49592   0.48019   0.00000  Uiso   1.00
C529   C     0.82574   0.01437   0.51976   0.00000  Uiso   1.00
C530   C     0.73640   0.42412   0.98024   0.00000  Uiso   1.00
C531   C     0.75330   0.07698   0.01981   0.00000  Uiso   1.00
C532   C     0.57698   0.25323   0.98019   0.00000  Uiso   1.00
H533   H     0.97127   0.34774   0.41134   0.00000  Uiso   1.00
H534   H     0.62212   0.49997   0.37451   0.00000  Uiso   1.00
H535   H     0.83189   0.10193   0.52411   0.00000  Uiso   1.00
H536   H     0.82144   0.08174   0.57203   0.00000  Uiso   1.00
H537   H     0.87244   0.10331   0.56076   0.00000  Uiso   1.00
H538   H     0.87923   0.02553   0.55895   0.00000  Uiso   1.00
H539   H     0.88522   0.04840   0.51294   0.00000  Uiso   1.00
H540   H     0.64891   0.41711   0.97587   0.00000  Uiso   1.00
H541   H     0.66901   0.42772   0.92793   0.00000  Uiso   1.00
H542   H     0.64793   0.37652   0.93924   0.00000  Uiso   1.00
H543   H     0.72579   0.37051   0.94106   0.00000  Uiso   1.00
H544   H     0.70296   0.36431   0.98706   0.00000  Uiso   1.00
H545   H     0.65941   0.48107   0.33938   0.00000  Uiso   1.00
H546   H     0.66926   0.10160   0.02472   0.00000  Uiso   1.00
H547   H     0.68704   0.08783   0.07274   0.00000  Uiso   1.00
H548   H     0.67691   0.14204   0.06082   0.00000  Uiso   1.00
H549   H     0.75444   0.13178   0.05879   0.00000  Uiso   1.00
H550   H     0.73305   0.14233   0.01289   0.00000  Uiso   1.00
H551   H     0.60154   0.16917   0.97529   0.00000  Uiso   1.00
H552   H     0.58777   0.18696   0.92727   0.00000  Uiso   1.00
H553   H     0.64198   0.17678   0.93918   0.00000  Uiso   1.00
H554   H     0.63179   0.25433   0.94121   0.00000  Uiso   1.00
H555   H     0.64232   0.23293   0.98712   0.00000  Uiso   1.00
H556   H     0.66911   0.02988   0.36486   0.00000  Uiso   1.00
H557   H     0.91700   0.14900   0.02412   0.00000  Uiso   1.00
H558   H     0.92763   0.16908   0.07206   0.00000  Uiso   1.00
H559   H     0.87640   0.14806   0.06074   0.00000  Uiso   1.00
H560   H     0.87048   0.22592   0.05894   0.00000  Uiso   1.00
H561   H     0.86425   0.20311   0.01293   0.00000  Uiso   1.00
H562   H     0.85108   0.08289   0.97587   0.00000  Uiso   1.00
H563   H     0.83099   0.07228   0.92793   0.00000  Uiso   1.00
H564   H     0.85206   0.12348   0.93924   0.00000  Uiso   1.00
H565   H     0.77421   0.12949   0.94106   0.00000  Uiso   1.00
H566   H     0.79703   0.13569   0.98706   0.00000  Uiso   1.00
H567   H     0.84782   0.47154   0.58864   0.00000  Uiso   1.00
H568   H     0.83074   0.39839   0.02472   0.00000  Uiso   1.00
H569   H     0.81296   0.41217   0.07274   0.00000  Uiso   1.00
H570   H     0.82309   0.35796   0.06082   0.00000  Uiso   1.00
H571   H     0.74555   0.36822   0.05879   0.00000  Uiso   1.00
H572   H     0.76694   0.35766   0.01289   0.00000  Uiso   1.00
H573   H     0.89849   0.33085   0.97528   0.00000  Uiso   1.00
H574   H     0.91224   0.31306   0.92726   0.00000  Uiso   1.00
H575   H     0.85804   0.32325   0.93918   0.00000  Uiso   1.00
H576   H     0.86821   0.24570   0.94121   0.00000  Uiso   1.00
H577   H     0.85768   0.26710   0.98711   0.00000  Uiso   1.00
H578   H     0.87574   0.02728   0.62582   0.00000  Uiso   1.00
H579   H     0.58297   0.35101   0.02413   0.00000  Uiso   1.00
H580   H     0.57235   0.33093   0.07207   0.00000  Uiso   1.00
H581   H     0.62357   0.35196   0.06075   0.00000  Uiso   1.00
H582   H     0.62952   0.27410   0.05894   0.00000  Uiso   1.00
H583   H     0.63573   0.29692   0.01294   0.00000  Uiso   1.00
H584   H     0.84123   0.00308   0.66063   0.00000  Uiso   1.00
H585   H     0.82406   0.04870   0.63351   0.00000  Uiso   1.00
H586   H     0.52874   0.15226   0.41133   0.00000  Uiso   1.00
H587   H     0.97303   0.12421   0.37419   0.00000  Uiso   1.00
H588   H     0.99717   0.15875   0.33937   0.00000  Uiso   1.00
H589   H     0.52697   0.37579   0.37419   0.00000  Uiso   1.00
H590   H     0.95151   0.17584   0.36647   0.00000  Uiso   1.00
H591   H     0.55004   0.33911   0.58913   0.00000  Uiso   1.00
H592   H     0.99969   0.37788   0.62550   0.00000  Uiso   1.00
H593   H     0.51867   0.34063   0.66063   0.00000  Uiso   1.00
H594   H     0.96989   0.33082   0.63513   0.00000  Uiso   1.00
H595   H     0.83896   0.05030   0.41086   0.00000  Uiso   1.00
H596   H     0.87788   0.00003   0.37451   0.00000  Uiso   1.00
H597   H     0.84059   0.01893   0.33938   0.00000  Uiso   1.00
H598   H     0.83089   0.47012   0.36486   0.00000  Uiso   1.00
H599   H     0.65218   0.02846   0.58864   0.00000  Uiso   1.00
H600   H     0.50282   0.34125   0.33937   0.00000  Uiso   1.00
H601   H     0.62426   0.47273   0.62582   0.00000  Uiso   1.00
H602   H     0.65877   0.49692   0.66063   0.00000  Uiso   1.00
H603   H     0.67594   0.45130   0.63351   0.00000  Uiso   1.00
H604   H     0.72059   0.09755   0.91132   0.00000  Uiso   1.00
H605   H     0.77617   0.12593   0.87419   0.00000  Uiso   1.00
H606   H     0.75216   0.09130   0.83936   0.00000  Uiso   1.00
H607   H     0.79793   0.07440   0.86640   0.00000  Uiso   1.00
H608   H     0.70058   0.41055   0.08912   0.00000  Uiso   1.00
H609   H     0.75113   0.37212   0.12552   0.00000  Uiso   1.00
H610   H     0.73197   0.40929   0.16063   0.00000  Uiso   1.00
H611   H     0.54848   0.32416   0.36647   0.00000  Uiso   1.00
H612   H     0.78068   0.41934   0.13510   0.00000  Uiso   1.00
H613   H     0.91050   0.20067   0.91089   0.00000  Uiso   1.00
H614   H     0.87211   0.25125   0.87448   0.00000  Uiso   1.00
H615   H     0.90928   0.23206   0.83937   0.00000  Uiso   1.00
H616   H     0.91936   0.28076   0.86490   0.00000  Uiso   1.00
H617   H     0.59753   0.22051   0.08868   0.00000  Uiso   1.00
H618   H     0.62594   0.27609   0.12581   0.00000  Uiso   1.00
H619   H     0.59130   0.25209   0.16063   0.00000  Uiso   1.00
H620   H     0.57443   0.29787   0.13361   0.00000  Uiso   1.00
H621   H     0.77941   0.40245   0.91132   0.00000  Uiso   1.00
H622   H     0.94997   0.16088   0.58912   0.00000  Uiso   1.00
H623   H     0.72382   0.37407   0.87419   0.00000  Uiso   1.00
H624   H     0.74784   0.40870   0.83936   0.00000  Uiso   1.00
H625   H     0.70206   0.42560   0.86640   0.00000  Uiso   1.00
H626   H     0.79942   0.08945   0.08912   0.00000  Uiso   1.00
H627   H     0.74887   0.12788   0.12552   0.00000  Uiso   1.00
H628   H     0.76803   0.09071   0.16063   0.00000  Uiso   1.00
H629   H     0.71932   0.08066   0.13510   0.00000  Uiso   1.00
H630   H     0.58949   0.29934   0.91088   0.00000  Uiso   1.00
H631   H     0.62789   0.24875   0.87448   0.00000  Uiso   1.00
H632   H     0.59072   0.26794   0.83937   0.00000  Uiso   1.00
H633   H     0.50032   0.12212   0.62550   0.00000  Uiso   1.00
H634   H     0.58064   0.21924   0.86490   0.00000  Uiso   1.00
H635   H     0.90248   0.27950   0.08869   0.00000  Uiso   1.00
H636   H     0.87406   0.22391   0.12581   0.00000  Uiso   1.00
H637   H     0.90869   0.24791   0.16064   0.00000  Uiso   1.00
H638   H     0.92557   0.20213   0.13361   0.00000  Uiso   1.00
H639   H     0.89833   0.16777   0.47590   0.00000  Uiso   1.00
H640   H     0.91848   0.17829   0.42797   0.00000  Uiso   1.00
H641   H     0.89708   0.12721   0.43925   0.00000  Uiso   1.00
H642   H     0.97488   0.12068   0.44106   0.00000  Uiso   1.00
H643   H     0.95204   0.11462   0.48706   0.00000  Uiso   1.00
H644   H     0.98132   0.15937   0.66062   0.00000  Uiso   1.00
H645   H     0.91999   0.35216   0.52473   0.00000  Uiso   1.00
H646   H     0.93768   0.33827   0.57275   0.00000  Uiso   1.00
H647   H     0.92792   0.39255   0.56083   0.00000  Uiso   1.00
H648   H     0.50539   0.38175   0.55878   0.00000  Uiso   1.00
H649   H     0.98406   0.39245   0.51288   0.00000  Uiso   1.00
H650   H     0.85242   0.42030   0.47527   0.00000  Uiso   1.00
H651   H     0.83847   0.43795   0.42726   0.00000  Uiso   1.00
H652   H     0.89277   0.42836   0.43917   0.00000  Uiso   1.00
H653   H     0.88174   0.00579   0.44122   0.00000  Uiso   1.00
H654   H     0.89250   0.48450   0.48712   0.00000  Uiso   1.00
H655   H     0.53011   0.16918   0.63514   0.00000  Uiso   1.00
H656   H     0.66810   0.39807   0.52411   0.00000  Uiso   1.00
H657   H     0.67856   0.41827   0.57203   0.00000  Uiso   1.00
H658   H     0.62755   0.39670   0.56076   0.00000  Uiso   1.00
H659   H     0.62076   0.47448   0.55895   0.00000  Uiso   1.00
H660   H     0.61478   0.45161   0.51295   0.00000  Uiso   1.00
H661   H     0.60168   0.33221   0.47589   0.00000  Uiso   1.00
H662   H     0.58152   0.32170   0.42796   0.00000  Uiso   1.00
H663   H     0.60294   0.37277   0.43924   0.00000  Uiso   1.00
H664   H     0.52514   0.37932   0.44106   0.00000  Uiso   1.00
H665   H     0.54799   0.38537   0.48706   0.00000  Uiso   1.00
H666   H     0.66104   0.44970   0.41086   0.00000  Uiso   1.00
H667   H     0.58003   0.14794   0.52473   0.00000  Uiso   1.00
H668   H     0.56234   0.16172   0.57277   0.00000  Uiso   1.00
H669   H     0.57215   0.10748   0.56076   0.00000  Uiso   1.00
H670   H     0.99466   0.11825   0.55878   0.00000  Uiso   1.00
H671   H     0.51598   0.10756   0.51287   0.00000  Uiso   1.00
H672   H     0.64760   0.07971   0.47527   0.00000  Uiso   1.00
H673   H     0.66154   0.06206   0.42725   0.00000  Uiso   1.00
H674   H     0.60723   0.07165   0.43917   0.00000  Uiso   1.00
H675   H     0.61826   0.49422   0.44122   0.00000  Uiso   1.00
H676   H     0.60750   0.01552   0.48712   0.00000  Uiso   1.00
N677   N     0.99057   0.32633   0.39761   0.00000  Uiso   1.00
N678   N     0.72422   0.42744   0.10252   0.00000  Uiso   1.00
N679   N     0.92741   0.22429   0.89748   0.00000  Uiso   1.00
N680   N     0.57626   0.23999   0.10239   0.00000  Uiso   1.00
N681   N     0.75995   0.42374   0.89761   0.00000  Uiso   1.00
N682   N     0.77578   0.07256   0.10252   0.00000  Uiso   1.00
N683   N     0.57258   0.27572   0.89748   0.00000  Uiso   1.00
N684   N     0.92374   0.26001   0.10240   0.00000  Uiso   1.00
N685   N     0.97372   0.17761   0.60252   0.00000  Uiso   1.00
N686   N     0.67769   0.47351   0.39748   0.00000  Uiso   1.00
N687   N     0.82636   0.49078   0.60238   0.00000  Uiso   1.00
N688   N     0.50943   0.17367   0.39761   0.00000  Uiso   1.00
N689   N     0.52629   0.32238   0.60252   0.00000  Uiso   1.00
N690   N     0.82231   0.02649   0.39748   0.00000  Uiso   1.00
N691   N     0.67364   0.00922   0.60238   0.00000  Uiso   1.00
N692   N     0.74005   0.07626   0.89761   0.00000  Uiso   1.00
O693   O     0.75000   0.00000   0.25000   0.00000  Uiso   1.00
O694   O     0.75000   0.46539   0.66251   0.00000  Uiso   1.00
O695   O     0.96538   0.25000   0.33749   0.00000  Uiso   1.00
O696   O     0.53461   0.25000   0.66251   0.00000  Uiso   1.00
O697   O     0.50000   0.21539   0.83749   0.00000  Uiso   1.00
O698   O     0.50000   0.28462   0.16251   0.00000  Uiso   1.00
O699   O     0.78461   0.00000   0.83749   0.00000  Uiso   1.00
O700   O     0.71538   0.00000   0.16251   0.00000  Uiso   1.00
O701   O     0.50000   0.28462   0.83749   0.00000  Uiso   1.00
O702   O     0.50000   0.21539   0.16251   0.00000  Uiso   1.00
O703   O     0.71538   0.00000   0.83749   0.00000  Uiso   1.00
O704   O     0.75000   0.00000   0.75000   0.00000  Uiso   1.00
O705   O     0.78461   0.00000   0.16251   0.00000  Uiso   1.00
O706   O     0.70126   0.08332   0.27298   0.00000  Uiso   1.00
O707   O     0.79873   0.41668   0.72702   0.00000  Uiso   1.00
O708   O     0.91668   0.20127   0.27298   0.00000  Uiso   1.00
O709   O     0.58332   0.29874   0.72702   0.00000  Uiso   1.00
O710   O     0.79873   0.41668   0.27298   0.00000  Uiso   1.00
O711   O     0.70126   0.08332   0.72702   0.00000  Uiso   1.00
O712   O     0.58332   0.29874   0.27298   0.00000  Uiso   1.00
O713   O     0.91668   0.20127   0.72702   0.00000  Uiso   1.00
O714   O     0.70126   0.41668   0.72702   0.00000  Uiso   1.00
O715   O     0.50000   0.25000   0.25000   0.00000  Uiso   1.00
O716   O     0.79873   0.08332   0.27298   0.00000  Uiso   1.00
O717   O     0.91668   0.29874   0.72702   0.00000  Uiso   1.00
O718   O     0.58332   0.20127   0.27298   0.00000  Uiso   1.00
O719   O     0.79873   0.08332   0.72702   0.00000  Uiso   1.00
O720   O     0.70126   0.41668   0.27298   0.00000  Uiso   1.00
O721   O     0.58332   0.20127   0.72702   0.00000  Uiso   1.00
O722   O     0.91668   0.29874   0.27298   0.00000  Uiso   1.00
O723   O     0.95126   0.33332   0.77298   0.00000  Uiso   1.00
O724   O     0.54873   0.16668   0.22702   0.00000  Uiso   1.00
O725   O     0.66668   0.45127   0.77298   0.00000  Uiso   1.00
O726   O     0.50000   0.25000   0.75000   0.00000  Uiso   1.00
O727   O     0.83332   0.04874   0.22702   0.00000  Uiso   1.00
O728   O     0.54873   0.16668   0.77298   0.00000  Uiso   1.00
O729   O     0.95126   0.33332   0.22702   0.00000  Uiso   1.00
O730   O     0.83332   0.04874   0.77298   0.00000  Uiso   1.00
O731   O     0.66668   0.45127   0.22702   0.00000  Uiso   1.00
O732   O     0.95126   0.16668   0.22702   0.00000  Uiso   1.00
O733   O     0.54873   0.33332   0.77298   0.00000  Uiso   1.00
O734   O     0.66668   0.04874   0.22702   0.00000  Uiso   1.00
O735   O     0.83332   0.45127   0.77298   0.00000  Uiso   1.00
O736   O     0.54873   0.33332   0.22702   0.00000  Uiso   1.00
O737   O     0.75000   0.46539   0.33749   0.00000  Uiso   1.00
O738   O     0.95126   0.16668   0.77298   0.00000  Uiso   1.00
O739   O     0.83332   0.45127   0.22702   0.00000  Uiso   1.00
O740   O     0.66668   0.04874   0.77298   0.00000  Uiso   1.00
O741   O     0.75000   0.03462   0.66251   0.00000  Uiso   1.00
O742   O     0.53461   0.25000   0.33749   0.00000  Uiso   1.00
O743   O     0.96538   0.25000   0.66251   0.00000  Uiso   1.00
O744   O     0.75000   0.03462   0.33749   0.00000  Uiso   1.00
Zn745  Zn    0.70052   0.00000   0.21730   0.00000  Uiso   1.00
Zn746  Zn    0.54947   0.25000   0.28270   0.00000  Uiso   1.00
Zn747  Zn    0.75000   0.45053   0.71730   0.00000  Uiso   1.00
Zn748  Zn    0.75000   0.04948   0.28270   0.00000  Uiso   1.00
Zn749  Zn    0.54947   0.25000   0.71730   0.00000  Uiso   1.00
Zn750  Zn    0.95052   0.25000   0.28270   0.00000  Uiso   1.00
Zn751  Zn    0.75000   0.04948   0.71730   0.00000  Uiso   1.00
Zn752  Zn    0.75000   0.45053   0.28270   0.00000  Uiso   1.00
Zn753  Zn    0.79947   0.00000   0.78270   0.00000  Uiso   1.00
Zn754  Zn    0.50000   0.20053   0.21730   0.00000  Uiso   1.00
Zn755  Zn    0.50000   0.29948   0.78270   0.00000  Uiso   1.00
Zn756  Zn    0.79947   0.00000   0.21730   0.00000  Uiso   1.00
Zn757  Zn    0.70052   0.00000   0.78270   0.00000  Uiso   1.00
Zn758  Zn    0.50000   0.29948   0.21730   0.00000  Uiso   1.00
Zn759  Zn    0.50000   0.20053   0.78270   0.00000  Uiso   1.00
Zn760  Zn    0.95052   0.25000   0.71730   0.00000  Uiso   1.00
C761   C     0.25000   0.50000   0.35582   0.00000  Uiso   1.00
C762   C     0.33003   0.91997   0.75000   0.00000  Uiso   1.00
C763   C     0.42411   0.73648   0.01976   0.00000  Uiso   1.00
C764   C     0.26360   0.57588   0.98024   0.00000  Uiso   1.00
C765   C     0.24670   0.92302   0.01981   0.00000  Uiso   1.00
C766   C     0.42301   0.74679   0.98019   0.00000  Uiso   1.00
C767   C     0.07589   0.76353   0.01976   0.00000  Uiso   1.00
C768   C     0.01880   0.84249   0.36800   0.00000  Uiso   1.00
C769   C     0.49779   0.65615   0.63236   0.00000  Uiso   1.00
C770   C     0.15616   0.99752   0.36764   0.00000  Uiso   1.00
C771   C     0.34244   0.51905   0.63199   0.00000  Uiso   1.00
C772   C     0.48120   0.65752   0.36800   0.00000  Uiso   1.00
C773   C     0.41998   0.66998   0.25000   0.00000  Uiso   1.00
C774   C     0.00222   0.84385   0.63236   0.00000  Uiso   1.00
C775   C     0.34384   0.50248   0.36764   0.00000  Uiso   1.00
C776   C     0.15756   0.98095   0.63199   0.00000  Uiso   1.00
C777   C     0.26816   0.59258   0.86798   0.00000  Uiso   1.00
C778   C     0.24842   0.90614   0.13236   0.00000  Uiso   1.00
C779   C     0.40613   0.74851   0.86764   0.00000  Uiso   1.00
C780   C     0.09260   0.76809   0.13202   0.00000  Uiso   1.00
C781   C     0.23184   0.90742   0.86798   0.00000  Uiso   1.00
C782   C     0.25158   0.59386   0.13236   0.00000  Uiso   1.00
C783   C     0.09387   0.75149   0.86764   0.00000  Uiso   1.00
C784   C     0.08002   0.83002   0.75000   0.00000  Uiso   1.00
C785   C     0.40740   0.73191   0.13202   0.00000  Uiso   1.00
C786   C     0.45882   0.63838   0.46422   0.00000  Uiso   1.00
C787   C     0.41566   0.65403   0.45092   0.00000  Uiso   1.00
C788   C     0.48557   0.86791   0.53582   0.00000  Uiso   1.00
C789   C     0.44010   0.86219   0.54946   0.00000  Uiso   1.00
C790   C     0.36795   0.98593   0.46419   0.00000  Uiso   1.00
C791   C     0.36238   0.94044   0.45054   0.00000  Uiso   1.00
C792   C     0.13851   0.95847   0.53578   0.00000  Uiso   1.00
C793   C     0.15430   0.91536   0.54909   0.00000  Uiso   1.00
C794   C     0.04120   0.86161   0.46422   0.00000  Uiso   1.00
C795   C     0.33003   0.91997   0.25000   0.00000  Uiso   1.00
C796   C     0.08435   0.84595   0.45091   0.00000  Uiso   1.00
C797   C     0.01446   0.63210   0.53581   0.00000  Uiso   1.00
C798   C     0.05994   0.63784   0.54945   0.00000  Uiso   1.00
C799   C     0.13205   0.51408   0.46419   0.00000  Uiso   1.00
C800   C     0.13763   0.55957   0.45054   0.00000  Uiso   1.00
C801   C     0.36148   0.54154   0.53578   0.00000  Uiso   1.00
C802   C     0.34569   0.58464   0.54909   0.00000  Uiso   1.00
C803   C     0.20960   0.88810   0.96422   0.00000  Uiso   1.00
C804   C     0.16634   0.90346   0.95090   0.00000  Uiso   1.00
C805   C     0.23473   0.61780   0.03582   0.00000  Uiso   1.00
C806   C     0.16997   0.58003   0.75000   0.00000  Uiso   1.00
C807   C     0.18929   0.61176   0.04945   0.00000  Uiso   1.00
C808   C     0.11779   0.73463   0.96418   0.00000  Uiso   1.00
C809   C     0.11172   0.68920   0.95055   0.00000  Uiso   1.00
C810   C     0.38806   0.70972   0.03578   0.00000  Uiso   1.00
C811   C     0.40337   0.66644   0.04909   0.00000  Uiso   1.00
C812   C     0.29040   0.61190   0.96422   0.00000  Uiso   1.00
C813   C     0.33366   0.59654   0.95090   0.00000  Uiso   1.00
C814   C     0.26527   0.88220   0.03582   0.00000  Uiso   1.00
C815   C     0.31070   0.88823   0.04945   0.00000  Uiso   1.00
C816   C     0.38222   0.76540   0.96418   0.00000  Uiso   1.00
C817   C     0.08002   0.83002   0.25000   0.00000  Uiso   1.00
C818   C     0.38830   0.81083   0.95055   0.00000  Uiso   1.00
C819   C     0.11193   0.79031   0.03578   0.00000  Uiso   1.00
C820   C     0.09661   0.83358   0.04910   0.00000  Uiso   1.00
C821   C     0.41998   0.66998   0.75000   0.00000  Uiso   1.00
C822   C     0.16998   0.91998   0.75000   0.00000  Uiso   1.00
C823   C     0.33002   0.58002   0.25000   0.00000  Uiso   1.00
C824   C     0.41997   0.83003   0.75000   0.00000  Uiso   1.00
C825   C     0.25000   0.50000   0.64417   0.00000  Uiso   1.00
C826   C     0.08003   0.66997   0.25000   0.00000  Uiso   1.00
C827   C     0.33002   0.58002   0.75000   0.00000  Uiso   1.00
C828   C     0.16998   0.91998   0.25000   0.00000  Uiso   1.00
C829   C     0.08003   0.66997   0.75000   0.00000  Uiso   1.00
C830   C     0.41997   0.83003   0.25000   0.00000  Uiso   1.00
C831   C     0.13833   0.88834   0.25000   0.00000  Uiso   1.00
C832   C     0.36166   0.61166   0.75000   0.00000  Uiso   1.00
C833   C     0.11167   0.63833   0.25000   0.00000  Uiso   1.00
C834   C     0.38833   0.86167   0.75000   0.00000  Uiso   1.00
C835   C     0.36166   0.61166   0.25000   0.00000  Uiso   1.00
C836   C    -0.00000   0.75000   0.35583   0.00000  Uiso   1.00
C837   C     0.13834   0.88834   0.75000   0.00000  Uiso   1.00
C838   C     0.38833   0.86167   0.25000   0.00000  Uiso   1.00
C839   C     0.11167   0.63833   0.75000   0.00000  Uiso   1.00
C840   C     0.13833   0.61167   0.75000   0.00000  Uiso   1.00
C841   C     0.36167   0.88833   0.25000   0.00000  Uiso   1.00
C842   C     0.11166   0.86166   0.75000   0.00000  Uiso   1.00
C843   C     0.38834   0.63834   0.25000   0.00000  Uiso   1.00
C844   C     0.36167   0.88833   0.75000   0.00000  Uiso   1.00
C845   C     0.13833   0.61167   0.25000   0.00000  Uiso   1.00
C846   C     0.38834   0.63834   0.75000   0.00000  Uiso   1.00
C847   C     0.00000   0.75000   0.64418   0.00000  Uiso   1.00
C848   C     0.11166   0.86166   0.25000   0.00000  Uiso   1.00
C849   C     0.00124   0.78858   0.41802   0.00000  Uiso   1.00
C850   C     0.49214   0.71221   0.58200   0.00000  Uiso   1.00
C851   C     0.21223   0.99202   0.41800   0.00000  Uiso   1.00
C852   C     0.28858   0.50135   0.58198   0.00000  Uiso   1.00
C853   C     0.49876   0.71142   0.41802   0.00000  Uiso   1.00
C854   C     0.00787   0.78779   0.58200   0.00000  Uiso   1.00
C855   C     0.28777   0.50798   0.41800   0.00000  Uiso   1.00
C856   C     0.21142   0.99865   0.58198   0.00000  Uiso   1.00
C857   C     0.25096   0.53859   0.91801   0.00000  Uiso   1.00
C858   C    -0.00000   0.75000   0.85582   0.00000  Uiso   1.00
C859   C     0.24240   0.96215   0.08200   0.00000  Uiso   1.00
C860   C     0.46214   0.74244   0.91800   0.00000  Uiso   1.00
C861   C     0.03859   0.75093   0.08198   0.00000  Uiso   1.00
C862   C     0.24904   0.96141   0.91801   0.00000  Uiso   1.00
C863   C     0.25760   0.53785   0.08200   0.00000  Uiso   1.00
C864   C     0.03785   0.75756   0.91800   0.00000  Uiso   1.00
C865   C     0.46141   0.74908   0.08198   0.00000  Uiso   1.00
C866   C    -0.00000   0.75000   0.39807   0.00000  Uiso   1.00
C867   C     0.00000   0.75000   0.60195   0.00000  Uiso   1.00
C868   C     0.25000   0.50000   0.39805   0.00000  Uiso   1.00
C869   C    -0.00000   0.75000   0.14417   0.00000  Uiso   1.00
C870   C     0.25000   0.50000   0.60193   0.00000  Uiso   1.00
C871   C     0.25000   0.50000   0.89807   0.00000  Uiso   1.00
C872   C     0.25000   0.50000   0.10195   0.00000  Uiso   1.00
C873   C     0.00000   0.75000   0.89805   0.00000  Uiso   1.00
C874   C    -0.00000   0.75000   0.10193   0.00000  Uiso   1.00
C875   C     0.49441   0.71153   0.45892   0.00000  Uiso   1.00
C876   C     0.00360   0.78870   0.54110   0.00000  Uiso   1.00
C877   C     0.28868   0.50372   0.45890   0.00000  Uiso   1.00
C878   C     0.21154   0.99429   0.54108   0.00000  Uiso   1.00
C879   C     0.00559   0.78847   0.45892   0.00000  Uiso   1.00
C880   C     0.25000   0.50000   0.85583   0.00000  Uiso   1.00
C881   C     0.49641   0.71131   0.54110   0.00000  Uiso   1.00
C882   C     0.21132   0.99628   0.45890   0.00000  Uiso   1.00
C883   C     0.28846   0.50571   0.54108   0.00000  Uiso   1.00
C884   C     0.24469   0.96149   0.95892   0.00000  Uiso   1.00
C885   C     0.25332   0.53872   0.04110   0.00000  Uiso   1.00
C886   C     0.03872   0.75329   0.95890   0.00000  Uiso   1.00
C887   C     0.46148   0.74473   0.04108   0.00000  Uiso   1.00
C888   C     0.25531   0.53851   0.95892   0.00000  Uiso   1.00
C889   C     0.24668   0.96128   0.04110   0.00000  Uiso   1.00
C890   C     0.46128   0.74672   0.95890   0.00000  Uiso   1.00
C891   C     0.25000   0.50000   0.14418   0.00000  Uiso   1.00
C892   C     0.03852   0.75528   0.04108   0.00000  Uiso   1.00
C893   C     0.00000   0.75000   0.47943   0.00000  Uiso   1.00
C894   C     0.00000   0.75000   0.52059   0.00000  Uiso   1.00
C895   C     0.25000   0.50000   0.47941   0.00000  Uiso   1.00
C896   C     0.25000   0.50000   0.52057   0.00000  Uiso   1.00
C897   C     0.25000   0.50000   0.97943   0.00000  Uiso   1.00
C898   C     0.25000   0.50000   0.02059   0.00000  Uiso   1.00
C899   C    -0.00000   0.75001   0.97941   0.00000  Uiso   1.00
C900   C    -0.00000   0.75000   0.02057   0.00000  Uiso   1.00
C901   C     0.48587   0.67422   0.48024   0.00000  Uiso   1.00
C902   C     0.16997   0.58003   0.25000   0.00000  Uiso   1.00
C903   C     0.00385   0.82696   0.51981   0.00000  Uiso   1.00
C904   C     0.32695   0.50408   0.48019   0.00000  Uiso   1.00
C905   C     0.17426   0.98563   0.51976   0.00000  Uiso   1.00
C906   C     0.01415   0.82578   0.48024   0.00000  Uiso   1.00
C907   C     0.49616   0.67304   0.51981   0.00000  Uiso   1.00
C908   C     0.17305   0.99592   0.48019   0.00000  Uiso   1.00
C909   C     0.32574   0.51437   0.51976   0.00000  Uiso   1.00
C910   C     0.23640   0.92412   0.98024   0.00000  Uiso   1.00
C911   C     0.25330   0.57698   0.01981   0.00000  Uiso   1.00
C912   C     0.07698   0.75323   0.98019   0.00000  Uiso   1.00
H913   H     0.47127   0.84774   0.41134   0.00000  Uiso   1.00
H914   H     0.12212   0.99997   0.37451   0.00000  Uiso   1.00
H915   H     0.33189   0.60193   0.52411   0.00000  Uiso   1.00
H916   H     0.32144   0.58174   0.57203   0.00000  Uiso   1.00
H917   H     0.37244   0.60331   0.56076   0.00000  Uiso   1.00
H918   H     0.37923   0.52553   0.55895   0.00000  Uiso   1.00
H919   H     0.38522   0.54840   0.51294   0.00000  Uiso   1.00
H920   H     0.14891   0.91711   0.97587   0.00000  Uiso   1.00
H921   H     0.16901   0.92772   0.92793   0.00000  Uiso   1.00
H922   H     0.14793   0.87652   0.93924   0.00000  Uiso   1.00
H923   H     0.22579   0.87051   0.94106   0.00000  Uiso   1.00
H924   H     0.20296   0.86431   0.98706   0.00000  Uiso   1.00
H925   H     0.15941   0.98107   0.33938   0.00000  Uiso   1.00
H926   H     0.16926   0.60160   0.02472   0.00000  Uiso   1.00
H927   H     0.18704   0.58783   0.07274   0.00000  Uiso   1.00
H928   H     0.17691   0.64204   0.06082   0.00000  Uiso   1.00
H929   H     0.25444   0.63178   0.05879   0.00000  Uiso   1.00
H930   H     0.23305   0.64233   0.01289   0.00000  Uiso   1.00
H931   H     0.10154   0.66917   0.97529   0.00000  Uiso   1.00
H932   H     0.08777   0.68696   0.92727   0.00000  Uiso   1.00
H933   H     0.14198   0.67678   0.93918   0.00000  Uiso   1.00
H934   H     0.13179   0.75433   0.94121   0.00000  Uiso   1.00
H935   H     0.14232   0.73293   0.98712   0.00000  Uiso   1.00
H936   H     0.16911   0.52988   0.36486   0.00000  Uiso   1.00
H937   H     0.41700   0.64900   0.02412   0.00000  Uiso   1.00
H938   H     0.42763   0.66908   0.07206   0.00000  Uiso   1.00
H939   H     0.37640   0.64806   0.06074   0.00000  Uiso   1.00
H940   H     0.37048   0.72592   0.05894   0.00000  Uiso   1.00
H941   H     0.36425   0.70311   0.01293   0.00000  Uiso   1.00
H942   H     0.35108   0.58289   0.97587   0.00000  Uiso   1.00
H943   H     0.33099   0.57228   0.92793   0.00000  Uiso   1.00
H944   H     0.35206   0.62348   0.93924   0.00000  Uiso   1.00
H945   H     0.27421   0.62949   0.94106   0.00000  Uiso   1.00
H946   H     0.29703   0.63569   0.98706   0.00000  Uiso   1.00
H947   H     0.34782   0.97154   0.58864   0.00000  Uiso   1.00
H948   H     0.33074   0.89839   0.02472   0.00000  Uiso   1.00
H949   H     0.31296   0.91217   0.07274   0.00000  Uiso   1.00
H950   H     0.32309   0.85796   0.06082   0.00000  Uiso   1.00
H951   H     0.24555   0.86822   0.05879   0.00000  Uiso   1.00
H952   H     0.26694   0.85766   0.01289   0.00000  Uiso   1.00
H953   H     0.39849   0.83085   0.97528   0.00000  Uiso   1.00
H954   H     0.41224   0.81306   0.92726   0.00000  Uiso   1.00
H955   H     0.35804   0.82325   0.93918   0.00000  Uiso   1.00
H956   H     0.36821   0.74570   0.94121   0.00000  Uiso   1.00
H957   H     0.35768   0.76710   0.98711   0.00000  Uiso   1.00
H958   H     0.37574   0.52728   0.62582   0.00000  Uiso   1.00
H959   H     0.08297   0.85101   0.02413   0.00000  Uiso   1.00
H960   H     0.07235   0.83093   0.07207   0.00000  Uiso   1.00
H961   H     0.12357   0.85196   0.06075   0.00000  Uiso   1.00
H962   H     0.12952   0.77410   0.05894   0.00000  Uiso   1.00
H963   H     0.13573   0.79692   0.01294   0.00000  Uiso   1.00
H964   H     0.34123   0.50308   0.66063   0.00000  Uiso   1.00
H965   H     0.32406   0.54870   0.63351   0.00000  Uiso   1.00
H966   H     0.02874   0.65226   0.41133   0.00000  Uiso   1.00
H967   H     0.47303   0.62421   0.37419   0.00000  Uiso   1.00
H968   H     0.49717   0.65875   0.33937   0.00000  Uiso   1.00
H969   H     0.02697   0.87579   0.37419   0.00000  Uiso   1.00
H970   H     0.45151   0.67584   0.36647   0.00000  Uiso   1.00
H971   H     0.05004   0.83911   0.58913   0.00000  Uiso   1.00
H972   H     0.49969   0.87788   0.62550   0.00000  Uiso   1.00
H973   H     0.01867   0.84063   0.66063   0.00000  Uiso   1.00
H974   H     0.46989   0.83082   0.63513   0.00000  Uiso   1.00
H975   H     0.33896   0.55030   0.41086   0.00000  Uiso   1.00
H976   H     0.37788   0.50003   0.37451   0.00000  Uiso   1.00
H977   H     0.34059   0.51893   0.33938   0.00000  Uiso   1.00
H978   H     0.33089   0.97012   0.36486   0.00000  Uiso   1.00
H979   H     0.15218   0.52846   0.58864   0.00000  Uiso   1.00
H980   H     0.00282   0.84125   0.33937   0.00000  Uiso   1.00
H981   H     0.12426   0.97273   0.62582   0.00000  Uiso   1.00
H982   H     0.15877   0.99692   0.66063   0.00000  Uiso   1.00
H983   H     0.17594   0.95130   0.63351   0.00000  Uiso   1.00
H984   H     0.22059   0.59755   0.91132   0.00000  Uiso   1.00
H985   H     0.27617   0.62593   0.87419   0.00000  Uiso   1.00
H986   H     0.25216   0.59130   0.83936   0.00000  Uiso   1.00
H987   H     0.29793   0.57440   0.86640   0.00000  Uiso   1.00
H988   H     0.20058   0.91055   0.08912   0.00000  Uiso   1.00
H989   H     0.25113   0.87212   0.12552   0.00000  Uiso   1.00
H990   H     0.23197   0.90929   0.16063   0.00000  Uiso   1.00
H991   H     0.04848   0.82416   0.36647   0.00000  Uiso   1.00
H992   H     0.28068   0.91934   0.13510   0.00000  Uiso   1.00
H993   H     0.41050   0.70067   0.91089   0.00000  Uiso   1.00
H994   H     0.37211   0.75125   0.87448   0.00000  Uiso   1.00
H995   H     0.40928   0.73206   0.83937   0.00000  Uiso   1.00
H996   H     0.41936   0.78076   0.86490   0.00000  Uiso   1.00
H997   H     0.09753   0.72051   0.08868   0.00000  Uiso   1.00
H998   H     0.12594   0.77609   0.12581   0.00000  Uiso   1.00
H999   H     0.09130   0.75209   0.16063   0.00000  Uiso   1.00
H1000  H     0.07443   0.79787   0.13361   0.00000  Uiso   1.00
H1001  H     0.27941   0.90245   0.91132   0.00000  Uiso   1.00
H1002  H     0.44997   0.66088   0.58912   0.00000  Uiso   1.00
H1003  H     0.22382   0.87407   0.87419   0.00000  Uiso   1.00
H1004  H     0.24784   0.90870   0.83936   0.00000  Uiso   1.00
H1005  H     0.20206   0.92560   0.86640   0.00000  Uiso   1.00
H1006  H     0.29942   0.58945   0.08912   0.00000  Uiso   1.00
H1007  H     0.24887   0.62788   0.12552   0.00000  Uiso   1.00
H1008  H     0.26803   0.59071   0.16063   0.00000  Uiso   1.00
H1009  H     0.21932   0.58066   0.13510   0.00000  Uiso   1.00
H1010  H     0.08949   0.79934   0.91088   0.00000  Uiso   1.00
H1011  H     0.12789   0.74875   0.87448   0.00000  Uiso   1.00
H1012  H     0.09072   0.76794   0.83937   0.00000  Uiso   1.00
H1013  H     0.00032   0.62212   0.62550   0.00000  Uiso   1.00
H1014  H     0.08064   0.71924   0.86490   0.00000  Uiso   1.00
H1015  H     0.40248   0.77950   0.08869   0.00000  Uiso   1.00
H1016  H     0.37406   0.72391   0.12581   0.00000  Uiso   1.00
H1017  H     0.40869   0.74791   0.16064   0.00000  Uiso   1.00
H1018  H     0.42557   0.70213   0.13361   0.00000  Uiso   1.00
H1019  H     0.39833   0.66777   0.47590   0.00000  Uiso   1.00
H1020  H     0.41848   0.67829   0.42797   0.00000  Uiso   1.00
H1021  H     0.39708   0.62721   0.43925   0.00000  Uiso   1.00
H1022  H     0.47488   0.62068   0.44106   0.00000  Uiso   1.00
H1023  H     0.45204   0.61462   0.48706   0.00000  Uiso   1.00
H1024  H     0.48132   0.65937   0.66062   0.00000  Uiso   1.00
H1025  H     0.41999   0.85216   0.52473   0.00000  Uiso   1.00
H1026  H     0.43768   0.83827   0.57275   0.00000  Uiso   1.00
H1027  H     0.42792   0.89255   0.56083   0.00000  Uiso   1.00
H1028  H     0.00539   0.88175   0.55878   0.00000  Uiso   1.00
H1029  H     0.48406   0.89245   0.51288   0.00000  Uiso   1.00
H1030  H     0.35242   0.92030   0.47527   0.00000  Uiso   1.00
H1031  H     0.33847   0.93795   0.42726   0.00000  Uiso   1.00
H1032  H     0.39277   0.92836   0.43917   0.00000  Uiso   1.00
H1033  H     0.38174   0.50579   0.44122   0.00000  Uiso   1.00
H1034  H     0.39250   0.98450   0.48712   0.00000  Uiso   1.00
H1035  H     0.03011   0.66918   0.63514   0.00000  Uiso   1.00
H1036  H     0.16810   0.89807   0.52411   0.00000  Uiso   1.00
H1037  H     0.17856   0.91827   0.57203   0.00000  Uiso   1.00
H1038  H     0.12755   0.89670   0.56076   0.00000  Uiso   1.00
H1039  H     0.12076   0.97448   0.55895   0.00000  Uiso   1.00
H1040  H     0.11478   0.95161   0.51295   0.00000  Uiso   1.00
H1041  H     0.10168   0.83221   0.47589   0.00000  Uiso   1.00
H1042  H     0.08152   0.82170   0.42796   0.00000  Uiso   1.00
H1043  H     0.10294   0.87277   0.43924   0.00000  Uiso   1.00
H1044  H     0.02514   0.87932   0.44106   0.00000  Uiso   1.00
H1045  H     0.04799   0.88537   0.48706   0.00000  Uiso   1.00
H1046  H     0.16104   0.94970   0.41086   0.00000  Uiso   1.00
H1047  H     0.08003   0.64794   0.52473   0.00000  Uiso   1.00
H1048  H     0.06234   0.66172   0.57277   0.00000  Uiso   1.00
H1049  H     0.07215   0.60748   0.56076   0.00000  Uiso   1.00
H1050  H     0.49466   0.61825   0.55878   0.00000  Uiso   1.00
H1051  H     0.01598   0.60756   0.51287   0.00000  Uiso   1.00
H1052  H     0.14760   0.57971   0.47527   0.00000  Uiso   1.00
H1053  H     0.16154   0.56206   0.42725   0.00000  Uiso   1.00
H1054  H     0.10723   0.57165   0.43917   0.00000  Uiso   1.00
H1055  H     0.11826   0.99422   0.44122   0.00000  Uiso   1.00
H1056  H     0.10750   0.51552   0.48712   0.00000  Uiso   1.00
N1057  N     0.49057   0.82633   0.39761   0.00000  Uiso   1.00
N1058  N     0.22422   0.92744   0.10252   0.00000  Uiso   1.00
N1059  N     0.42741   0.72429   0.89748   0.00000  Uiso   1.00
N1060  N     0.07626   0.73999   0.10239   0.00000  Uiso   1.00
N1061  N     0.25995   0.92374   0.89761   0.00000  Uiso   1.00
N1062  N     0.27578   0.57256   0.10252   0.00000  Uiso   1.00
N1063  N     0.07258   0.77572   0.89748   0.00000  Uiso   1.00
N1064  N     0.42374   0.76001   0.10240   0.00000  Uiso   1.00
N1065  N     0.47372   0.67761   0.60252   0.00000  Uiso   1.00
N1066  N     0.17769   0.97351   0.39748   0.00000  Uiso   1.00
N1067  N     0.32636   0.99078   0.60238   0.00000  Uiso   1.00
N1068  N     0.00943   0.67367   0.39761   0.00000  Uiso   1.00
N1069  N     0.02629   0.82238   0.60252   0.00000  Uiso   1.00
N1070  N     0.32231   0.52649   0.39748   0.00000  Uiso   1.00
N1071  N     0.17364   0.50922   0.60238   0.00000  Uiso   1.00
N1072  N     0.24005   0.57626   0.89761   0.00000  Uiso   1.00
O1073  O     0.25000   0.50000   0.25000   0.00000  Uiso   1.00
O1074  O     0.25000   0.96539   0.66251   0.00000  Uiso   1.00
O1075  O     0.46538   0.75000   0.33749   0.00000  Uiso   1.00
O1076  O     0.03461   0.75000   0.66251   0.00000  Uiso   1.00
O1077  O     0.00000   0.71539   0.83749   0.00000  Uiso   1.00
O1078  O    -0.00000   0.78462   0.16251   0.00000  Uiso   1.00
O1079  O     0.28461   0.50000   0.83749   0.00000  Uiso   1.00
O1080  O     0.21538   0.50000   0.16251   0.00000  Uiso   1.00
O1081  O    -0.00000   0.78462   0.83749   0.00000  Uiso   1.00
O1082  O    -0.00000   0.71539   0.16251   0.00000  Uiso   1.00
O1083  O     0.21538   0.50000   0.83749   0.00000  Uiso   1.00
O1084  O     0.25000   0.50000   0.75000   0.00000  Uiso   1.00
O1085  O     0.28461   0.50000   0.16251   0.00000  Uiso   1.00
O1086  O     0.20126   0.58332   0.27298   0.00000  Uiso   1.00
O1087  O     0.29873   0.91668   0.72702   0.00000  Uiso   1.00
O1088  O     0.41668   0.70127   0.27298   0.00000  Uiso   1.00
O1089  O     0.08332   0.79874   0.72702   0.00000  Uiso   1.00
O1090  O     0.29873   0.91668   0.27298   0.00000  Uiso   1.00
O1091  O     0.20126   0.58332   0.72702   0.00000  Uiso   1.00
O1092  O     0.08332   0.79874   0.27298   0.00000  Uiso   1.00
O1093  O     0.41668   0.70127   0.72702   0.00000  Uiso   1.00
O1094  O     0.20126   0.91668   0.72702   0.00000  Uiso   1.00
O1095  O     0.00000   0.75000   0.25000   0.00000  Uiso   1.00
O1096  O     0.29873   0.58332   0.27298   0.00000  Uiso   1.00
O1097  O     0.41668   0.79874   0.72702   0.00000  Uiso   1.00
O1098  O     0.08332   0.70127   0.27298   0.00000  Uiso   1.00
O1099  O     0.29873   0.58332   0.72702   0.00000  Uiso   1.00
O1100  O     0.20126   0.91668   0.27298   0.00000  Uiso   1.00
O1101  O     0.08332   0.70127   0.72702   0.00000  Uiso   1.00
O1102  O     0.41668   0.79874   0.27298   0.00000  Uiso   1.00
O1103  O     0.45126   0.83332   0.77298   0.00000  Uiso   1.00
O1104  O     0.04873   0.66668   0.22702   0.00000  Uiso   1.00
O1105  O     0.16668   0.95127   0.77298   0.00000  Uiso   1.00
O1106  O     0.00000   0.75000   0.75000   0.00000  Uiso   1.00
O1107  O     0.33332   0.54874   0.22702   0.00000  Uiso   1.00
O1108  O     0.04873   0.66668   0.77298   0.00000  Uiso   1.00
O1109  O     0.45126   0.83332   0.22702   0.00000  Uiso   1.00
O1110  O     0.33332   0.54874   0.77298   0.00000  Uiso   1.00
O1111  O     0.16668   0.95127   0.22702   0.00000  Uiso   1.00
O1112  O     0.45126   0.66668   0.22702   0.00000  Uiso   1.00
O1113  O     0.04873   0.83332   0.77298   0.00000  Uiso   1.00
O1114  O     0.16668   0.54874   0.22702   0.00000  Uiso   1.00
O1115  O     0.33332   0.95127   0.77298   0.00000  Uiso   1.00
O1116  O     0.04873   0.83332   0.22702   0.00000  Uiso   1.00
O1117  O     0.25000   0.96539   0.33749   0.00000  Uiso   1.00
O1118  O     0.45126   0.66668   0.77298   0.00000  Uiso   1.00
O1119  O     0.33332   0.95127   0.22702   0.00000  Uiso   1.00
O1120  O     0.16668   0.54874   0.77298   0.00000  Uiso   1.00
O1121  O     0.25000   0.53462   0.66251   0.00000  Uiso   1.00
O1122  O     0.03461   0.75000   0.33749   0.00000  Uiso   1.00
O1123  O     0.46538   0.75000   0.66251   0.00000  Uiso   1.00
O1124  O     0.25000   0.53462   0.33749   0.00000  Uiso   1.00
Zn1125 Zn    0.20052   0.50000   0.21730   0.00000  Uiso   1.00
Zn1126 Zn    0.04947   0.75000   0.28270   0.00000  Uiso   1.00
Zn1127 Zn    0.25000   0.95053   0.71730   0.00000  Uiso   1.00
Zn1128 Zn    0.25000   0.54948   0.28270   0.00000  Uiso   1.00
Zn1129 Zn    0.04947   0.75000   0.71730   0.00000  Uiso   1.00
Zn1130 Zn    0.45052   0.75000   0.28270   0.00000  Uiso   1.00
Zn1131 Zn    0.25000   0.54948   0.71730   0.00000  Uiso   1.00
Zn1132 Zn    0.25000   0.95053   0.28270   0.00000  Uiso   1.00
Zn1133 Zn    0.29947   0.50000   0.78270   0.00000  Uiso   1.00
Zn1134 Zn    0.00000   0.70053   0.21730   0.00000  Uiso   1.00
Zn1135 Zn    0.00000   0.79948   0.78270   0.00000  Uiso   1.00
Zn1136 Zn    0.29947   0.50000   0.21730   0.00000  Uiso   1.00
Zn1137 Zn    0.20052   0.50000   0.78270   0.00000  Uiso   1.00
Zn1138 Zn    0.00000   0.79948   0.21730   0.00000  Uiso   1.00
Zn1139 Zn    0.00000   0.70053   0.78270   0.00000  Uiso   1.00
Zn1140 Zn    0.45052   0.75000   0.71730   0.00000  Uiso   1.00
C1141  C     0.75000   0.50000   0.35582   0.00000  Uiso   1.00
C1142  C     0.83003   0.91997   0.75000   0.00000  Uiso   1.00
C1143  C     0.92411   0.73648   0.01976   0.00000  Uiso   1.00
C1144  C     0.76360   0.57588   0.98024   0.00000  Uiso   1.00
C1145  C     0.74670   0.92302   0.01981   0.00000  Uiso   1.00
C1146  C     0.92301   0.74679   0.98019   0.00000  Uiso   1.00
C1147  C     0.57589   0.76353   0.01976   0.00000  Uiso   1.00
C1148  C     0.51880   0.84249   0.36800   0.00000  Uiso   1.00
C1149  C     0.99779   0.65615   0.63236   0.00000  Uiso   1.00
C1150  C     0.65616   0.99752   0.36764   0.00000  Uiso   1.00
C1151  C     0.84244   0.51905   0.63199   0.00000  Uiso   1.00
C1152  C     0.98120   0.65752   0.36800   0.00000  Uiso   1.00
C1153  C     0.91998   0.66998   0.25000   0.00000  Uiso   1.00
C1154  C     0.50222   0.84385   0.63236   0.00000  Uiso   1.00
C1155  C     0.84384   0.50248   0.36764   0.00000  Uiso   1.00
C1156  C     0.65756   0.98095   0.63199   0.00000  Uiso   1.00
C1157  C     0.76816   0.59258   0.86798   0.00000  Uiso   1.00
C1158  C     0.74842   0.90614   0.13236   0.00000  Uiso   1.00
C1159  C     0.90613   0.74851   0.86764   0.00000  Uiso   1.00
C1160  C     0.59260   0.76809   0.13202   0.00000  Uiso   1.00
C1161  C     0.73184   0.90742   0.86798   0.00000  Uiso   1.00
C1162  C     0.75158   0.59386   0.13236   0.00000  Uiso   1.00
C1163  C     0.59387   0.75149   0.86764   0.00000  Uiso   1.00
C1164  C     0.58002   0.83002   0.75000   0.00000  Uiso   1.00
C1165  C     0.90740   0.73191   0.13202   0.00000  Uiso   1.00
C1166  C     0.95882   0.63838   0.46422   0.00000  Uiso   1.00
C1167  C     0.91566   0.65403   0.45092   0.00000  Uiso   1.00
C1168  C     0.98557   0.86791   0.53582   0.00000  Uiso   1.00
C1169  C     0.94010   0.86219   0.54946   0.00000  Uiso   1.00
C1170  C     0.86795   0.98593   0.46419   0.00000  Uiso   1.00
C1171  C     0.86238   0.94044   0.45054   0.00000  Uiso   1.00
C1172  C     0.63851   0.95847   0.53578   0.00000  Uiso   1.00
C1173  C     0.65430   0.91536   0.54909   0.00000  Uiso   1.00
C1174  C     0.54120   0.86161   0.46422   0.00000  Uiso   1.00
C1175  C     0.83003   0.91997   0.25000   0.00000  Uiso   1.00
C1176  C     0.58435   0.84595   0.45091   0.00000  Uiso   1.00
C1177  C     0.51446   0.63210   0.53581   0.00000  Uiso   1.00
C1178  C     0.55994   0.63784   0.54945   0.00000  Uiso   1.00
C1179  C     0.63205   0.51408   0.46419   0.00000  Uiso   1.00
C1180  C     0.63763   0.55957   0.45054   0.00000  Uiso   1.00
C1181  C     0.86148   0.54154   0.53578   0.00000  Uiso   1.00
C1182  C     0.84569   0.58464   0.54909   0.00000  Uiso   1.00
C1183  C     0.70960   0.88810   0.96422   0.00000  Uiso   1.00
C1184  C     0.66634   0.90346   0.95090   0.00000  Uiso   1.00
C1185  C     0.73473   0.61780   0.03582   0.00000  Uiso   1.00
C1186  C     0.66997   0.58003   0.75000   0.00000  Uiso   1.00
C1187  C     0.68929   0.61176   0.04945   0.00000  Uiso   1.00
C1188  C     0.61779   0.73463   0.96418   0.00000  Uiso   1.00
C1189  C     0.61172   0.68920   0.95055   0.00000  Uiso   1.00
C1190  C     0.88806   0.70972   0.03578   0.00000  Uiso   1.00
C1191  C     0.90337   0.66644   0.04909   0.00000  Uiso   1.00
C1192  C     0.79040   0.61190   0.96422   0.00000  Uiso   1.00
C1193  C     0.83366   0.59654   0.95090   0.00000  Uiso   1.00
C1194  C     0.76527   0.88220   0.03582   0.00000  Uiso   1.00
C1195  C     0.81070   0.88823   0.04945   0.00000  Uiso   1.00
C1196  C     0.88222   0.76540   0.96418   0.00000  Uiso   1.00
C1197  C     0.58002   0.83002   0.25000   0.00000  Uiso   1.00
C1198  C     0.88830   0.81083   0.95055   0.00000  Uiso   1.00
C1199  C     0.61193   0.79031   0.03578   0.00000  Uiso   1.00
C1200  C     0.59661   0.83358   0.04910   0.00000  Uiso   1.00
C1201  C     0.91998   0.66998   0.75000   0.00000  Uiso   1.00
C1202  C     0.66998   0.91998   0.75000   0.00000  Uiso   1.00
C1203  C     0.83002   0.58002   0.25000   0.00000  Uiso   1.00
C1204  C     0.91997   0.83003   0.75000   0.00000  Uiso   1.00
C1205  C     0.75000   0.50000   0.64417   0.00000  Uiso   1.00
C1206  C     0.58003   0.66997   0.25000   0.00000  Uiso   1.00
C1207  C     0.83002   0.58002   0.75000   0.00000  Uiso   1.00
C1208  C     0.66998   0.91998   0.25000   0.00000  Uiso   1.00
C1209  C     0.58003   0.66997   0.75000   0.00000  Uiso   1.00
C1210  C     0.91997   0.83003   0.25000   0.00000  Uiso   1.00
C1211  C     0.63833   0.88834   0.25000   0.00000  Uiso   1.00
C1212  C     0.86166   0.61166   0.75000   0.00000  Uiso   1.00
C1213  C     0.61167   0.63833   0.25000   0.00000  Uiso   1.00
C1214  C     0.88833   0.86167   0.75000   0.00000  Uiso   1.00
C1215  C     0.86166   0.61166   0.25000   0.00000  Uiso   1.00
C1216  C     0.50000   0.75000   0.35583   0.00000  Uiso   1.00
C1217  C     0.63834   0.88834   0.75000   0.00000  Uiso   1.00
C1218  C     0.88833   0.86167   0.25000   0.00000  Uiso   1.00
C1219  C     0.61167   0.63833   0.75000   0.00000  Uiso   1.00
C1220  C     0.63833   0.61167   0.75000   0.00000  Uiso   1.00
C1221  C     0.86167   0.88833   0.25000   0.00000  Uiso   1.00
C1222  C     0.61166   0.86166   0.75000   0.00000  Uiso   1.00
C1223  C     0.88834   0.63834   0.25000   0.00000  Uiso   1.00
C1224  C     0.86167   0.88833   0.75000   0.00000  Uiso   1.00
C1225  C     0.63833   0.61167   0.25000   0.00000  Uiso   1.00
C1226  C     0.88834   0.63834   0.75000   0.00000  Uiso   1.00
C1227  C     0.50000   0.75000   0.64418   0.00000  Uiso   1.00
C1228  C     0.61166   0.86166   0.25000   0.00000  Uiso   1.00
C1229  C     0.50124   0.78858   0.41802   0.00000  Uiso   1.00
C1230  C     0.99214   0.71221   0.58200   0.00000  Uiso   1.00
C1231  C     0.71223   0.99202   0.41800   0.00000  Uiso   1.00
C1232  C     0.78858   0.50135   0.58198   0.00000  Uiso   1.00
C1233  C     0.99876   0.71142   0.41802   0.00000  Uiso   1.00
C1234  C     0.50787   0.78779   0.58200   0.00000  Uiso   1.00
C1235  C     0.78777   0.50798   0.41800   0.00000  Uiso   1.00
C1236  C     0.71142   0.99865   0.58198   0.00000  Uiso   1.00
C1237  C     0.75096   0.53859   0.91801   0.00000  Uiso   1.00
C1238  C     0.50000   0.75000   0.85582   0.00000  Uiso   1.00
C1239  C     0.74240   0.96215   0.08200   0.00000  Uiso   1.00
C1240  C     0.96214   0.74244   0.91800   0.00000  Uiso   1.00
C1241  C     0.53859   0.75093   0.08198   0.00000  Uiso   1.00
C1242  C     0.74904   0.96141   0.91801   0.00000  Uiso   1.00
C1243  C     0.75760   0.53785   0.08200   0.00000  Uiso   1.00
C1244  C     0.53785   0.75756   0.91800   0.00000  Uiso   1.00
C1245  C     0.96141   0.74908   0.08198   0.00000  Uiso   1.00
C1246  C     0.50000   0.75000   0.39807   0.00000  Uiso   1.00
C1247  C     0.50000   0.75000   0.60195   0.00000  Uiso   1.00
C1248  C     0.75000   0.50000   0.39805   0.00000  Uiso   1.00
C1249  C     0.50000   0.75000   0.14417   0.00000  Uiso   1.00
C1250  C     0.75000   0.50000   0.60193   0.00000  Uiso   1.00
C1251  C     0.75000   0.50000   0.89807   0.00000  Uiso   1.00
C1252  C     0.75000   0.50000   0.10195   0.00000  Uiso   1.00
C1253  C     0.50000   0.75000   0.89805   0.00000  Uiso   1.00
C1254  C     0.50000   0.75000   0.10193   0.00000  Uiso   1.00
C1255  C     0.99441   0.71153   0.45892   0.00000  Uiso   1.00
C1256  C     0.50360   0.78870   0.54110   0.00000  Uiso   1.00
C1257  C     0.78868   0.50372   0.45890   0.00000  Uiso   1.00
C1258  C     0.71154   0.99429   0.54108   0.00000  Uiso   1.00
C1259  C     0.50559   0.78847   0.45892   0.00000  Uiso   1.00
C1260  C     0.75000   0.50000   0.85583   0.00000  Uiso   1.00
C1261  C     0.99641   0.71131   0.54110   0.00000  Uiso   1.00
C1262  C     0.71132   0.99628   0.45890   0.00000  Uiso   1.00
C1263  C     0.78846   0.50571   0.54108   0.00000  Uiso   1.00
C1264  C     0.74469   0.96149   0.95892   0.00000  Uiso   1.00
C1265  C     0.75332   0.53872   0.04110   0.00000  Uiso   1.00
C1266  C     0.53872   0.75329   0.95890   0.00000  Uiso   1.00
C1267  C     0.96148   0.74473   0.04108   0.00000  Uiso   1.00
C1268  C     0.75531   0.53851   0.95892   0.00000  Uiso   1.00
C1269  C     0.74668   0.96128   0.04110   0.00000  Uiso   1.00
C1270  C     0.96128   0.74672   0.95890   0.00000  Uiso   1.00
C1271  C     0.75000   0.50000   0.14418   0.00000  Uiso   1.00
C1272  C     0.53852   0.75528   0.04108   0.00000  Uiso   1.00
C1273  C     0.50000   0.75000   0.47943   0.00000  Uiso   1.00
C1274  C     0.50000   0.75000   0.52059   0.00000  Uiso   1.00
C1275  C     0.75000   0.50000   0.47941   0.00000  Uiso   1.00
C1276  C     0.75000   0.50000   0.52057   0.00000  Uiso   1.00
C1277  C     0.75000   0.50000   0.97943   0.00000  Uiso   1.00
C1278  C     0.75000   0.50000   0.02059   0.00000  Uiso   1.00
C1279  C     0.50000   0.75001   0.97941   0.00000  Uiso   1.00
C1280  C     0.50000   0.75000   0.02057   0.00000  Uiso   1.00
C1281  C     0.98587   0.67422   0.48024   0.00000  Uiso   1.00
C1282  C     0.66997   0.58003   0.25000   0.00000  Uiso   1.00
C1283  C     0.50385   0.82696   0.51981   0.00000  Uiso   1.00
C1284  C     0.82695   0.50408   0.48019   0.00000  Uiso   1.00
C1285  C     0.67426   0.98563   0.51976   0.00000  Uiso   1.00
C1286  C     0.51415   0.82578   0.48024   0.00000  Uiso   1.00
C1287  C     0.99616   0.67304   0.51981   0.00000  Uiso   1.00
C1288  C     0.67305   0.99592   0.48019   0.00000  Uiso   1.00
C1289  C     0.82574   0.51437   0.51976   0.00000  Uiso   1.00
C1290  C     0.73640   0.92412   0.98024   0.00000  Uiso   1.00
C1291  C     0.75330   0.57698   0.01981   0.00000  Uiso   1.00
C1292  C     0.57698   0.75323   0.98019   0.00000  Uiso   1.00
H1293  H     0.97127   0.84774   0.41134   0.00000  Uiso   1.00
H1294  H     0.62212   0.99997   0.37451   0.00000  Uiso   1.00
H1295  H     0.83189   0.60193   0.52411   0.00000  Uiso   1.00
H1296  H     0.82144   0.58174   0.57203   0.00000  Uiso   1.00
H1297  H     0.87244   0.60331   0.56076   0.00000  Uiso   1.00
H1298  H     0.87923   0.52553   0.55895   0.00000  Uiso   1.00
H1299  H     0.88522   0.54840   0.51294   0.00000  Uiso   1.00
H1300  H     0.64891   0.91711   0.97587   0.00000  Uiso   1.00
H1301  H     0.66901   0.92772   0.92793   0.00000  Uiso   1.00
H1302  H     0.64793   0.87652   0.93924   0.00000  Uiso   1.00
H1303  H     0.72579   0.87051   0.94106   0.00000  Uiso   1.00
H1304  H     0.70296   0.86431   0.98706   0.00000  Uiso   1.00
H1305  H     0.65941   0.98107   0.33938   0.00000  Uiso   1.00
H1306  H     0.66926   0.60160   0.02472   0.00000  Uiso   1.00
H1307  H     0.68704   0.58783   0.07274   0.00000  Uiso   1.00
H1308  H     0.67691   0.64204   0.06082   0.00000  Uiso   1.00
H1309  H     0.75444   0.63178   0.05879   0.00000  Uiso   1.00
H1310  H     0.73305   0.64233   0.01289   0.00000  Uiso   1.00
H1311  H     0.60154   0.66917   0.97529   0.00000  Uiso   1.00
H1312  H     0.58777   0.68696   0.92727   0.00000  Uiso   1.00
H1313  H     0.64198   0.67678   0.93918   0.00000  Uiso   1.00
H1314  H     0.63179   0.75433   0.94121   0.00000  Uiso   1.00
H1315  H     0.64232   0.73293   0.98712   0.00000  Uiso   1.00
H1316  H     0.66911   0.52988   0.36486   0.00000  Uiso   1.00
H1317  H     0.91700   0.64900   0.02412   0.00000  Uiso   1.00
H1318  H     0.92763   0.66908   0.07206   0.00000  Uiso   1.00
H1319  H     0.87640   0.64806   0.06074   0.00000  Uiso   1.00
H1320  H     0.87048   0.72592   0.05894   0.00000  Uiso   1.00
H1321  H     0.86425   0.70311   0.01293   0.00000  Uiso   1.00
H1322  H     0.85108   0.58289   0.97587   0.00000  Uiso   1.00
H1323  H     0.83099   0.57228   0.92793   0.00000  Uiso   1.00
H1324  H     0.85206   0.62348   0.93924   0.00000  Uiso   1.00
H1325  H     0.77421   0.62949   0.94106   0.00000  Uiso   1.00
H1326  H     0.79703   0.63569   0.98706   0.00000  Uiso   1.00
H1327  H     0.84782   0.97154   0.58864   0.00000  Uiso   1.00
H1328  H     0.83074   0.89839   0.02472   0.00000  Uiso   1.00
H1329  H     0.81296   0.91217   0.07274   0.00000  Uiso   1.00
H1330  H     0.82309   0.85796   0.06082   0.00000  Uiso   1.00
H1331  H     0.74555   0.86822   0.05879   0.00000  Uiso   1.00
H1332  H     0.76694   0.85766   0.01289   0.00000  Uiso   1.00
H1333  H     0.89849   0.83085   0.97528   0.00000  Uiso   1.00
H1334  H     0.91224   0.81306   0.92726   0.00000  Uiso   1.00
H1335  H     0.85804   0.82325   0.93918   0.00000  Uiso   1.00
H1336  H     0.86821   0.74570   0.94121   0.00000  Uiso   1.00
H1337  H     0.85768   0.76710   0.98711   0.00000  Uiso   1.00
H1338  H     0.87574   0.52728   0.62582   0.00000  Uiso   1.00
H1339  H     0.58297   0.85101   0.02413   0.00000  Uiso   1.00
H1340  H     0.57235   0.83093   0.07207   0.00000  Uiso   1.00
H1341  H     0.62357   0.85196   0.06075   0.00000  Uiso   1.00
H1342  H     0.62952   0.77410   0.05894   0.00000  Uiso   1.00
H1343  H     0.63573   0.79692   0.01294   0.00000  Uiso   1.00
H1344  H     0.84123   0.50308   0.66063   0.00000  Uiso   1.00
H1345  H     0.82406   0.54870   0.63351   0.00000  Uiso   1.00
H1346  H     0.52874   0.65226   0.41133   0.00000  Uiso   1.00
H1347  H     0.97303   0.62421   0.37419   0.00000  Uiso   1.00
H1348  H     0.99717   0.65875   0.33937   0.00000  Uiso   1.00
H1349  H     0.52697   0.87579   0.37419   0.00000  Uiso   1.00
H1350  H     0.95151   0.67584   0.36647   0.00000  Uiso   1.00
H1351  H     0.55004   0.83911   0.58913   0.00000  Uiso   1.00
H1352  H     0.99969   0.87788   0.62550   0.00000  Uiso   1.00
H1353  H     0.51867   0.84063   0.66063   0.00000  Uiso   1.00
H1354  H     0.96989   0.83082   0.63513   0.00000  Uiso   1.00
H1355  H     0.83896   0.55030   0.41086   0.00000  Uiso   1.00
H1356  H     0.87788   0.50003   0.37451   0.00000  Uiso   1.00
H1357  H     0.84059   0.51893   0.33938   0.00000  Uiso   1.00
H1358  H     0.83089   0.97012   0.36486   0.00000  Uiso   1.00
H1359  H     0.65218   0.52846   0.58864   0.00000  Uiso   1.00
H1360  H     0.50282   0.84125   0.33937   0.00000  Uiso   1.00
H1361  H     0.62426   0.97273   0.62582   0.00000  Uiso   1.00
H1362  H     0.65877   0.99692   0.66063   0.00000  Uiso   1.00
H1363  H     0.67594   0.95130   0.63351   0.00000  Uiso   1.00
H1364  H     0.72059   0.59755   0.91132   0.00000  Uiso   1.00
H1365  H     0.77617   0.62593   0.87419   0.00000  Uiso   1.00
H1366  H     0.75216   0.59130   0.83936   0.00000  Uiso   1.00
H1367  H     0.79793   0.57440   0.86640   0.00000  Uiso   1.00
H1368  H     0.70058   0.91055   0.08912   0.00000  Uiso   1.00
H1369  H     0.75113   0.87212   0.12552   0.00000  Uiso   1.00
H1370  H     0.73197   0.90929   0.16063   0.00000  Uiso   1.00
H1371  H     0.54848   0.82416   0.36647   0.00000  Uiso   1.00
H1372  H     0.78068   0.91934   0.13510   0.00000  Uiso   1.00
H1373  H     0.91050   0.70067   0.91089   0.00000  Uiso   1.00
H1374  H     0.87211   0.75125   0.87448   0.00000  Uiso   1.00
H1375  H     0.90928   0.73206   0.83937   0.00000  Uiso   1.00
H1376  H     0.91936   0.78076   0.86490   0.00000  Uiso   1.00
H1377  H     0.59753   0.72051   0.08868   0.00000  Uiso   1.00
H1378  H     0.62594   0.77609   0.12581   0.00000  Uiso   1.00
H1379  H     0.59130   0.75209   0.16063   0.00000  Uiso   1.00
H1380  H     0.57443   0.79787   0.13361   0.00000  Uiso   1.00
H1381  H     0.77941   0.90245   0.91132   0.00000  Uiso   1.00
H1382  H     0.94997   0.66088   0.58912   0.00000  Uiso   1.00
H1383  H     0.72382   0.87407   0.87419   0.00000  Uiso   1.00
H1384  H     0.74784   0.90870   0.83936   0.00000  Uiso   1.00
H1385  H     0.70206   0.92560   0.86640   0.00000  Uiso   1.00
H1386  H     0.79942   0.58945   0.08912   0.00000  Uiso   1.00
H1387  H     0.74887   0.62788   0.12552   0.00000  Uiso   1.00
H1388  H     0.76803   0.59071   0.16063   0.00000  Uiso   1.00
H1389  H     0.71932   0.58066   0.13510   0.00000  Uiso   1.00
H1390  H     0.58949   0.79934   0.91088   0.00000  Uiso   1.00
H1391  H     0.62789   0.74875   0.87448   0.00000  Uiso   1.00
H1392  H     0.59072   0.76794   0.83937   0.00000  Uiso   1.00
H1393  H     0.50032   0.62212   0.62550   0.00000  Uiso   1.00
H1394  H     0.58064   0.71924   0.86490   0.00000  Uiso   1.00
H1395  H     0.90248   0.77950   0.08869   0.00000  Uiso   1.00
H1396  H     0.87406   0.72391   0.12581   0.00000  Uiso   1.00
H1397  H     0.90869   0.74791   0.16064   0.00000  Uiso   1.00
H1398  H     0.92557   0.70213   0.13361   0.00000  Uiso   1.00
H1399  H     0.89833   0.66777   0.47590   0.00000  Uiso   1.00
H1400  H     0.91848   0.67829   0.42797   0.00000  Uiso   1.00
H1401  H     0.89708   0.62721   0.43925   0.00000  Uiso   1.00
H1402  H     0.97488   0.62068   0.44106   0.00000  Uiso   1.00
H1403  H     0.95204   0.61462   0.48706   0.00000  Uiso   1.00
H1404  H     0.98132   0.65937   0.66062   0.00000  Uiso   1.00
H1405  H     0.91999   0.85216   0.52473   0.00000  Uiso   1.00
H1406  H     0.93768   0.83827   0.57275   0.00000  Uiso   1.00
H1407  H     0.92792   0.89255   0.56083   0.00000  Uiso   1.00
H1408  H     0.50539   0.88175   0.55878   0.00000  Uiso   1.00
H1409  H     0.98406   0.89245   0.51288   0.00000  Uiso   1.00
H1410  H     0.85242   0.92030   0.47527   0.00000  Uiso   1.00
H1411  H     0.83847   0.93795   0.42726   0.00000  Uiso   1.00
H1412  H     0.89277   0.92836   0.43917   0.00000  Uiso   1.00
H1413  H     0.88174   0.50579   0.44122   0.00000  Uiso   1.00
H1414  H     0.89250   0.98450   0.48712   0.00000  Uiso   1.00
H1415  H     0.53011   0.66918   0.63514   0.00000  Uiso   1.00
H1416  H     0.66810   0.89807   0.52411   0.00000  Uiso   1.00
H1417  H     0.67856   0.91827   0.57203   0.00000  Uiso   1.00
H1418  H     0.62755   0.89670   0.56076   0.00000  Uiso   1.00
H1419  H     0.62076   0.97448   0.55895   0.00000  Uiso   1.00
H1420  H     0.61478   0.95161   0.51295   0.00000  Uiso   1.00
H1421  H     0.60168   0.83221   0.47589   0.00000  Uiso   1.00
H1422  H     0.58152   0.82170   0.42796   0.00000  Uiso   1.00
H1423  H     0.60294   0.87277   0.43924   0.00000  Uiso   1.00
H1424  H     0.52514   0.87932   0.44106   0.00000  Uiso   1.00
H1425  H     0.54799   0.88537   0.48706   0.00000  Uiso   1.00
H1426  H     0.66104   0.94970   0.41086   0.00000  Uiso   1.00
H1427  H     0.58003   0.64794   0.52473   0.00000  Uiso   1.00
H1428  H     0.56234   0.66172   0.57277   0.00000  Uiso   1.00
H1429  H     0.57215   0.60748   0.56076   0.00000  Uiso   1.00
H1430  H     0.99466   0.61825   0.55878   0.00000  Uiso   1.00
H1431  H     0.51598   0.60756   0.51287   0.00000  Uiso   1.00
H1432  H     0.64760   0.57971   0.47527   0.00000  Uiso   1.00
H1433  H     0.66154   0.56206   0.42725   0.00000  Uiso   1.00
H1434  H     0.60723   0.57165   0.43917   0.00000  Uiso   1.00
H1435  H     0.61826   0.99422   0.44122   0.00000  Uiso   1.00
H1436  H     0.60750   0.51552   0.48712   0.00000  Uiso   1.00
N1437  N     0.99057   0.82633   0.39761   0.00000  Uiso   1.00
N1438  N     0.72422   0.92744   0.10252   0.00000  Uiso   1.00
N1439  N     0.92741   0.72429   0.89748   0.00000  Uiso   1.00
N1440  N     0.57626   0.73999   0.10239   0.00000  Uiso   1.00
N1441  N     0.75995   0.92374   0.89761   0.00000  Uiso   1.00
N1442  N     0.77578   0.57256   0.10252   0.00000  Uiso   1.00
N1443  N     0.57258   0.77572   0.89748   0.00000  Uiso   1.00
N1444  N     0.92374   0.76001   0.10240   0.00000  Uiso   1.00
N1445  N     0.97372   0.67761   0.60252   0.00000  Uiso   1.00
N1446  N     0.67769   0.97351   0.39748   0.00000  Uiso   1.00
N1447  N     0.82636   0.99078   0.60238   0.00000  Uiso   1.00
N1448  N     0.50943   0.67367   0.39761   0.00000  Uiso   1.00
N1449  N     0.52629   0.82238   0.60252   0.00000  Uiso   1.00
N1450  N     0.82231   0.52649   0.39748   0.00000  Uiso   1.00
N1451  N     0.67364   0.50922   0.60238   0.00000  Uiso   1.00
N1452  N     0.74005   0.57626   0.89761   0.00000  Uiso   1.00
O1453  O     0.75000   0.50000   0.25000   0.00000  Uiso   1.00
O1454  O     0.75000   0.96539   0.66251   0.00000  Uiso   1.00
O1455  O     0.96538   0.75000   0.33749   0.00000  Uiso   1.00
O1456  O     0.53461   0.75000   0.66251   0.00000  Uiso   1.00
O1457  O     0.50000   0.71539   0.83749   0.00000  Uiso   1.00
O1458  O     0.50000   0.78462   0.16251   0.00000  Uiso   1.00
O1459  O     0.78461   0.50000   0.83749   0.00000  Uiso   1.00
O1460  O     0.71538   0.50000   0.16251   0.00000  Uiso   1.00
O1461  O     0.50000   0.78462   0.83749   0.00000  Uiso   1.00
O1462  O     0.50000   0.71539   0.16251   0.00000  Uiso   1.00
O1463  O     0.71538   0.50000   0.83749   0.00000  Uiso   1.00
O1464  O     0.75000   0.50000   0.75000   0.00000  Uiso   1.00
O1465  O     0.78461   0.50000   0.16251   0.00000  Uiso   1.00
O1466  O     0.70126   0.58332   0.27298   0.00000  Uiso   1.00
O1467  O     0.79873   0.91668   0.72702   0.00000  Uiso   1.00
O1468  O     0.91668   0.70127   0.27298   0.00000  Uiso   1.00
O1469  O     0.58332   0.79874   0.72702   0.00000  Uiso   1.00
O1470  O     0.79873   0.91668   0.27298   0.00000  Uiso   1.00
O1471  O     0.70126   0.58332   0.72702   0.00000  Uiso   1.00
O1472  O     0.58332   0.79874   0.27298   0.00000  Uiso   1.00
O1473  O     0.91668   0.70127   0.72702   0.00000  Uiso   1.00
O1474  O     0.70126   0.91668   0.72702   0.00000  Uiso   1.00
O1475  O     0.50000   0.75000   0.25000   0.00000  Uiso   1.00
O1476  O     0.79873   0.58332   0.27298   0.00000  Uiso   1.00
O1477  O     0.91668   0.79874   0.72702   0.00000  Uiso   1.00
O1478  O     0.58332   0.70127   0.27298   0.00000  Uiso   1.00
O1479  O     0.79873   0.58332   0.72702   0.00000  Uiso   1.00
O1480  O     0.70126   0.91668   0.27298   0.00000  Uiso   1.00
O1481  O     0.58332   0.70127   0.72702   0.00000  Uiso   1.00
O1482  O     0.91668   0.79874   0.27298   0.00000  Uiso   1.00
O1483  O     0.95126   0.83332   0.77298   0.00000  Uiso   1.00
O1484  O     0.54873   0.66668   0.22702   0.00000  Uiso   1.00
O1485  O     0.66668   0.95127   0.77298   0.00000  Uiso   1.00
O1486  O     0.50000   0.75000   0.75000   0.00000  Uiso   1.00
O1487  O     0.83332   0.54874   0.22702   0.00000  Uiso   1.00
O1488  O     0.54873   0.66668   0.77298   0.00000  Uiso   1.00
O1489  O     0.95126   0.83332   0.22702   0.00000  Uiso   1.00
O1490  O     0.83332   0.54874   0.77298   0.00000  Uiso   1.00
O1491  O     0.66668   0.95127   0.22702   0.00000  Uiso   1.00
O1492  O     0.95126   0.66668   0.22702   0.00000  Uiso   1.00
O1493  O     0.54873   0.83332   0.77298   0.00000  Uiso   1.00
O1494  O     0.66668   0.54874   0.22702   0.00000  Uiso   1.00
O1495  O     0.83332   0.95127   0.77298   0.00000  Uiso   1.00
O1496  O     0.54873   0.83332   0.22702   0.00000  Uiso   1.00
O1497  O     0.75000   0.96539   0.33749   0.00000  Uiso   1.00
O1498  O     0.95126   0.66668   0.77298   0.00000  Uiso   1.00
O1499  O     0.83332   0.95127   0.22702   0.00000  Uiso   1.00
O1500  O     0.66668   0.54874   0.77298   0.00000  Uiso   1.00
O1501  O     0.75000   0.53462   0.66251   0.00000  Uiso   1.00
O1502  O     0.53461   0.75000   0.33749   0.00000  Uiso   1.00
O1503  O     0.96538   0.75000   0.66251   0.00000  Uiso   1.00
O1504  O     0.75000   0.53462   0.33749   0.00000  Uiso   1.00
Zn1505 Zn    0.70052   0.50000   0.21730   0.00000  Uiso   1.00
Zn1506 Zn    0.54947   0.75000   0.28270   0.00000  Uiso   1.00
Zn1507 Zn    0.75000   0.95053   0.71730   0.00000  Uiso   1.00
Zn1508 Zn    0.75000   0.54948   0.28270   0.00000  Uiso   1.00
Zn1509 Zn    0.54947   0.75000   0.71730   0.00000  Uiso   1.00
Zn1510 Zn    0.95052   0.75000   0.28270   0.00000  Uiso   1.00
Zn1511 Zn    0.75000   0.54948   0.71730   0.00000  Uiso   1.00
Zn1512 Zn    0.75000   0.95053   0.28270   0.00000  Uiso   1.00
Zn1513 Zn    0.79947   0.50000   0.78270   0.00000  Uiso   1.00
Zn1514 Zn    0.50000   0.70053   0.21730   0.00000  Uiso   1.00
Zn1515 Zn    0.50000   0.79948   0.78270   0.00000  Uiso   1.00
Zn1516 Zn    0.79947   0.50000   0.21730   0.00000  Uiso   1.00
Zn1517 Zn    0.70052   0.50000   0.78270   0.00000  Uiso   1.00
Zn1518 Zn    0.50000   0.79948   0.21730   0.00000  Uiso   1.00
Zn1519 Zn    0.50000   0.70053   0.78270   0.00000  Uiso   1.00
Zn1520 Zn    0.95052   0.75000   0.71730   0.00000  Uiso   1.00
loop_
_geom_bond_atom_site_label_1
_geom_bond_atom_site_label_2
_geom_bond_distance
_geom_bond_site_symmetry_2
_ccdc_geom_bond_type
C1     O1117   1.268   1_545 A
C1     C108    1.455   .     S
C1     O364    1.268   .     S
C2     C84     1.422   .     S
C2     O327    1.275   .     A
C2     O355    1.275   .     A
C3     C50     1.528   .     S
C3     C127    1.420   .     A
C3     C6      1.402   1_554 S
C4     C128    1.420   .     A
C4     C52     1.528   .     S
C4     C151    1.402   1_556 S
C5     C54     1.528   .     S
C5     C129    1.419   .     A
C5     C150    1.402   1_554 S
C6     C130    1.419   .     A
C6     C56     1.528   .     S
C6     C3      1.402   1_556 S
C7     C59     1.528   .     S
C7     C132    1.420   .     A
C7     C152    1.402   1_554 S
C8     H231    1.110   .     S
C8     H220    1.110   .     S
C8     H209    1.109   .     S
C8     N677    1.451   1_455 S
C9     H264    1.110   .     S
C9     N305    1.452   .     S
C9     H633    1.109   .     S
C9     H655    1.110   .     S
C10    H154    1.109   .     S
C10    N306    1.452   .     S
C10    H165    1.110   .     S
C10    H936    1.110   .     S
C11    H204    1.110   .     S
C11    H198    1.109   .     S
C11    H205    1.110   .     S
C11    N1067   1.451   1_545 S
C12    H207    1.109   .     S
C12    H210    1.110   .     S
C12    H208    1.110   .     S
C12    N688    1.451   .     S
C13    C83     1.420   .     S
C13    O328    1.275   .     A
C13    O352    1.275   .     A
C14    N309    1.452   .     S
C14    H213    1.110   .     S
C14    H592    1.109   1_455 S
C14    H594    1.110   1_455 S
C15    H217    1.110   .     S
C15    H216    1.109   .     S
C15    N310    1.452   .     S
C15    H978    1.110   1_545 S
C16    H222    1.110   .     S
C16    H221    1.109   .     S
C16    H223    1.110   .     S
C16    N1071   1.451   .     S
C17    H227    1.110   .     S
C17    N312    1.451   .     S
C17    H225    1.109   .     S
C17    H226    1.110   .     S
C18    H230    1.110   .     S
C18    N298    1.452   .     S
C18    H229    1.109   .     S
C18    H232    1.110   .     S
C19    H236    1.110   .     S
C19    H234    1.109   .     S
C19    H235    1.110   .     S
C19    N299    1.452   .     S
C20    H238    1.109   .     S
C20    H240    1.110   .     S
C20    H239    1.110   .     S
C20    N300    1.451   .     S
C21    H243    1.109   .     S
C21    H245    1.110   .     S
C21    H244    1.110   .     S
C21    N301    1.451   .     S
C22    H248    1.110   .     S
C22    N302    1.452   .     S
C22    H247    1.109   .     S
C22    H249    1.110   .     S
C23    H252    1.110   .     S
C23    H251    1.109   .     S
C23    H254    1.110   .     S
C23    N303    1.452   .     S
C24    C82     1.420   .     S
C24    O353    1.275   .     A
C24    O329    1.275   .     A
C25    H256    1.109   .     S
C25    H257    1.110   .     S
C25    N304    1.451   .     S
C25    H258    1.110   .     S
C26    H263    1.111   .     S
C26    C27     1.529   .     S
C26    C141    1.528   .     S
C26    H262    1.102   .     S
C27    H260    1.107   .     S
C27    H261    1.111   .     S
C27    H259    1.111   .     S
C28    C29     1.529   .     S
C28    H269    1.111   .     S
C28    C523    1.528   .     S
C28    H648    1.102   .     S
C29    H266    1.107   .     S
C29    H265    1.111   .     S
C29    H267    1.111   .     S
C30    C31     1.529   .     S
C30    H274    1.111   .     S
C30    C904    1.528   .     S
C30    H1033   1.102   .     S
C31    H272    1.111   .     S
C31    H270    1.111   .     S
C31    H271    1.107   .     S
C32    H279    1.102   .     S
C32    C145    1.528   .     S
C32    C33     1.529   .     S
C32    H280    1.111   .     S
C33    H276    1.111   .     S
C33    H278    1.111   .     S
C33    H277    1.107   .     S
C34    H284    1.102   .     S
C34    H285    1.111   .     S
C34    C146    1.528   .     S
C34    C36     1.529   .     S
C35    C81     1.422   .     S
C35    O330    1.275   .     A
C35    O359    1.275   .     A
C36    H282    1.107   .     S
C36    H281    1.111   .     S
C36    H283    1.111   .     S
C37    C38     1.529   .     S
C37    H291    1.111   .     S
C37    C527    1.528   1_455 S
C37    H670    1.102   1_455 S
C38    H288    1.107   .     S
C38    H289    1.111   .     S
C38    H287    1.111   .     S
C39    C40     1.529   .     S
C39    H296    1.111   .     S
C39    C908    1.528   1_545 S
C39    H1055   1.102   1_545 S
C40    H294    1.111   .     S
C40    H292    1.111   .     S
C40    H293    1.107   .     S
C41    C149    1.528   .     S
C41    C42     1.529   .     S
C41    H159    1.111   .     S
C41    H158    1.102   .     S
C42    H156    1.107   .     S
C42    H157    1.111   .     S
C42    H155    1.111   .     S
C43    C44     1.529   .     S
C43    H164    1.111   .     S
C43    C150    1.528   .     S
C43    H163    1.102   .     S
C44    H161    1.107   .     S
C44    H162    1.111   .     S
C44    H160    1.111   .     S
C45    H170    1.111   .     S
C45    C47     1.529   .     S
C45    C151    1.528   .     S
C45    H169    1.102   .     S
C46    O360    1.275   .     A
C46    C80     1.422   .     S
C46    O331    1.275   .     A
C47    H168    1.111   .     S
C47    H166    1.111   .     S
C47    H167    1.107   .     S
C48    H175    1.111   .     S
C48    H174    1.102   .     S
C48    C152    1.528   .     S
C48    C49     1.529   .     S
C49    H173    1.111   .     S
C49    H172    1.107   .     S
C49    H171    1.111   .     S
C50    C51     1.529   .     S
C50    H180    1.102   .     S
C50    H181    1.111   .     S
C51    H178    1.107   .     S
C51    H179    1.111   .     S
C51    H177    1.111   .     S
C52    H186    1.111   .     S
C52    C53     1.529   .     S
C52    H185    1.102   .     S
C53    H183    1.107   .     S
C53    H182    1.111   .     S
C53    H184    1.111   .     S
C54    H192    1.111   .     S
C54    C55     1.529   .     S
C54    H191    1.102   .     S
C55    H189    1.107   .     S
C55    H188    1.111   .     S
C55    H190    1.111   .     S
C56    C58     1.529   .     S
C56    H196    1.102   .     S
C56    H197    1.111   .     S
C57    O356    1.275   .     A
C57    O332    1.275   .     A
C57    C88     1.420   .     S
C58    H195    1.111   .     S
C58    H193    1.111   .     S
C58    H194    1.107   .     S
C59    C60     1.529   .     S
C59    H202    1.102   .     S
C59    H203    1.111   .     S
C60    H200    1.107   .     S
C60    H201    1.111   .     S
C60    H199    1.111   .     S
C61    O358    1.275   .     A
C61    O333    1.275   .     A
C61    C86     1.420   .     S
C62    C77     1.420   .     S
C62    O334    1.275   .     A
C62    O345    1.275   .     A
C63    C75     1.420   .     S
C63    O347    1.275   .     A
C63    O336    1.275   .     A
C64    O337    1.275   .     A
C64    C74     1.422   .     S
C64    O343    1.275   .     A
C65    C110    1.455   .     S
C65    O361    1.268   .     A
C65    O1074   1.268   1_545 S
C66    O338    1.275   .     A
C66    C73     1.422   .     S
C66    O344    1.275   .     A
C67    C72     1.420   .     S
C67    O350    1.275   .     A
C67    O339    1.275   .     A
C68    O351    1.275   .     A
C68    C71     1.420   .     S
C68    O340    1.275   .     A
C69    C79     1.422   .     S
C69    O348    1.275   .     A
C69    O341    1.275   .     A
C70    O342    1.275   .     A
C70    C78     1.422   .     S
C70    O349    1.275   .     A
C71    C88     1.197   .     T
C72    C86     1.197   .     T
C73    C85     1.198   .     T
C74    C84     1.198   .     T
C75    C83     1.197   .     T
C76    O695    1.268   1_455 A
C76    C106    1.455   .     S
C76    O362    1.268   .     S
C77    C82     1.197   .     T
C78    C81     1.198   .     T
C79    C80     1.198   .     T
C85    C142    1.422   .     S
C87    C107    1.455   .     S
C87    O316    1.268   .     A
C87    O743    1.268   1_455 S
C89    C119    1.416   .     A
C89    C106    1.405   .     S
C89    N677    1.431   1_455 S
C90    C121    1.416   .     A
C90    N305    1.431   .     S
C90    C487    1.405   .     S
C91    C122    1.416   .     A
C91    C868    1.405   .     A
C91    N306    1.431   .     S
C92    C123    1.416   .     A
C92    C110    1.405   .     A
C92    N1067   1.431   1_545 S
C93    C486    1.405   .     A
C93    C115    1.416   .     A
C93    N688    1.431   .     S
C94    C107    1.405   .     A
C94    N309    1.431   .     S
C94    C116    1.416   .     A
C95    N310    1.431   .     S
C95    C117    1.416   .     A
C95    C108    1.405   .     S
C96    C118    1.416   .     A
C96    C870    1.405   .     S
C96    N1071   1.431   .     S
C97    C128    1.416   .     A
C97    N312    1.431   .     S
C97    C111    1.405   .     S
C98    O321    1.268   .     A
C98    C113    1.455   .     S
C98    O317    1.268   .     S
C99    C129    1.416   .     A
C99    N298    1.431   .     S
C99    C872    1.405   .     A
C100   C130    1.416   .     A
C100   N299    1.431   .     S
C100   C493    1.405   .     S
C101   N300    1.431   .     S
C101   C132    1.416   .     A
C101   C114    1.405   .     S
C102   C871    1.405   .     A
C102   C124    1.416   .     A
C102   N301    1.431   .     S
C103   C125    1.416   .     A
C103   N302    1.431   .     S
C103   C112    1.405   .     S
C104   C113    1.405   .     A
C104   N303    1.431   .     S
C104   C126    1.416   .     A
C105   C127    1.416   .     A
C105   C494    1.405   .     A
C105   N304    1.431   .     S
C106   C473    1.405   1_455 A
C107   C470    1.405   1_455 S
C108   C851    1.405   1_545 A
C109   C114    1.455   .     S
C109   O322    1.268   .     A
C109   O318    1.268   .     A
C110   C856    1.405   1_545 S
C111   C862    1.405   1_545 A
C111   C120    1.455   .     S
C112   C131    1.455   .     S
C112   C859    1.405   1_545 A
C113   C480    1.405   1_455 S
C114   C485    1.405   1_455 A
C115   C141    1.420   .     A
C115   C513    1.422   .     S
C116   C134    1.422   .     A
C116   C143    1.419   .     A
C117   C135    1.422   .     A
C117   C144    1.419   .     A
C118   C145    1.420   .     A
C118   C896    1.422   .     S
C119   C146    1.420   .     A
C119   C133    1.422   .     A
C120   O319    1.268   .     S
C120   O323    1.268   .     S
C121   C147    1.419   .     A
C121   C514    1.422   .     S
C122   C148    1.419   .     A
C122   C895    1.422   .     S
C123   C136    1.422   .     A
C123   C149    1.420   .     A
C124   C897    1.422   .     A
C124   C150    1.420   .     A
C125   C151    1.419   .     A
C125   C138    1.422   .     S
C126   C152    1.419   .     A
C126   C139    1.422   .     S
C127   C520    1.422   .     A
C128   C137    1.422   .     S
C129   C898    1.422   .     A
C130   C519    1.422   .     A
C131   O320    1.268   .     S
C131   O325    1.268   .     S
C132   C140    1.422   .     S
C133   C134    1.418   .     A
C133   C495    1.422   1_455 S
C134   C501    1.422   1_455 S
C135   C136    1.418   .     A
C135   C882    1.422   1_545 S
C136   C878    1.422   1_545 S
C137   C884    1.422   1_545 A
C137   C138    1.418   1_556 S
C138   C889    1.422   1_545 A
C138   C137    1.418   1_554 S
C139   C510    1.422   1_455 A
C139   C140    1.418   1_556 S
C140   C507    1.422   1_455 A
C140   C139    1.418   1_554 S
C141   C147    1.402   .     A
C142   O354    1.275   .     A
C142   O326    1.275   .     A
C143   C146    1.402   .     A
C143   C408    1.528   1_455 S
C144   C149    1.402   .     A
C144   C790    1.528   1_545 S
C145   C148    1.402   .     A
C147   C417    1.528   .     S
C148   C799    1.528   .     S
C150   C5      1.402   1_556 S
C151   C4      1.402   1_554 S
C152   C7      1.402   1_556 S
H153   N297    1.031   .     S
H176   C770    1.110   1_545 S
H187   N307    1.031   .     S
H206   N308    1.031   .     S
H211   N309    1.031   .     S
H212   C394    1.109   .     S
H214   C394    1.110   .     S
H215   N310    1.031   .     S
H218   C775    1.110   .     S
H219   N311    1.031   .     S
H224   N312    1.031   .     S
H228   N298    1.031   .     S
H233   N299    1.031   .     S
H237   N300    1.031   .     S
H241   N301    1.031   .     S
H242   N305    1.031   .     S
H246   N302    1.031   .     S
H250   N303    1.031   .     S
H253   C389    1.109   1_455 S
H255   N304    1.031   .     S
H268   C408    1.102   1_455 S
H273   C790    1.102   1_545 S
H275   C389    1.110   1_455 S
H286   N306    1.031   .     S
H290   C417    1.102   .     S
H295   C799    1.102   .     S
N297   C388    1.451   .     S
N297   C469    1.431   .     S
N307   C771    1.451   .     S
N307   C852    1.431   .     S
N308   C392    1.451   1_455 S
N308   C473    1.431   1_455 S
N311   C776    1.451   1_545 S
N311   C856    1.431   1_545 S
O313   Zn365   1.933   .     S
O313   Zn1132  1.933   1_545 S
O313   Zn376   1.933   .     S
O313   Zn368   1.933   .     S
O314   Zn367   1.946   .     S
O314   C825    1.268   .     S
O315   C456    1.268   .     A
O315   Zn370   1.946   .     S
O316   Zn369   1.946   .     S
O317   Zn379   1.946   .     S
O318   Zn378   1.946   .     S
O319   Zn373   1.946   .     S
O320   Zn365   1.946   .     S
O321   Zn375   1.946   .     S
O322   Zn374   1.946   .     S
O323   Zn377   1.946   .     S
O324   Zn371   1.933   .     S
O324   Zn373   1.933   .     S
O324   Zn377   1.933   .     S
O324   Zn1127  1.933   1_545 S
O325   Zn376   1.946   .     S
O326   Zn368   1.915   .     S
O327   Zn367   1.915   .     S
O328   Zn370   1.913   .     S
O329   Zn369   1.913   .     S
O330   Zn372   1.915   .     S
O331   Zn371   1.915   .     S
O332   Zn366   1.913   .     S
O333   Zn380   1.913   .     S
O334   Zn367   1.913   .     S
O335   Zn374   1.933   .     S
O335   Zn378   1.933   .     S
O335   Zn366   1.933   .     S
O335   Zn750   1.933   1_455 S
O336   Zn368   1.913   .     S
O337   Zn380   1.915   .     S
O338   Zn366   1.915   .     S
O339   Zn371   1.913   .     S
O340   Zn372   1.913   .     S
O341   Zn369   1.915   .     S
O342   Zn370   1.915   .     S
O343   Zn755   1.915   .     S
O344   Zn374   1.915   .     S
O345   Zn1137  1.913   .     S
O346   Zn379   1.933   .     S
O346   Zn369   1.933   .     S
O346   Zn375   1.933   .     S
O346   Zn760   1.933   1_455 S
O347   Zn376   1.913   .     S
O348   Zn379   1.915   .     S
O349   Zn758   1.915   .     S
O350   Zn373   1.913   .     S
O351   Zn1125  1.913   .     S
O352   Zn754   1.913   .     S
O353   Zn375   1.913   .     S
O354   Zn365   1.915   .     S
O355   Zn1133  1.915   .     S
O356   Zn378   1.913   .     S
O357   Zn372   1.946   .     S
O357   C761    1.268   .     A
O358   Zn759   1.913   .     S
O359   Zn1136  1.915   .     S
O360   Zn377   1.915   .     S
O361   Zn371   1.946   .     S
O362   Zn366   1.946   .     S
O363   Zn380   1.946   .     S
O363   C467    1.268   .     S
O364   Zn368   1.946   .     S
Zn365  O1111   1.913   1_545 S
Zn367  O1084   1.933   .     S
Zn370  O715    1.933   .     S
Zn372  O1073   1.933   .     S
Zn373  O1115   1.915   1_545 S
Zn374  O732    1.913   1_455 S
Zn375  O723    1.915   1_455 S
Zn376  O1119   1.915   1_545 S
Zn377  O1105   1.913   1_545 S
Zn378  O729    1.915   1_455 S
Zn379  O738    1.913   1_455 S
Zn380  O726    1.933   .     S
C381   O1497   1.268   1_545 A
C381   C488    1.455   .     S
C381   O744    1.268   .     S
C382   C464    1.422   .     S
C382   O707    1.275   .     A
C382   O735    1.275   .     A
C383   C430    1.528   .     S
C383   C507    1.420   .     A
C383   C386    1.402   1_554 S
C384   C508    1.420   .     A
C384   C432    1.528   .     S
C384   C531    1.402   1_556 S
C385   C434    1.528   .     S
C385   C509    1.419   .     A
C385   C530    1.402   1_554 S
C386   C510    1.419   .     A
C386   C436    1.528   .     S
C386   C383    1.402   1_556 S
C387   C439    1.528   .     S
C387   C512    1.420   .     A
C387   C532    1.402   1_554 S
C388   H611    1.110   .     S
C388   H600    1.110   .     S
C388   H589    1.109   .     S
C389   H644    1.110   .     S
C389   N685    1.452   .     S
C389   H253    1.109   1_655 S
C389   H275    1.110   1_655 S
C390   H534    1.109   .     S
C390   N686    1.452   .     S
C390   H545    1.110   .     S
C390   H1316   1.110   .     S
C391   H584    1.110   .     S
C391   H578    1.109   .     S
C391   H585    1.110   .     S
C391   N1447   1.451   1_545 S
C392   H587    1.109   .     S
C392   H590    1.110   .     S
C392   H588    1.110   .     S
C392   N308    1.451   1_655 S
C393   C463    1.420   .     S
C393   O708    1.275   .     A
C393   O732    1.275   .     A
C394   N689    1.452   .     S
C394   H593    1.110   .     S
C395   H597    1.110   .     S
C395   H596    1.109   .     S
C395   N690    1.452   .     S
C395   H1358   1.110   1_545 S
C396   H602    1.110   .     S
C396   H601    1.109   .     S
C396   H603    1.110   .     S
C396   N1451   1.451   .     S
C397   H607    1.110   .     S
C397   N692    1.451   .     S
C397   H605    1.109   .     S
C397   H606    1.110   .     S
C398   H610    1.110   .     S
C398   N678    1.452   .     S
C398   H609    1.109   .     S
C398   H612    1.110   .     S
C399   H616    1.110   .     S
C399   H614    1.109   .     S
C399   H615    1.110   .     S
C399   N679    1.452   .     S
C400   H618    1.109   .     S
C400   H620    1.110   .     S
C400   H619    1.110   .     S
C400   N680    1.451   .     S
C401   H623    1.109   .     S
C401   H625    1.110   .     S
C401   H624    1.110   .     S
C401   N681    1.451   .     S
C402   H628    1.110   .     S
C402   N682    1.452   .     S
C402   H627    1.109   .     S
C402   H629    1.110   .     S
C403   H632    1.110   .     S
C403   H631    1.109   .     S
C403   H634    1.110   .     S
C403   N683    1.452   .     S
C404   C462    1.420   .     S
C404   O733    1.275   .     A
C404   O709    1.275   .     A
C405   H636    1.109   .     S
C405   H637    1.110   .     S
C405   N684    1.451   .     S
C405   H638    1.110   .     S
C406   H643    1.111   .     S
C406   C407    1.529   .     S
C406   C521    1.528   .     S
C406   H642    1.102   .     S
C407   H640    1.107   .     S
C407   H641    1.111   .     S
C407   H639    1.111   .     S
C408   C409    1.529   .     S
C408   H649    1.111   .     S
C408   C143    1.528   1_655 S
C408   H268    1.102   1_655 S
C409   H646    1.107   .     S
C409   H645    1.111   .     S
C409   H647    1.111   .     S
C410   C411    1.529   .     S
C410   H654    1.111   .     S
C410   C1284   1.528   .     S
C410   H1413   1.102   .     S
C411   H652    1.111   .     S
C411   H650    1.111   .     S
C411   H651    1.107   .     S
C412   H659    1.102   .     S
C412   C525    1.528   .     S
C412   C413    1.529   .     S
C412   H660    1.111   .     S
C413   H656    1.111   .     S
C413   H658    1.111   .     S
C413   H657    1.107   .     S
C414   H664    1.102   .     S
C414   H665    1.111   .     S
C414   C526    1.528   .     S
C414   C416    1.529   .     S
C415   C461    1.422   .     S
C415   O710    1.275   .     A
C415   O739    1.275   .     A
C416   H662    1.107   .     S
C416   H661    1.111   .     S
C416   H663    1.111   .     S
C417   C418    1.529   .     S
C417   H671    1.111   .     S
C418   H668    1.107   .     S
C418   H669    1.111   .     S
C418   H667    1.111   .     S
C419   C420    1.529   .     S
C419   H676    1.111   .     S
C419   C1288   1.528   1_545 S
C419   H1435   1.102   1_545 S
C420   H674    1.111   .     S
C420   H672    1.111   .     S
C420   H673    1.107   .     S
C421   C529    1.528   .     S
C421   C422    1.529   .     S
C421   H539    1.111   .     S
C421   H538    1.102   .     S
C422   H536    1.107   .     S
C422   H537    1.111   .     S
C422   H535    1.111   .     S
C423   C424    1.529   .     S
C423   H544    1.111   .     S
C423   C530    1.528   .     S
C423   H543    1.102   .     S
C424   H541    1.107   .     S
C424   H542    1.111   .     S
C424   H540    1.111   .     S
C425   H550    1.111   .     S
C425   C427    1.529   .     S
C425   C531    1.528   .     S
C425   H549    1.102   .     S
C426   O740    1.275   .     A
C426   C460    1.422   .     S
C426   O711    1.275   .     A
C427   H548    1.111   .     S
C427   H546    1.111   .     S
C427   H547    1.107   .     S
C428   H555    1.111   .     S
C428   H554    1.102   .     S
C428   C532    1.528   .     S
C428   C429    1.529   .     S
C429   H553    1.111   .     S
C429   H552    1.107   .     S
C429   H551    1.111   .     S
C430   C431    1.529   .     S
C430   H560    1.102   .     S
C430   H561    1.111   .     S
C431   H558    1.107   .     S
C431   H559    1.111   .     S
C431   H557    1.111   .     S
C432   H566    1.111   .     S
C432   C433    1.529   .     S
C432   H565    1.102   .     S
C433   H563    1.107   .     S
C433   H562    1.111   .     S
C433   H564    1.111   .     S
C434   H572    1.111   .     S
C434   C435    1.529   .     S
C434   H571    1.102   .     S
C435   H569    1.107   .     S
C435   H568    1.111   .     S
C435   H570    1.111   .     S
C436   C438    1.529   .     S
C436   H576    1.102   .     S
C436   H577    1.111   .     S
C437   O736    1.275   .     A
C437   O712    1.275   .     A
C437   C468    1.420   .     S
C438   H575    1.111   .     S
C438   H573    1.111   .     S
C438   H574    1.107   .     S
C439   C440    1.529   .     S
C439   H582    1.102   .     S
C439   H583    1.111   .     S
C440   H580    1.107   .     S
C440   H581    1.111   .     S
C440   H579    1.111   .     S
C441   O738    1.275   .     A
C441   O713    1.275   .     A
C441   C466    1.420   .     S
C442   C457    1.420   .     S
C442   O714    1.275   .     A
C442   O725    1.275   .     A
C443   C455    1.420   .     S
C443   O727    1.275   .     A
C443   O716    1.275   .     A
C444   O717    1.275   .     A
C444   C454    1.422   .     S
C444   O723    1.275   .     A
C445   C490    1.455   .     S
C445   O741    1.268   .     A
C445   O1454   1.268   1_545 S
C446   O718    1.275   .     A
C446   C453    1.422   .     S
C446   O724    1.275   .     A
C447   C452    1.420   .     S
C447   O730    1.275   .     A
C447   O719    1.275   .     A
C448   O731    1.275   .     A
C448   C451    1.420   .     S
C448   O720    1.275   .     A
C449   C459    1.422   .     S
C449   O728    1.275   .     A
C449   O721    1.275   .     A
C450   O722    1.275   .     A
C450   C458    1.422   .     S
C450   O729    1.275   .     A
C451   C468    1.197   .     T
C452   C466    1.197   .     T
C453   C465    1.198   .     T
C454   C464    1.198   .     T
C455   C463    1.197   .     T
C456   C486    1.455   .     S
C456   O742    1.268   .     S
C457   C462    1.197   .     T
C458   C461    1.198   .     T
C459   C460    1.198   .     T
C465   C522    1.422   .     S
C467   C487    1.455   .     S
C467   O696    1.268   .     A
C469   C499    1.416   .     A
C469   C486    1.405   .     S
C470   C501    1.416   .     A
C470   N685    1.431   .     S
C470   C107    1.405   1_655 S
C471   C502    1.416   .     A
C471   C1248   1.405   .     A
C471   N686    1.431   .     S
C472   C503    1.416   .     A
C472   C490    1.405   .     A
C472   N1447   1.431   1_545 S
C473   C106    1.405   1_655 A
C473   C495    1.416   .     A
C473   N308    1.431   1_655 S
C474   C487    1.405   .     A
C474   N689    1.431   .     S
C474   C496    1.416   .     A
C475   N690    1.431   .     S
C475   C497    1.416   .     A
C475   C488    1.405   .     S
C476   C498    1.416   .     A
C476   C1250   1.405   .     S
C476   N1451   1.431   .     S
C477   C508    1.416   .     A
C477   N692    1.431   .     S
C477   C491    1.405   .     S
C478   O701    1.268   .     A
C478   C493    1.455   .     S
C478   O697    1.268   .     S
C479   C509    1.416   .     A
C479   N678    1.431   .     S
C479   C1252   1.405   .     A
C480   C510    1.416   .     A
C480   N679    1.431   .     S
C480   C113    1.405   1_655 S
C481   N680    1.431   .     S
C481   C512    1.416   .     A
C481   C494    1.405   .     S
C482   C1251   1.405   .     A
C482   C504    1.416   .     A
C482   N681    1.431   .     S
C483   C505    1.416   .     A
C483   N682    1.431   .     S
C483   C492    1.405   .     S
C484   C493    1.405   .     A
C484   N683    1.431   .     S
C484   C506    1.416   .     A
C485   C507    1.416   .     A
C485   C114    1.405   1_655 A
C485   N684    1.431   .     S
C488   C1231   1.405   1_545 A
C489   C494    1.455   .     S
C489   O702    1.268   .     A
C489   O698    1.268   .     A
C490   C1236   1.405   1_545 S
C491   C1242   1.405   1_545 A
C491   C500    1.455   .     S
C492   C511    1.455   .     S
C492   C1239   1.405   1_545 A
C495   C521    1.420   .     A
C495   C133    1.422   1_655 S
C496   C514    1.422   .     A
C496   C523    1.419   .     A
C497   C515    1.422   .     A
C497   C524    1.419   .     A
C498   C525    1.420   .     A
C498   C1276   1.422   .     S
C499   C526    1.420   .     A
C499   C513    1.422   .     A
C500   O699    1.268   .     S
C500   O703    1.268   .     S
C501   C527    1.419   .     A
C501   C134    1.422   1_655 S
C502   C528    1.419   .     A
C502   C1275   1.422   .     S
C503   C516    1.422   .     A
C503   C529    1.420   .     A
C504   C1277   1.422   .     A
C504   C530    1.420   .     A
C505   C531    1.419   .     A
C505   C518    1.422   .     S
C506   C532    1.419   .     A
C506   C519    1.422   .     S
C507   C140    1.422   1_655 A
C508   C517    1.422   .     S
C509   C1278   1.422   .     A
C510   C139    1.422   1_655 A
C511   O700    1.268   .     S
C511   O705    1.268   .     S
C512   C520    1.422   .     S
C513   C514    1.418   .     A
C515   C516    1.418   .     A
C515   C1262   1.422   1_545 S
C516   C1258   1.422   1_545 S
C517   C1264   1.422   1_545 A
C517   C518    1.418   1_556 S
C518   C1269   1.422   1_545 A
C518   C517    1.418   1_554 S
C519   C520    1.418   1_556 S
C520   C519    1.418   1_554 S
C521   C527    1.402   .     A
C522   O734    1.275   .     A
C522   O706    1.275   .     A
C523   C526    1.402   .     A
C524   C529    1.402   .     A
C524   C1170   1.528   1_545 S
C525   C528    1.402   .     A
C527   C37     1.528   1_655 S
C528   C1179   1.528   .     S
C530   C385    1.402   1_556 S
C531   C384    1.402   1_554 S
C532   C387    1.402   1_556 S
H533   N677    1.031   .     S
H556   C1150   1.110   1_545 S
H567   N687    1.031   .     S
H586   N688    1.031   .     S
H591   N689    1.031   .     S
H592   C14     1.109   1_655 S
H594   C14     1.110   1_655 S
H595   N690    1.031   .     S
H598   C1155   1.110   .     S
H599   N691    1.031   .     S
H604   N692    1.031   .     S
H608   N678    1.031   .     S
H613   N679    1.031   .     S
H617   N680    1.031   .     S
H621   N681    1.031   .     S
H622   N685    1.031   .     S
H626   N682    1.031   .     S
H630   N683    1.031   .     S
H635   N684    1.031   .     S
H653   C1170   1.102   1_545 S
H666   N686    1.031   .     S
H670   C37     1.102   1_655 S
H675   C1179   1.102   .     S
N677   C8      1.451   1_655 S
N677   C89     1.431   1_655 S
N687   C1151   1.451   .     S
N687   C1232   1.431   .     S
N691   C1156   1.451   1_545 S
N691   C1236   1.431   1_545 S
O693   Zn745   1.933   .     S
O693   Zn1512  1.933   1_545 S
O693   Zn756   1.933   .     S
O693   Zn748   1.933   .     S
O694   Zn747   1.946   .     S
O694   C1205   1.268   .     S
O695   C76     1.268   1_655 A
O695   Zn750   1.946   .     S
O696   Zn749   1.946   .     S
O697   Zn759   1.946   .     S
O698   Zn758   1.946   .     S
O699   Zn753   1.946   .     S
O700   Zn745   1.946   .     S
O701   Zn755   1.946   .     S
O702   Zn754   1.946   .     S
O703   Zn757   1.946   .     S
O704   Zn751   1.933   .     S
O704   Zn753   1.933   .     S
O704   Zn757   1.933   .     S
O704   Zn1507  1.933   1_545 S
O705   Zn756   1.946   .     S
O706   Zn748   1.915   .     S
O707   Zn747   1.915   .     S
O708   Zn750   1.913   .     S
O709   Zn749   1.913   .     S
O710   Zn752   1.915   .     S
O711   Zn751   1.915   .     S
O712   Zn746   1.913   .     S
O713   Zn760   1.913   .     S
O714   Zn747   1.913   .     S
O715   Zn754   1.933   .     S
O715   Zn758   1.933   .     S
O715   Zn746   1.933   .     S
O716   Zn748   1.913   .     S
O717   Zn760   1.915   .     S
O718   Zn746   1.915   .     S
O719   Zn751   1.913   .     S
O720   Zn752   1.913   .     S
O721   Zn749   1.915   .     S
O722   Zn750   1.915   .     S
O723   Zn375   1.915   1_655 S
O724   Zn754   1.915   .     S
O725   Zn1517  1.913   .     S
O726   Zn759   1.933   .     S
O726   Zn749   1.933   .     S
O726   Zn755   1.933   .     S
O727   Zn756   1.913   .     S
O728   Zn759   1.915   .     S
O729   Zn378   1.915   1_655 S
O730   Zn753   1.913   .     S
O731   Zn1505  1.913   .     S
O732   Zn374   1.913   1_655 S
O733   Zn755   1.913   .     S
O734   Zn745   1.915   .     S
O735   Zn1513  1.915   .     S
O736   Zn758   1.913   .     S
O737   Zn752   1.946   .     S
O737   C1141   1.268   .     A
O738   Zn379   1.913   1_655 S
O739   Zn1516  1.915   .     S
O740   Zn757   1.915   .     S
O741   Zn751   1.946   .     S
O742   Zn746   1.946   .     S
O743   Zn760   1.946   .     S
O743   C87     1.268   1_655 S
O744   Zn748   1.946   .     S
Zn745  O1491   1.913   1_545 S
Zn747  O1464   1.933   .     S
Zn750  O335    1.933   1_655 S
Zn752  O1453   1.933   .     S
Zn753  O1495   1.915   1_545 S
Zn756  O1499   1.915   1_545 S
Zn757  O1485   1.913   1_545 S
Zn760  O346    1.933   1_655 S
C761   C868    1.455   .     S
C761   O1124   1.268   .     S
C762   C844    1.422   .     S
C762   O1087   1.275   .     A
C762   O1115   1.275   .     A
C763   C810    1.528   .     S
C763   C887    1.420   .     A
C763   C766    1.402   1_554 S
C764   C888    1.420   .     A
C764   C812    1.528   .     S
C764   C911    1.402   1_556 S
C765   C814    1.528   .     S
C765   C889    1.419   .     A
C765   C910    1.402   1_554 S
C766   C890    1.419   .     A
C766   C816    1.528   .     S
C766   C763    1.402   1_556 S
C767   C819    1.528   .     S
C767   C892    1.420   .     A
C767   C912    1.402   1_554 S
C768   H991    1.110   .     S
C768   H980    1.110   .     S
C768   H969    1.109   .     S
C768   N1437   1.451   1_455 S
C769   H1024   1.110   .     S
C769   N1065   1.452   .     S
C769   H1393   1.109   .     S
C769   H1415   1.110   .     S
C770   H914    1.109   .     S
C770   N1066   1.452   .     S
C770   H925    1.110   .     S
C770   H176    1.110   1_565 S
C771   H964    1.110   .     S
C771   H958    1.109   .     S
C771   H965    1.110   .     S
C772   H967    1.109   .     S
C772   H970    1.110   .     S
C772   H968    1.110   .     S
C772   N1448   1.451   .     S
C773   C843    1.420   .     S
C773   O1088   1.275   .     A
C773   O1112   1.275   .     A
C774   N1069   1.452   .     S
C774   H973    1.110   .     S
C774   H1352   1.109   1_455 S
C774   H1354   1.110   1_455 S
C775   H977    1.110   .     S
C775   H976    1.109   .     S
C775   N1070   1.452   .     S
C776   H982    1.110   .     S
C776   H981    1.109   .     S
C776   H983    1.110   .     S
C776   N311    1.451   1_565 S
C777   H987    1.110   .     S
C777   N1072   1.451   .     S
C777   H985    1.109   .     S
C777   H986    1.110   .     S
C778   H990    1.110   .     S
C778   N1058   1.452   .     S
C778   H989    1.109   .     S
C778   H992    1.110   .     S
C779   H996    1.110   .     S
C779   H994    1.109   .     S
C779   H995    1.110   .     S
C779   N1059   1.452   .     S
C780   H998    1.109   .     S
C780   H1000   1.110   .     S
C780   H999    1.110   .     S
C780   N1060   1.451   .     S
C781   H1003   1.109   .     S
C781   H1005   1.110   .     S
C781   H1004   1.110   .     S
C781   N1061   1.451   .     S
C782   H1008   1.110   .     S
C782   N1062   1.452   .     S
C782   H1007   1.109   .     S
C782   H1009   1.110   .     S
C783   H1012   1.110   .     S
C783   H1011   1.109   .     S
C783   H1014   1.110   .     S
C783   N1063   1.452   .     S
C784   C842    1.420   .     S
C784   O1113   1.275   .     A
C784   O1089   1.275   .     A
C785   H1016   1.109   .     S
C785   H1017   1.110   .     S
C785   N1064   1.451   .     S
C785   H1018   1.110   .     S
C786   H1023   1.111   .     S
C786   C787    1.529   .     S
C786   C901    1.528   .     S
C786   H1022   1.102   .     S
C787   H1020   1.107   .     S
C787   H1021   1.111   .     S
C787   H1019   1.111   .     S
C788   C789    1.529   .     S
C788   H1029   1.111   .     S
C788   C1283   1.528   .     S
C788   H1408   1.102   .     S
C789   H1026   1.107   .     S
C789   H1025   1.111   .     S
C789   H1027   1.111   .     S
C790   C791    1.529   .     S
C790   H1034   1.111   .     S
C790   C144    1.528   1_565 S
C790   H273    1.102   1_565 S
C791   H1032   1.111   .     S
C791   H1030   1.111   .     S
C791   H1031   1.107   .     S
C792   H1039   1.102   .     S
C792   C905    1.528   .     S
C792   C793    1.529   .     S
C792   H1040   1.111   .     S
C793   H1036   1.111   .     S
C793   H1038   1.111   .     S
C793   H1037   1.107   .     S
C794   H1044   1.102   .     S
C794   H1045   1.111   .     S
C794   C906    1.528   .     S
C794   C796    1.529   .     S
C795   C841    1.422   .     S
C795   O1090   1.275   .     A
C795   O1119   1.275   .     A
C796   H1042   1.107   .     S
C796   H1041   1.111   .     S
C796   H1043   1.111   .     S
C797   C798    1.529   .     S
C797   H1051   1.111   .     S
C797   C1287   1.528   1_455 S
C797   H1430   1.102   1_455 S
C798   H1048   1.107   .     S
C798   H1049   1.111   .     S
C798   H1047   1.111   .     S
C799   C800    1.529   .     S
C799   H1056   1.111   .     S
C800   H1054   1.111   .     S
C800   H1052   1.111   .     S
C800   H1053   1.107   .     S
C801   C909    1.528   .     S
C801   C802    1.529   .     S
C801   H919    1.111   .     S
C801   H918    1.102   .     S
C802   H916    1.107   .     S
C802   H917    1.111   .     S
C802   H915    1.111   .     S
C803   C804    1.529   .     S
C803   H924    1.111   .     S
C803   C910    1.528   .     S
C803   H923    1.102   .     S
C804   H921    1.107   .     S
C804   H922    1.111   .     S
C804   H920    1.111   .     S
C805   H930    1.111   .     S
C805   C807    1.529   .     S
C805   C911    1.528   .     S
C805   H929    1.102   .     S
C806   O1120   1.275   .     A
C806   C840    1.422   .     S
C806   O1091   1.275   .     A
C807   H928    1.111   .     S
C807   H926    1.111   .     S
C807   H927    1.107   .     S
C808   H935    1.111   .     S
C808   H934    1.102   .     S
C808   C912    1.528   .     S
C808   C809    1.529   .     S
C809   H933    1.111   .     S
C809   H932    1.107   .     S
C809   H931    1.111   .     S
C810   C811    1.529   .     S
C810   H940    1.102   .     S
C810   H941    1.111   .     S
C811   H938    1.107   .     S
C811   H939    1.111   .     S
C811   H937    1.111   .     S
C812   H946    1.111   .     S
C812   C813    1.529   .     S
C812   H945    1.102   .     S
C813   H943    1.107   .     S
C813   H942    1.111   .     S
C813   H944    1.111   .     S
C814   H952    1.111   .     S
C814   C815    1.529   .     S
C814   H951    1.102   .     S
C815   H949    1.107   .     S
C815   H948    1.111   .     S
C815   H950    1.111   .     S
C816   C818    1.529   .     S
C816   H956    1.102   .     S
C816   H957    1.111   .     S
C817   O1116   1.275   .     A
C817   O1092   1.275   .     A
C817   C848    1.420   .     S
C818   H955    1.111   .     S
C818   H953    1.111   .     S
C818   H954    1.107   .     S
C819   C820    1.529   .     S
C819   H962    1.102   .     S
C819   H963    1.111   .     S
C820   H960    1.107   .     S
C820   H961    1.111   .     S
C820   H959    1.111   .     S
C821   O1118   1.275   .     A
C821   O1093   1.275   .     A
C821   C846    1.420   .     S
C822   C837    1.420   .     S
C822   O1094   1.275   .     A
C822   O1105   1.275   .     A
C823   C835    1.420   .     S
C823   O1107   1.275   .     A
C823   O1096   1.275   .     A
C824   O1097   1.275   .     A
C824   C834    1.422   .     S
C824   O1103   1.275   .     A
C825   C870    1.455   .     S
C825   O1121   1.268   .     A
C826   O1098   1.275   .     A
C826   C833    1.422   .     S
C826   O1104   1.275   .     A
C827   C832    1.420   .     S
C827   O1110   1.275   .     A
C827   O1099   1.275   .     A
C828   O1111   1.275   .     A
C828   C831    1.420   .     S
C828   O1100   1.275   .     A
C829   C839    1.422   .     S
C829   O1108   1.275   .     A
C829   O1101   1.275   .     A
C830   O1102   1.275   .     A
C830   C838    1.422   .     S
C830   O1109   1.275   .     A
C831   C848    1.197   .     T
C832   C846    1.197   .     T
C833   C845    1.198   .     T
C834   C844    1.198   .     T
C835   C843    1.197   .     T
C836   O1455   1.268   1_455 A
C836   C866    1.455   .     S
C836   O1122   1.268   .     S
C837   C842    1.197   .     T
C838   C841    1.198   .     T
C839   C840    1.198   .     T
C845   C902    1.422   .     S
C847   C867    1.455   .     S
C847   O1076   1.268   .     A
C847   O1503   1.268   1_455 S
C849   C879    1.416   .     A
C849   C866    1.405   .     S
C849   N1437   1.431   1_455 S
C850   C881    1.416   .     A
C850   N1065   1.431   .     S
C850   C1247   1.405   .     S
C851   C882    1.416   .     A
C851   C108    1.405   1_565 A
C851   N1066   1.431   .     S
C852   C883    1.416   .     A
C852   C870    1.405   .     A
C853   C1246   1.405   .     A
C853   C875    1.416   .     A
C853   N1448   1.431   .     S
C854   C867    1.405   .     A
C854   N1069   1.431   .     S
C854   C876    1.416   .     A
C855   N1070   1.431   .     S
C855   C877    1.416   .     A
C855   C868    1.405   .     S
C856   C878    1.416   .     A
C856   C110    1.405   1_565 S
C856   N311    1.431   1_565 S
C857   C888    1.416   .     A
C857   N1072   1.431   .     S
C857   C871    1.405   .     S
C858   O1081   1.268   .     A
C858   C873    1.455   .     S
C858   O1077   1.268   .     S
C859   C889    1.416   .     A
C859   N1058   1.431   .     S
C859   C112    1.405   1_565 A
C860   C890    1.416   .     A
C860   N1059   1.431   .     S
C860   C1253   1.405   .     S
C861   N1060   1.431   .     S
C861   C892    1.416   .     A
C861   C874    1.405   .     S
C862   C111    1.405   1_565 A
C862   C884    1.416   .     A
C862   N1061   1.431   .     S
C863   C885    1.416   .     A
C863   N1062   1.431   .     S
C863   C872    1.405   .     S
C864   C873    1.405   .     A
C864   N1063   1.431   .     S
C864   C886    1.416   .     A
C865   C887    1.416   .     A
C865   C1254   1.405   .     A
C865   N1064   1.431   .     S
C866   C1233   1.405   1_455 A
C867   C1230   1.405   1_455 S
C869   C874    1.455   .     S
C869   O1082   1.268   .     A
C869   O1078   1.268   .     A
C871   C880    1.455   .     S
C872   C891    1.455   .     S
C873   C1240   1.405   1_455 S
C874   C1245   1.405   1_455 A
C875   C901    1.420   .     A
C875   C1273   1.422   .     S
C876   C894    1.422   .     A
C876   C903    1.419   .     A
C877   C895    1.422   .     A
C877   C904    1.419   .     A
C878   C905    1.420   .     A
C878   C136    1.422   1_565 S
C879   C906    1.420   .     A
C879   C893    1.422   .     A
C880   O1079   1.268   .     S
C880   O1083   1.268   .     S
C881   C907    1.419   .     A
C881   C1274   1.422   .     S
C882   C908    1.419   .     A
C882   C135    1.422   1_565 S
C883   C896    1.422   .     A
C883   C909    1.420   .     A
C884   C137    1.422   1_565 A
C884   C910    1.420   .     A
C885   C911    1.419   .     A
C885   C898    1.422   .     S
C886   C912    1.419   .     A
C886   C899    1.422   .     S
C887   C1280   1.422   .     A
C888   C897    1.422   .     S
C889   C138    1.422   1_565 A
C890   C1279   1.422   .     A
C891   O1080   1.268   .     S
C891   O1085   1.268   .     S
C892   C900    1.422   .     S
C893   C894    1.418   .     A
C893   C1255   1.422   1_455 S
C894   C1261   1.422   1_455 S
C895   C896    1.418   .     A
C897   C898    1.418   1_556 S
C898   C897    1.418   1_554 S
C899   C1270   1.422   1_455 A
C899   C900    1.418   1_556 S
C900   C1267   1.422   1_455 A
C900   C899    1.418   1_554 S
C901   C907    1.402   .     A
C902   O1114   1.275   .     A
C902   O1086   1.275   .     A
C903   C906    1.402   .     A
C903   C1168   1.528   1_455 S
C904   C909    1.402   .     A
C905   C908    1.402   .     A
C907   C1177   1.528   .     S
C908   C39     1.528   1_565 S
C910   C765    1.402   1_556 S
C911   C764    1.402   1_554 S
C912   C767    1.402   1_556 S
H913   N1057   1.031   .     S
H947   N1067   1.031   .     S
H966   N1068   1.031   .     S
H971   N1069   1.031   .     S
H972   C1154   1.109   .     S
H974   C1154   1.110   .     S
H975   N1070   1.031   .     S
H978   C15     1.110   1_565 S
H979   N1071   1.031   .     S
H984   N1072   1.031   .     S
H988   N1058   1.031   .     S
H993   N1059   1.031   .     S
H997   N1060   1.031   .     S
H1001  N1061   1.031   .     S
H1002  N1065   1.031   .     S
H1006  N1062   1.031   .     S
H1010  N1063   1.031   .     S
H1013  C1149   1.109   1_455 S
H1015  N1064   1.031   .     S
H1028  C1168   1.102   1_455 S
H1035  C1149   1.110   1_455 S
H1046  N1066   1.031   .     S
H1050  C1177   1.102   .     S
H1055  C39     1.102   1_565 S
N1057  C1148   1.451   .     S
N1057  C1229   1.431   .     S
N1067  C11     1.451   1_565 S
N1067  C92     1.431   1_565 S
N1068  C1152   1.451   1_455 S
N1068  C1233   1.431   1_455 S
O1073  Zn1125  1.933   .     S
O1073  Zn1136  1.933   .     S
O1073  Zn1128  1.933   .     S
O1074  Zn1127  1.946   .     S
O1074  C65     1.268   1_565 S
O1075  C1216   1.268   .     A
O1075  Zn1130  1.946   .     S
O1076  Zn1129  1.946   .     S
O1077  Zn1139  1.946   .     S
O1078  Zn1138  1.946   .     S
O1079  Zn1133  1.946   .     S
O1080  Zn1125  1.946   .     S
O1081  Zn1135  1.946   .     S
O1082  Zn1134  1.946   .     S
O1083  Zn1137  1.946   .     S
O1084  Zn1131  1.933   .     S
O1084  Zn1133  1.933   .     S
O1084  Zn1137  1.933   .     S
O1085  Zn1136  1.946   .     S
O1086  Zn1128  1.915   .     S
O1087  Zn1127  1.915   .     S
O1088  Zn1130  1.913   .     S
O1089  Zn1129  1.913   .     S
O1090  Zn1132  1.915   .     S
O1091  Zn1131  1.915   .     S
O1092  Zn1126  1.913   .     S
O1093  Zn1140  1.913   .     S
O1094  Zn1127  1.913   .     S
O1095  Zn1134  1.933   .     S
O1095  Zn1138  1.933   .     S
O1095  Zn1126  1.933   .     S
O1095  Zn1510  1.933   1_455 S
O1096  Zn1128  1.913   .     S
O1097  Zn1140  1.915   .     S
O1098  Zn1126  1.915   .     S
O1099  Zn1131  1.913   .     S
O1100  Zn1132  1.913   .     S
O1101  Zn1129  1.915   .     S
O1102  Zn1130  1.915   .     S
O1103  Zn1515  1.915   .     S
O1104  Zn1134  1.915   .     S
O1105  Zn377   1.913   1_565 S
O1106  Zn1139  1.933   .     S
O1106  Zn1129  1.933   .     S
O1106  Zn1135  1.933   .     S
O1106  Zn1520  1.933   1_455 S
O1107  Zn1136  1.913   .     S
O1108  Zn1139  1.915   .     S
O1109  Zn1518  1.915   .     S
O1110  Zn1133  1.913   .     S
O1111  Zn365   1.913   1_565 S
O1112  Zn1514  1.913   .     S
O1113  Zn1135  1.913   .     S
O1114  Zn1125  1.915   .     S
O1115  Zn373   1.915   1_565 S
O1116  Zn1138  1.913   .     S
O1117  Zn1132  1.946   .     S
O1117  C1      1.268   1_565 A
O1118  Zn1519  1.913   .     S
O1119  Zn376   1.915   1_565 S
O1120  Zn1137  1.915   .     S
O1121  Zn1131  1.946   .     S
O1122  Zn1126  1.946   .     S
O1123  Zn1140  1.946   .     S
O1123  C1227   1.268   .     S
O1124  Zn1128  1.946   .     S
Zn1127 O324    1.933   1_565 S
Zn1130 O1475   1.933   .     S
Zn1132 O313    1.933   1_565 S
Zn1134 O1492   1.913   1_455 S
Zn1135 O1483   1.915   1_455 S
Zn1138 O1489   1.915   1_455 S
Zn1139 O1498   1.913   1_455 S
Zn1140 O1486   1.933   .     S
C1141  C1248   1.455   .     S
C1141  O1504   1.268   .     S
C1142  C1224   1.422   .     S
C1142  O1467   1.275   .     A
C1142  O1495   1.275   .     A
C1143  C1190   1.528   .     S
C1143  C1267   1.420   .     A
C1143  C1146   1.402   1_554 S
C1144  C1268   1.420   .     A
C1144  C1192   1.528   .     S
C1144  C1291   1.402   1_556 S
C1145  C1194   1.528   .     S
C1145  C1269   1.419   .     A
C1145  C1290   1.402   1_554 S
C1146  C1270   1.419   .     A
C1146  C1196   1.528   .     S
C1146  C1143   1.402   1_556 S
C1147  C1199   1.528   .     S
C1147  C1272   1.420   .     A
C1147  C1292   1.402   1_554 S
C1148  H1371   1.110   .     S
C1148  H1360   1.110   .     S
C1148  H1349   1.109   .     S
C1149  H1404   1.110   .     S
C1149  N1445   1.452   .     S
C1149  H1013   1.109   1_655 S
C1149  H1035   1.110   1_655 S
C1150  H1294   1.109   .     S
C1150  N1446   1.452   .     S
C1150  H1305   1.110   .     S
C1150  H556    1.110   1_565 S
C1151  H1344   1.110   .     S
C1151  H1338   1.109   .     S
C1151  H1345   1.110   .     S
C1152  H1347   1.109   .     S
C1152  H1350   1.110   .     S
C1152  H1348   1.110   .     S
C1152  N1068   1.451   1_655 S
C1153  C1223   1.420   .     S
C1153  O1468   1.275   .     A
C1153  O1492   1.275   .     A
C1154  N1449   1.452   .     S
C1154  H1353   1.110   .     S
C1155  H1357   1.110   .     S
C1155  H1356   1.109   .     S
C1155  N1450   1.452   .     S
C1156  H1362   1.110   .     S
C1156  H1361   1.109   .     S
C1156  H1363   1.110   .     S
C1156  N691    1.451   1_565 S
C1157  H1367   1.110   .     S
C1157  N1452   1.451   .     S
C1157  H1365   1.109   .     S
C1157  H1366   1.110   .     S
C1158  H1370   1.110   .     S
C1158  N1438   1.452   .     S
C1158  H1369   1.109   .     S
C1158  H1372   1.110   .     S
C1159  H1376   1.110   .     S
C1159  H1374   1.109   .     S
C1159  H1375   1.110   .     S
C1159  N1439   1.452   .     S
C1160  H1378   1.109   .     S
C1160  H1380   1.110   .     S
C1160  H1379   1.110   .     S
C1160  N1440   1.451   .     S
C1161  H1383   1.109   .     S
C1161  H1385   1.110   .     S
C1161  H1384   1.110   .     S
C1161  N1441   1.451   .     S
C1162  H1388   1.110   .     S
C1162  N1442   1.452   .     S
C1162  H1387   1.109   .     S
C1162  H1389   1.110   .     S
C1163  H1392   1.110   .     S
C1163  H1391   1.109   .     S
C1163  H1394   1.110   .     S
C1163  N1443   1.452   .     S
C1164  C1222   1.420   .     S
C1164  O1493   1.275   .     A
C1164  O1469   1.275   .     A
C1165  H1396   1.109   .     S
C1165  H1397   1.110   .     S
C1165  N1444   1.451   .     S
C1165  H1398   1.110   .     S
C1166  H1403   1.111   .     S
C1166  C1167   1.529   .     S
C1166  C1281   1.528   .     S
C1166  H1402   1.102   .     S
C1167  H1400   1.107   .     S
C1167  H1401   1.111   .     S
C1167  H1399   1.111   .     S
C1168  C1169   1.529   .     S
C1168  H1409   1.111   .     S
C1168  C903    1.528   1_655 S
C1168  H1028   1.102   1_655 S
C1169  H1406   1.107   .     S
C1169  H1405   1.111   .     S
C1169  H1407   1.111   .     S
C1170  C1171   1.529   .     S
C1170  H1414   1.111   .     S
C1170  C524    1.528   1_565 S
C1170  H653    1.102   1_565 S
C1171  H1412   1.111   .     S
C1171  H1410   1.111   .     S
C1171  H1411   1.107   .     S
C1172  H1419   1.102   .     S
C1172  C1285   1.528   .     S
C1172  C1173   1.529   .     S
C1172  H1420   1.111   .     S
C1173  H1416   1.111   .     S
C1173  H1418   1.111   .     S
C1173  H1417   1.107   .     S
C1174  H1424   1.102   .     S
C1174  H1425   1.111   .     S
C1174  C1286   1.528   .     S
C1174  C1176   1.529   .     S
C1175  C1221   1.422   .     S
C1175  O1470   1.275   .     A
C1175  O1499   1.275   .     A
C1176  H1422   1.107   .     S
C1176  H1421   1.111   .     S
C1176  H1423   1.111   .     S
C1177  C1178   1.529   .     S
C1177  H1431   1.111   .     S
C1178  H1428   1.107   .     S
C1178  H1429   1.111   .     S
C1178  H1427   1.111   .     S
C1179  C1180   1.529   .     S
C1179  H1436   1.111   .     S
C1180  H1434   1.111   .     S
C1180  H1432   1.111   .     S
C1180  H1433   1.107   .     S
C1181  C1289   1.528   .     S
C1181  C1182   1.529   .     S
C1181  H1299   1.111   .     S
C1181  H1298   1.102   .     S
C1182  H1296   1.107   .     S
C1182  H1297   1.111   .     S
C1182  H1295   1.111   .     S
C1183  C1184   1.529   .     S
C1183  H1304   1.111   .     S
C1183  C1290   1.528   .     S
C1183  H1303   1.102   .     S
C1184  H1301   1.107   .     S
C1184  H1302   1.111   .     S
C1184  H1300   1.111   .     S
C1185  H1310   1.111   .     S
C1185  C1187   1.529   .     S
C1185  C1291   1.528   .     S
C1185  H1309   1.102   .     S
C1186  O1500   1.275   .     A
C1186  C1220   1.422   .     S
C1186  O1471   1.275   .     A
C1187  H1308   1.111   .     S
C1187  H1306   1.111   .     S
C1187  H1307   1.107   .     S
C1188  H1315   1.111   .     S
C1188  H1314   1.102   .     S
C1188  C1292   1.528   .     S
C1188  C1189   1.529   .     S
C1189  H1313   1.111   .     S
C1189  H1312   1.107   .     S
C1189  H1311   1.111   .     S
C1190  C1191   1.529   .     S
C1190  H1320   1.102   .     S
C1190  H1321   1.111   .     S
C1191  H1318   1.107   .     S
C1191  H1319   1.111   .     S
C1191  H1317   1.111   .     S
C1192  H1326   1.111   .     S
C1192  C1193   1.529   .     S
C1192  H1325   1.102   .     S
C1193  H1323   1.107   .     S
C1193  H1322   1.111   .     S
C1193  H1324   1.111   .     S
C1194  H1332   1.111   .     S
C1194  C1195   1.529   .     S
C1194  H1331   1.102   .     S
C1195  H1329   1.107   .     S
C1195  H1328   1.111   .     S
C1195  H1330   1.111   .     S
C1196  C1198   1.529   .     S
C1196  H1336   1.102   .     S
C1196  H1337   1.111   .     S
C1197  O1496   1.275   .     A
C1197  O1472   1.275   .     A
C1197  C1228   1.420   .     S
C1198  H1335   1.111   .     S
C1198  H1333   1.111   .     S
C1198  H1334   1.107   .     S
C1199  C1200   1.529   .     S
C1199  H1342   1.102   .     S
C1199  H1343   1.111   .     S
C1200  H1340   1.107   .     S
C1200  H1341   1.111   .     S
C1200  H1339   1.111   .     S
C1201  O1498   1.275   .     A
C1201  O1473   1.275   .     A
C1201  C1226   1.420   .     S
C1202  C1217   1.420   .     S
C1202  O1474   1.275   .     A
C1202  O1485   1.275   .     A
C1203  C1215   1.420   .     S
C1203  O1487   1.275   .     A
C1203  O1476   1.275   .     A
C1204  O1477   1.275   .     A
C1204  C1214   1.422   .     S
C1204  O1483   1.275   .     A
C1205  C1250   1.455   .     S
C1205  O1501   1.268   .     A
C1206  O1478   1.275   .     A
C1206  C1213   1.422   .     S
C1206  O1484   1.275   .     A
C1207  C1212   1.420   .     S
C1207  O1490   1.275   .     A
C1207  O1479   1.275   .     A
C1208  O1491   1.275   .     A
C1208  C1211   1.420   .     S
C1208  O1480   1.275   .     A
C1209  C1219   1.422   .     S
C1209  O1488   1.275   .     A
C1209  O1481   1.275   .     A
C1210  O1482   1.275   .     A
C1210  C1218   1.422   .     S
C1210  O1489   1.275   .     A
C1211  C1228   1.197   .     T
C1212  C1226   1.197   .     T
C1213  C1225   1.198   .     T
C1214  C1224   1.198   .     T
C1215  C1223   1.197   .     T
C1216  C1246   1.455   .     S
C1216  O1502   1.268   .     S
C1217  C1222   1.197   .     T
C1218  C1221   1.198   .     T
C1219  C1220   1.198   .     T
C1225  C1282   1.422   .     S
C1227  C1247   1.455   .     S
C1227  O1456   1.268   .     A
C1229  C1259   1.416   .     A
C1229  C1246   1.405   .     S
C1230  C1261   1.416   .     A
C1230  N1445   1.431   .     S
C1230  C867    1.405   1_655 S
C1231  C1262   1.416   .     A
C1231  C488    1.405   1_565 A
C1231  N1446   1.431   .     S
C1232  C1263   1.416   .     A
C1232  C1250   1.405   .     A
C1233  C866    1.405   1_655 A
C1233  C1255   1.416   .     A
C1233  N1068   1.431   1_655 S
C1234  C1247   1.405   .     A
C1234  N1449   1.431   .     S
C1234  C1256   1.416   .     A
C1235  N1450   1.431   .     S
C1235  C1257   1.416   .     A
C1235  C1248   1.405   .     S
C1236  C1258   1.416   .     A
C1236  C490    1.405   1_565 S
C1236  N691    1.431   1_565 S
C1237  C1268   1.416   .     A
C1237  N1452   1.431   .     S
C1237  C1251   1.405   .     S
C1238  O1461   1.268   .     A
C1238  C1253   1.455   .     S
C1238  O1457   1.268   .     S
C1239  C1269   1.416   .     A
C1239  N1438   1.431   .     S
C1239  C492    1.405   1_565 A
C1240  C1270   1.416   .     A
C1240  N1439   1.431   .     S
C1240  C873    1.405   1_655 S
C1241  N1440   1.431   .     S
C1241  C1272   1.416   .     A
C1241  C1254   1.405   .     S
C1242  C491    1.405   1_565 A
C1242  C1264   1.416   .     A
C1242  N1441   1.431   .     S
C1243  C1265   1.416   .     A
C1243  N1442   1.431   .     S
C1243  C1252   1.405   .     S
C1244  C1253   1.405   .     A
C1244  N1443   1.431   .     S
C1244  C1266   1.416   .     A
C1245  C1267   1.416   .     A
C1245  C874    1.405   1_655 A
C1245  N1444   1.431   .     S
C1249  C1254   1.455   .     S
C1249  O1462   1.268   .     A
C1249  O1458   1.268   .     A
C1251  C1260   1.455   .     S
C1252  C1271   1.455   .     S
C1255  C1281   1.420   .     A
C1255  C893    1.422   1_655 S
C1256  C1274   1.422   .     A
C1256  C1283   1.419   .     A
C1257  C1275   1.422   .     A
C1257  C1284   1.419   .     A
C1258  C1285   1.420   .     A
C1258  C516    1.422   1_565 S
C1259  C1286   1.420   .     A
C1259  C1273   1.422   .     A
C1260  O1459   1.268   .     S
C1260  O1463   1.268   .     S
C1261  C1287   1.419   .     A
C1261  C894    1.422   1_655 S
C1262  C1288   1.419   .     A
C1262  C515    1.422   1_565 S
C1263  C1276   1.422   .     A
C1263  C1289   1.420   .     A
C1264  C517    1.422   1_565 A
C1264  C1290   1.420   .     A
C1265  C1291   1.419   .     A
C1265  C1278   1.422   .     S
C1266  C1292   1.419   .     A
C1266  C1279   1.422   .     S
C1267  C900    1.422   1_655 A
C1268  C1277   1.422   .     S
C1269  C518    1.422   1_565 A
C1270  C899    1.422   1_655 A
C1271  O1460   1.268   .     S
C1271  O1465   1.268   .     S
C1272  C1280   1.422   .     S
C1273  C1274   1.418   .     A
C1275  C1276   1.418   .     A
C1277  C1278   1.418   1_556 S
C1278  C1277   1.418   1_554 S
C1279  C1280   1.418   1_556 S
C1280  C1279   1.418   1_554 S
C1281  C1287   1.402   .     A
C1282  O1494   1.275   .     A
C1282  O1466   1.275   .     A
C1283  C1286   1.402   .     A
C1284  C1289   1.402   .     A
C1285  C1288   1.402   .     A
C1287  C797    1.528   1_655 S
C1288  C419    1.528   1_565 S
C1290  C1145   1.402   1_556 S
C1291  C1144   1.402   1_554 S
C1292  C1147   1.402   1_556 S
H1293  N1437   1.031   .     S
H1327  N1447   1.031   .     S
H1346  N1448   1.031   .     S
H1351  N1449   1.031   .     S
H1352  C774    1.109   1_655 S
H1354  C774    1.110   1_655 S
H1355  N1450   1.031   .     S
H1358  C395    1.110   1_565 S
H1359  N1451   1.031   .     S
H1364  N1452   1.031   .     S
H1368  N1438   1.031   .     S
H1373  N1439   1.031   .     S
H1377  N1440   1.031   .     S
H1381  N1441   1.031   .     S
H1382  N1445   1.031   .     S
H1386  N1442   1.031   .     S
H1390  N1443   1.031   .     S
H1395  N1444   1.031   .     S
H1426  N1446   1.031   .     S
H1430  C797    1.102   1_655 S
H1435  C419    1.102   1_565 S
N1437  C768    1.451   1_655 S
N1437  C849    1.431   1_655 S
N1447  C391    1.451   1_565 S
N1447  C472    1.431   1_565 S
O1453  Zn1505  1.933   .     S
O1453  Zn1516  1.933   .     S
O1453  Zn1508  1.933   .     S
O1454  Zn1507  1.946   .     S
O1454  C445    1.268   1_565 S
O1455  C836    1.268   1_655 A
O1455  Zn1510  1.946   .     S
O1456  Zn1509  1.946   .     S
O1457  Zn1519  1.946   .     S
O1458  Zn1518  1.946   .     S
O1459  Zn1513  1.946   .     S
O1460  Zn1505  1.946   .     S
O1461  Zn1515  1.946   .     S
O1462  Zn1514  1.946   .     S
O1463  Zn1517  1.946   .     S
O1464  Zn1511  1.933   .     S
O1464  Zn1513  1.933   .     S
O1464  Zn1517  1.933   .     S
O1465  Zn1516  1.946   .     S
O1466  Zn1508  1.915   .     S
O1467  Zn1507  1.915   .     S
O1468  Zn1510  1.913   .     S
O1469  Zn1509  1.913   .     S
O1470  Zn1512  1.915   .     S
O1471  Zn1511  1.915   .     S
O1472  Zn1506  1.913   .     S
O1473  Zn1520  1.913   .     S
O1474  Zn1507  1.913   .     S
O1475  Zn1514  1.933   .     S
O1475  Zn1518  1.933   .     S
O1475  Zn1506  1.933   .     S
O1476  Zn1508  1.913   .     S
O1477  Zn1520  1.915   .     S
O1478  Zn1506  1.915   .     S
O1479  Zn1511  1.913   .     S
O1480  Zn1512  1.913   .     S
O1481  Zn1509  1.915   .     S
O1482  Zn1510  1.915   .     S
O1483  Zn1135  1.915   1_655 S
O1484  Zn1514  1.915   .     S
O1485  Zn757   1.913   1_565 S
O1486  Zn1519  1.933   .     S
O1486  Zn1509  1.933   .     S
O1486  Zn1515  1.933   .     S
O1487  Zn1516  1.913   .     S
O1488  Zn1519  1.915   .     S
O1489  Zn1138  1.915   1_655 S
O1490  Zn1513  1.913   .     S
O1491  Zn745   1.913   1_565 S
O1492  Zn1134  1.913   1_655 S
O1493  Zn1515  1.913   .     S
O1494  Zn1505  1.915   .     S
O1495  Zn753   1.915   1_565 S
O1496  Zn1518  1.913   .     S
O1497  Zn1512  1.946   .     S
O1497  C381    1.268   1_565 A
O1498  Zn1139  1.913   1_655 S
O1499  Zn756   1.915   1_565 S
O1500  Zn1517  1.915   .     S
O1501  Zn1511  1.946   .     S
O1502  Zn1506  1.946   .     S
O1503  Zn1520  1.946   .     S
O1503  C847    1.268   1_655 S
O1504  Zn1508  1.946   .     S
Zn1507 O704    1.933   1_565 S
Zn1510 O1095   1.933   1_655 S
Zn1512 O693    1.933   1_565 S
Zn1520 O1106   1.933   1_655 S
