data_str_m1_o1_o17_pcu_sym.162
_audit_creation_date              2020-01-03
_audit_creation_method            'Materials Studio'
_symmetry_space_group_name_H-M    'P1'
_symmetry_Int_Tables_number       1
_symmetry_cell_setting            triclinic
loop_
_symmetry_equiv_pos_as_xyz
  x,y,z
_cell_length_a                    36.6323
_cell_length_b                    36.6751
_cell_length_c                    34.4374
_cell_angle_alpha                 89.9942
_cell_angle_beta                  89.9719
_cell_angle_gamma                 89.9905
loop_
_atom_site_label
_atom_site_type_symbol
_atom_site_fract_x
_atom_site_fract_y
_atom_site_fract_z
_atom_site_U_iso_or_equiv
_atom_site_adp_type
_atom_site_occupancy
Zn1    Zn    0.20659   0.00000   0.21735   0.00000  Uiso   1.00
Zn2    Zn    0.29340   0.00000   0.78265   0.00000  Uiso   1.00
Zn3    Zn   -0.00000   0.20660   0.21735   0.00000  Uiso   1.00
Zn4    Zn    0.00000   0.29340   0.78265   0.00000  Uiso   1.00
Zn5    Zn    0.29340   0.00000   0.21735   0.00000  Uiso   1.00
Zn6    Zn    0.20659   0.00000   0.78265   0.00000  Uiso   1.00
Zn7    Zn   -0.00000   0.29341   0.21735   0.00000  Uiso   1.00
Zn8    Zn    0.00000   0.20659   0.78265   0.00000  Uiso   1.00
Zn9    Zn    0.45659   0.25000   0.71735   0.00000  Uiso   1.00
Zn10   Zn    0.04340   0.25000   0.28265   0.00000  Uiso   1.00
Zn11   Zn    0.25000   0.45660   0.71735   0.00000  Uiso   1.00
Zn12   Zn    0.25000   0.04341   0.28265   0.00000  Uiso   1.00
Zn13   Zn    0.04340   0.25000   0.71735   0.00000  Uiso   1.00
Zn14   Zn    0.45659   0.25000   0.28265   0.00000  Uiso   1.00
Zn15   Zn    0.25000   0.04341   0.71735   0.00000  Uiso   1.00
Zn16   Zn    0.25000   0.45660   0.28265   0.00000  Uiso   1.00
C17    C     0.49832   0.28323   0.41791   0.00000  Uiso   1.00
C18    C     0.48984   0.21840   0.58183   0.00000  Uiso   1.00
C19    C     0.21654   0.49780   0.41784   0.00000  Uiso   1.00
C20    C     0.28176   0.49161   0.58174   0.00000  Uiso   1.00
C21    C     0.00163   0.21684   0.41794   0.00000  Uiso   1.00
C22    C     0.00984   0.28178   0.58185   0.00000  Uiso   1.00
C23    C     0.28293   0.00226   0.41784   0.00000  Uiso   1.00
C24    C     0.21770   0.00929   0.58181   0.00000  Uiso   1.00
C25    C     0.24220   0.03232   0.91823   0.00000  Uiso   1.00
C26    C     0.24273   0.46755   0.08177   0.00000  Uiso   1.00
C27    C     0.46770   0.24201   0.91825   0.00000  Uiso   1.00
C28    C     0.03253   0.24290   0.08175   0.00000  Uiso   1.00
C29    C     0.25769   0.46765   0.91823   0.00000  Uiso   1.00
C30    C     0.25728   0.03244   0.08174   0.00000  Uiso   1.00
C31    C     0.03234   0.25791   0.91821   0.00000  Uiso   1.00
C32    C     0.46749   0.25710   0.08177   0.00000  Uiso   1.00
C33    C     0.49998   0.25003   0.39797   0.00000  Uiso   1.00
C34    C     0.49995   0.25004   0.60190   0.00000  Uiso   1.00
C35    C     0.24977   0.00001   0.39791   0.00000  Uiso   1.00
C36    C     0.24968   0.00016   0.60184   0.00000  Uiso   1.00
C37    C     0.24997   0.49999   0.89810   0.00000  Uiso   1.00
C38    C     0.25002   0.49999   0.10190   0.00000  Uiso   1.00
C39    C     0.00001   0.24998   0.89810   0.00000  Uiso   1.00
C40    C     0.00001   0.25000   0.10191   0.00000  Uiso   1.00
O41    O     0.25000  -0.00000   0.25000   0.00000  Uiso   1.00
O42    O     0.25000  -0.00000   0.75000   0.00000  Uiso   1.00
O43    O     0.00000   0.25000   0.25000   0.00000  Uiso   1.00
O44    O     0.00000   0.25000   0.75000   0.00000  Uiso   1.00
O45    O     0.25000   0.46963   0.33755   0.00000  Uiso   1.00
O46    O     0.25000   0.03037   0.66245   0.00000  Uiso   1.00
O47    O     0.03036   0.25000   0.33755   0.00000  Uiso   1.00
O48    O     0.46963   0.25000   0.66245   0.00000  Uiso   1.00
O49    O     0.25000   0.03037   0.33755   0.00000  Uiso   1.00
O50    O     0.25000   0.46963   0.66245   0.00000  Uiso   1.00
O51    O     0.46963   0.25000   0.33755   0.00000  Uiso   1.00
O52    O     0.03036   0.25000   0.66245   0.00000  Uiso   1.00
O53    O    -0.00000   0.21964   0.83755   0.00000  Uiso   1.00
O54    O     0.00000   0.28036   0.16245   0.00000  Uiso   1.00
O55    O     0.28036   0.00000   0.83755   0.00000  Uiso   1.00
O56    O     0.21963   0.00000   0.16245   0.00000  Uiso   1.00
O57    O     0.00000   0.28036   0.83755   0.00000  Uiso   1.00
O58    O     0.00000   0.21963   0.16245   0.00000  Uiso   1.00
O59    O     0.21963  -0.00000   0.83755   0.00000  Uiso   1.00
O60    O     0.28036   0.00000   0.16245   0.00000  Uiso   1.00
O61    O     0.20724   0.07308   0.27302   0.00000  Uiso   1.00
O62    O     0.29275   0.42693   0.72698   0.00000  Uiso   1.00
O63    O     0.42692   0.20725   0.27302   0.00000  Uiso   1.00
O64    O     0.07307   0.29275   0.72698   0.00000  Uiso   1.00
O65    O     0.29275   0.42693   0.27302   0.00000  Uiso   1.00
O66    O     0.20724   0.07308   0.72698   0.00000  Uiso   1.00
O67    O     0.07307   0.29275   0.27302   0.00000  Uiso   1.00
O68    O     0.42692   0.20725   0.72698   0.00000  Uiso   1.00
O69    O     0.20724   0.42692   0.72698   0.00000  Uiso   1.00
O70    O     0.29275   0.07308   0.27302   0.00000  Uiso   1.00
O71    O     0.42692   0.29276   0.72698   0.00000  Uiso   1.00
O72    O     0.07307   0.20724   0.27302   0.00000  Uiso   1.00
O73    O     0.29275   0.07308   0.72698   0.00000  Uiso   1.00
O74    O     0.20724   0.42692   0.27302   0.00000  Uiso   1.00
O75    O     0.07307   0.20724   0.72698   0.00000  Uiso   1.00
O76    O     0.42692   0.29276   0.27302   0.00000  Uiso   1.00
O77    O     0.45724   0.32308   0.77302   0.00000  Uiso   1.00
O78    O     0.04275   0.17692   0.22698   0.00000  Uiso   1.00
O79    O     0.17692   0.45724   0.77302   0.00000  Uiso   1.00
O80    O     0.32307   0.04276   0.22698   0.00000  Uiso   1.00
O81    O     0.04275   0.17692   0.77302   0.00000  Uiso   1.00
O82    O     0.45724   0.32308   0.22698   0.00000  Uiso   1.00
O83    O     0.32307   0.04276   0.77302   0.00000  Uiso   1.00
O84    O     0.17692   0.45724   0.22698   0.00000  Uiso   1.00
O85    O     0.45724   0.17693   0.22698   0.00000  Uiso   1.00
O86    O     0.04275   0.32307   0.77302   0.00000  Uiso   1.00
O87    O     0.17692   0.04276   0.22698   0.00000  Uiso   1.00
O88    O     0.32307   0.45725   0.77302   0.00000  Uiso   1.00
O89    O     0.04275   0.32307   0.22698   0.00000  Uiso   1.00
O90    O     0.45724   0.17693   0.77302   0.00000  Uiso   1.00
O91    O     0.32307   0.45725   0.22698   0.00000  Uiso   1.00
O92    O     0.17692   0.04276   0.77302   0.00000  Uiso   1.00
C93    C     0.49239   0.18356   0.47963   0.00000  Uiso   1.00
C94    C     0.00823   0.31644   0.52026   0.00000  Uiso   1.00
C95    C     0.31640   0.49379   0.47942   0.00000  Uiso   1.00
C96    C     0.18308   0.00680   0.52026   0.00000  Uiso   1.00
C97    C     0.00752   0.31654   0.47957   0.00000  Uiso   1.00
C98    C     0.49161   0.18371   0.52032   0.00000  Uiso   1.00
C99    C     0.18297   0.00614   0.47957   0.00000  Uiso   1.00
C100   C     0.31636   0.49337   0.52007   0.00000  Uiso   1.00
C101   C     0.25158   0.43316   0.97967   0.00000  Uiso   1.00
C102   C     0.25029   0.06683   0.02036   0.00000  Uiso   1.00
C103   C     0.06691   0.25209   0.97965   0.00000  Uiso   1.00
C104   C     0.43310   0.24988   0.02042   0.00000  Uiso   1.00
C105   C     0.24826   0.06682   0.97966   0.00000  Uiso   1.00
C106   C     0.24962   0.43315   0.02038   0.00000  Uiso   1.00
C107   C     0.43312   0.24784   0.97971   0.00000  Uiso   1.00
C108   C     0.06693   0.25008   0.02036   0.00000  Uiso   1.00
C109   C     0.24986   0.00000   0.35570   0.00000  Uiso   1.00
C110   C     0.24983   0.00003   0.64421   0.00000  Uiso   1.00
C111   C     0.49999   0.25001   0.35573   0.00000  Uiso   1.00
C112   C    -0.00000   0.25000   0.64422   0.00000  Uiso   1.00
C113   C     0.00000   0.25000   0.85578   0.00000  Uiso   1.00
C114   C     0.00000   0.25000   0.14423   0.00000  Uiso   1.00
C115   C     0.24999  -0.00000   0.85579   0.00000  Uiso   1.00
C116   C     0.25001   0.00000   0.14421   0.00000  Uiso   1.00
C117   C     0.17994   0.06993   0.25023   0.00000  Uiso   1.00
C118   C     0.31998   0.42992   0.75023   0.00000  Uiso   1.00
C119   C     0.43005   0.17996   0.25023   0.00000  Uiso   1.00
C120   C     0.07005   0.32000   0.75001   0.00000  Uiso   1.00
C121   C     0.32007   0.43007   0.25022   0.00000  Uiso   1.00
C122   C     0.17997   0.07002   0.75001   0.00000  Uiso   1.00
C123   C     0.06995   0.32005   0.25023   0.00000  Uiso   1.00
C124   C     0.42994   0.18002   0.75004   0.00000  Uiso   1.00
C125   C     0.18002   0.43002   0.75004   0.00000  Uiso   1.00
C126   C     0.31999   0.07003   0.24979   0.00000  Uiso   1.00
C127   C     0.42992   0.31986   0.75004   0.00000  Uiso   1.00
C128   C     0.07004   0.18003   0.24981   0.00000  Uiso   1.00
C129   C     0.31995   0.07001   0.75006   0.00000  Uiso   1.00
C130   C     0.18002   0.42996   0.24979   0.00000  Uiso   1.00
C131   C     0.07000   0.18004   0.75002   0.00000  Uiso   1.00
C132   C     0.42995   0.31997   0.24981   0.00000  Uiso   1.00
C133   C     0.14089   0.38597   0.21469   0.00000  Uiso   1.00
C134   C     0.36020   0.11266   0.78570   0.00000  Uiso   1.00
C135   C     0.11412   0.14095   0.21473   0.00000  Uiso   1.00
C136   C     0.38637   0.35919   0.78585   0.00000  Uiso   1.00
C137   C     0.35916   0.11402   0.21469   0.00000  Uiso   1.00
C138   C     0.13981   0.38730   0.78561   0.00000  Uiso   1.00
C139   C     0.38590   0.35905   0.21473   0.00000  Uiso   1.00
C140   C     0.11288   0.14002   0.78556   0.00000  Uiso   1.00
C141   C     0.13955   0.11272   0.78549   0.00000  Uiso   1.00
C142   C     0.35823   0.38536   0.21480   0.00000  Uiso   1.00
C143   C     0.11257   0.36057   0.78553   0.00000  Uiso   1.00
C144   C     0.38541   0.14175   0.21479   0.00000  Uiso   1.00
C145   C     0.36004   0.38687   0.78579   0.00000  Uiso   1.00
C146   C     0.14181   0.11465   0.21481   0.00000  Uiso   1.00
C147   C     0.38746   0.13938   0.78561   0.00000  Uiso   1.00
C148   C     0.11462   0.35826   0.21478   0.00000  Uiso   1.00
C149   C     0.38908   0.13774   0.71464   0.00000  Uiso   1.00
C150   C     0.10878   0.36428   0.28537   0.00000  Uiso   1.00
C151   C     0.36344   0.39013   0.71494   0.00000  Uiso   1.00
C152   C     0.13560   0.10870   0.28537   0.00000  Uiso   1.00
C153   C     0.11078   0.36247   0.71458   0.00000  Uiso   1.00
C154   C     0.39118   0.13572   0.28538   0.00000  Uiso   1.00
C155   C     0.13729   0.11049   0.71456   0.00000  Uiso   1.00
C156   C     0.36437   0.39130   0.28537   0.00000  Uiso   1.00
C157   C     0.39199   0.36490   0.28526   0.00000  Uiso   1.00
C158   C     0.11000   0.13716   0.71448   0.00000  Uiso   1.00
C159   C     0.36484   0.10806   0.28524   0.00000  Uiso   1.00
C160   C     0.13736   0.38982   0.71451   0.00000  Uiso   1.00
C161   C     0.10797   0.13509   0.28526   0.00000  Uiso   1.00
C162   C     0.38969   0.36249   0.71492   0.00000  Uiso   1.00
C163   C     0.13513   0.39193   0.28524   0.00000  Uiso   1.00
C164   C     0.36247   0.11043   0.71459   0.00000  Uiso   1.00
C165   C     0.49776   0.21648   0.45881   0.00000  Uiso   1.00
C166   C     0.00586   0.28315   0.54101   0.00000  Uiso   1.00
C167   C     0.28334   0.49848   0.45869   0.00000  Uiso   1.00
C168   C     0.21647   0.00527   0.54096   0.00000  Uiso   1.00
C169   C     0.00219   0.28361   0.45878   0.00000  Uiso   1.00
C170   C     0.49394   0.21702   0.54101   0.00000  Uiso   1.00
C171   C     0.21606   0.00158   0.45873   0.00000  Uiso   1.00
C172   C     0.28300   0.49523   0.54089   0.00000  Uiso   1.00
C173   C     0.25289   0.46655   0.95897   0.00000  Uiso   1.00
C174   C     0.25233   0.03347   0.04103   0.00000  Uiso   1.00
C175   C     0.03348   0.25314   0.95896   0.00000  Uiso   1.00
C176   C     0.46649   0.25213   0.04106   0.00000  Uiso   1.00
C177   C     0.24699   0.03343   0.95896   0.00000  Uiso   1.00
C178   C     0.24764   0.46652   0.04104   0.00000  Uiso   1.00
C179   C     0.46656   0.24679   0.95899   0.00000  Uiso   1.00
C180   C     0.03354   0.24785   0.04103   0.00000  Uiso   1.00
C181   C     0.09853   0.34761   0.25016   0.00000  Uiso   1.00
C182   C     0.40176   0.15198   0.75010   0.00000  Uiso   1.00
C183   C     0.15235   0.09849   0.25017   0.00000  Uiso   1.00
C184   C     0.34849   0.40217   0.75034   0.00000  Uiso   1.00
C185   C     0.40146   0.15240   0.25017   0.00000  Uiso   1.00
C186   C     0.09821   0.34807   0.75004   0.00000  Uiso   1.00
C187   C     0.34766   0.40152   0.25016   0.00000  Uiso   1.00
C188   C     0.15185   0.09813   0.75003   0.00000  Uiso   1.00
C189   C     0.09803   0.15200   0.75002   0.00000  Uiso   1.00
C190   C     0.40243   0.34862   0.24993   0.00000  Uiso   1.00
C191   C     0.15196   0.40200   0.75006   0.00000  Uiso   1.00
C192   C     0.34867   0.09753   0.24990   0.00000  Uiso   1.00
C193   C     0.40128   0.34729   0.75032   0.00000  Uiso   1.00
C194   C     0.09756   0.15137   0.24993   0.00000  Uiso   1.00
C195   C     0.34797   0.09809   0.75014   0.00000  Uiso   1.00
C196   C     0.15135   0.40246   0.24990   0.00000  Uiso   1.00
C197   C     0.49997   0.25006   0.47936   0.00000  Uiso   1.00
C198   C     0.49994   0.25007   0.52043   0.00000  Uiso   1.00
C199   C     0.24970   0.00006   0.47927   0.00000  Uiso   1.00
C200   C     0.24972   0.00015   0.52035   0.00000  Uiso   1.00
C201   C     0.24995   0.49999   0.97950   0.00000  Uiso   1.00
C202   C     0.24997   0.49999   0.02050   0.00000  Uiso   1.00
C203   C     0.00002   0.24998   0.97950   0.00000  Uiso   1.00
C204   C     0.00002   0.24999   0.02050   0.00000  Uiso   1.00
N205   N     0.48521   0.14987   0.45986   0.00000  Uiso   1.00
O206   O     0.45464   0.14563   0.44117   0.00000  Uiso   1.00
O207   O     0.00698   0.12213   0.46427   0.00000  Uiso   1.00
N208   N     0.00865   0.35086   0.54013   0.00000  Uiso   1.00
O209   O     0.47999   0.36140   0.55944   0.00000  Uiso   1.00
O210   O     0.03578   0.37334   0.53540   0.00000  Uiso   1.00
N211   N     0.35018   0.48678   0.45961   0.00000  Uiso   1.00
O212   O     0.35465   0.45619   0.44107   0.00000  Uiso   1.00
O213   O     0.37778   0.00876   0.46383   0.00000  Uiso   1.00
N214   N     0.14864   0.00627   0.54021   0.00000  Uiso   1.00
O215   O     0.13913   0.47759   0.56000   0.00000  Uiso   1.00
O216   O     0.12530   0.03265   0.53541   0.00000  Uiso   1.00
N217   N     0.01478   0.35021   0.45975   0.00000  Uiso   1.00
O218   O     0.04535   0.35438   0.44102   0.00000  Uiso   1.00
O219   O     0.49305   0.37799   0.46414   0.00000  Uiso   1.00
N220   N     0.49118   0.14932   0.54026   0.00000  Uiso   1.00
O221   O     0.01966   0.13899   0.55996   0.00000  Uiso   1.00
O222   O     0.46415   0.12674   0.53545   0.00000  Uiso   1.00
N223   N     0.14908   0.01257   0.45982   0.00000  Uiso   1.00
O224   O     0.14406   0.04311   0.44134   0.00000  Uiso   1.00
O225   O     0.12187   0.49012   0.46412   0.00000  Uiso   1.00
N226   N     0.35089   0.49354   0.53977   0.00000  Uiso   1.00
O227   O     0.36185   0.02302   0.55724   0.00000  Uiso   1.00
O228   O     0.37334   0.46628   0.53582   0.00000  Uiso   1.00
N229   N     0.24939   0.39890   0.95962   0.00000  Uiso   1.00
O230   O     0.22090   0.39147   0.93851   0.00000  Uiso   1.00
O231   O     0.27394   0.37383   0.96540   0.00000  Uiso   1.00
N232   N     0.24735   0.10101   0.04047   0.00000  Uiso   1.00
O233   O     0.21888   0.10766   0.06194   0.00000  Uiso   1.00
O234   O     0.27120   0.12671   0.03450   0.00000  Uiso   1.00
N235   N     0.10123   0.25023   0.95959   0.00000  Uiso   1.00
O236   O     0.10900   0.22180   0.93855   0.00000  Uiso   1.00
O237   O     0.12608   0.27501   0.96535   0.00000  Uiso   1.00
N238   N     0.39890   0.24672   0.04055   0.00000  Uiso   1.00
O239   O     0.39247   0.21829   0.06209   0.00000  Uiso   1.00
O240   O     0.37299   0.27035   0.03458   0.00000  Uiso   1.00
N241   N     0.25035   0.10108   0.95960   0.00000  Uiso   1.00
O242   O     0.27884   0.10863   0.93851   0.00000  Uiso   1.00
O243   O     0.22571   0.12607   0.96540   0.00000  Uiso   1.00
N244   N     0.25256   0.39897   0.04048   0.00000  Uiso   1.00
O245   O     0.28105   0.39229   0.06188   0.00000  Uiso   1.00
O246   O     0.22867   0.37329   0.03460   0.00000  Uiso   1.00
N247   N     0.39880   0.24967   0.95968   0.00000  Uiso   1.00
O248   O     0.39103   0.27807   0.93860   0.00000  Uiso   1.00
O249   O     0.37397   0.22489   0.96549   0.00000  Uiso   1.00
N250   N     0.10113   0.25323   0.04045   0.00000  Uiso   1.00
O251   O     0.10757   0.28169   0.06195   0.00000  Uiso   1.00
O252   O     0.12702   0.22959   0.03448   0.00000  Uiso   1.00
N253   N     0.15868   0.39562   0.17909   0.00000  Uiso   1.00
O254   O     0.17986   0.37216   0.16192   0.00000  Uiso   1.00
O255   O     0.14898   0.42510   0.16079   0.00000  Uiso   1.00
N256   N     0.34412   0.10140   0.82185   0.00000  Uiso   1.00
O257   O     0.30891   0.10277   0.82656   0.00000  Uiso   1.00
O258   O     0.36468   0.09170   0.85087   0.00000  Uiso   1.00
N259   N     0.10459   0.15883   0.17915   0.00000  Uiso   1.00
O260   O     0.12815   0.18003   0.16215   0.00000  Uiso   1.00
O261   O     0.07513   0.14924   0.16073   0.00000  Uiso   1.00
N262   N     0.39707   0.34251   0.82189   0.00000  Uiso   1.00
O263   O     0.39631   0.30722   0.82566   0.00000  Uiso   1.00
O264   O     0.40602   0.36254   0.85158   0.00000  Uiso   1.00
N265   N     0.34139   0.10438   0.17909   0.00000  Uiso   1.00
O266   O     0.32022   0.12785   0.16193   0.00000  Uiso   1.00
O267   O     0.35109   0.07490   0.16079   0.00000  Uiso   1.00
N268   N     0.15598   0.39843   0.82176   0.00000  Uiso   1.00
O269   O     0.19120   0.39701   0.82635   0.00000  Uiso   1.00
O270   O     0.13548   0.40808   0.85087   0.00000  Uiso   1.00
N271   N     0.39546   0.34116   0.17916   0.00000  Uiso   1.00
O272   O     0.37190   0.31997   0.16217   0.00000  Uiso   1.00
O273   O     0.42493   0.35075   0.16072   0.00000  Uiso   1.00
N274   N     0.10191   0.15640   0.82167   0.00000  Uiso   1.00
O275   O     0.10333   0.19161   0.82601   0.00000  Uiso   1.00
O276   O     0.09239   0.13611   0.85097   0.00000  Uiso   1.00
N277   N     0.15616   0.10195   0.82135   0.00000  Uiso   1.00
O278   O     0.17742   0.12462   0.83955   0.00000  Uiso   1.00
O279   O     0.14509   0.07254   0.83888   0.00000  Uiso   1.00
N280   N     0.34024   0.39486   0.17911   0.00000  Uiso   1.00
O281   O     0.30481   0.39388   0.17683   0.00000  Uiso   1.00
O282   O     0.35919   0.40286   0.14830   0.00000  Uiso   1.00
N283   N     0.10167   0.34409   0.82140   0.00000  Uiso   1.00
O284   O     0.12431   0.32288   0.83974   0.00000  Uiso   1.00
O285   O     0.07222   0.35525   0.83884   0.00000  Uiso   1.00
N286   N     0.39496   0.15970   0.17908   0.00000  Uiso   1.00
O287   O     0.39386   0.19509   0.17673   0.00000  Uiso   1.00
O288   O     0.40314   0.14076   0.14834   0.00000  Uiso   1.00
N289   N     0.34315   0.39749   0.82157   0.00000  Uiso   1.00
O290   O     0.32226   0.37454   0.83988   0.00000  Uiso   1.00
O291   O     0.35365   0.42717   0.83896   0.00000  Uiso   1.00
N292   N     0.15984   0.10516   0.17911   0.00000  Uiso   1.00
O293   O     0.19527   0.10614   0.17684   0.00000  Uiso   1.00
O294   O     0.14092   0.09716   0.14830   0.00000  Uiso   1.00
N295   N     0.39843   0.15575   0.82150   0.00000  Uiso   1.00
O296   O     0.37583   0.17689   0.83999   0.00000  Uiso   1.00
O297   O     0.42793   0.14454   0.83880   0.00000  Uiso   1.00
N298   N     0.10510   0.34032   0.17908   0.00000  Uiso   1.00
O299   O     0.10619   0.30493   0.17673   0.00000  Uiso   1.00
O300   O     0.09695   0.35927   0.14834   0.00000  Uiso   1.00
N301   N     0.40500   0.14912   0.67866   0.00000  Uiso   1.00
O302   O     0.42574   0.12668   0.65945   0.00000  Uiso   1.00
O303   O     0.39322   0.17860   0.66181   0.00000  Uiso   1.00
N304   N     0.09032   0.35532   0.32084   0.00000  Uiso   1.00
O305   O     0.06959   0.37947   0.33757   0.00000  Uiso   1.00
O306   O     0.09885   0.32568   0.33950   0.00000  Uiso   1.00
N307   N     0.35341   0.40721   0.67908   0.00000  Uiso   1.00
O308   O     0.35696   0.44229   0.67519   0.00000  Uiso   1.00
O309   O     0.34385   0.38755   0.64933   0.00000  Uiso   1.00
N310   N     0.14447   0.09017   0.32081   0.00000  Uiso   1.00
O311   O     0.12025   0.06943   0.33741   0.00000  Uiso   1.00
O312   O     0.17411   0.09861   0.33955   0.00000  Uiso   1.00
N313   N     0.09478   0.35116   0.67863   0.00000  Uiso   1.00
O314   O     0.07389   0.37359   0.65961   0.00000  Uiso   1.00
O315   O     0.10650   0.32171   0.66168   0.00000  Uiso   1.00
N316   N     0.40959   0.14470   0.32086   0.00000  Uiso   1.00
O317   O     0.43029   0.12056   0.33760   0.00000  Uiso   1.00
O318   O     0.40102   0.17435   0.33949   0.00000  Uiso   1.00
N319   N     0.14833   0.09418   0.67867   0.00000  Uiso   1.00
O320   O     0.12567   0.07330   0.65996   0.00000  Uiso   1.00
O321   O     0.17783   0.10552   0.66145   0.00000  Uiso   1.00
N322   N     0.35546   0.40982   0.32081   0.00000  Uiso   1.00
O323   O     0.37963   0.43064   0.33735   0.00000  Uiso   1.00
O324   O     0.32583   0.40134   0.33957   0.00000  Uiso   1.00
N325   N     0.41026   0.35563   0.32084   0.00000  Uiso   1.00
O326   O     0.44573   0.35628   0.32266   0.00000  Uiso   1.00
O327   O     0.39154   0.34814   0.35196   0.00000  Uiso   1.00
N328   N     0.09371   0.14823   0.67835   0.00000  Uiso   1.00
O329   O     0.05845   0.14706   0.67394   0.00000  Uiso   1.00
O330   O     0.11412   0.15785   0.64917   0.00000  Uiso   1.00
N331   N     0.35550   0.08984   0.32083   0.00000  Uiso   1.00
O332   O     0.35638   0.05442   0.32275   0.00000  Uiso   1.00
O333   O     0.34778   0.10856   0.35186   0.00000  Uiso   1.00
N334   N     0.14857   0.40598   0.67836   0.00000  Uiso   1.00
O335   O     0.14709   0.44115   0.67369   0.00000  Uiso   1.00
O336   O     0.15858   0.38551   0.64939   0.00000  Uiso   1.00
N337   N     0.08968   0.14438   0.32084   0.00000  Uiso   1.00
O338   O     0.05421   0.14372   0.32267   0.00000  Uiso   1.00
O339   O     0.10837   0.15187   0.35195   0.00000  Uiso   1.00
N340   N     0.40671   0.35203   0.67912   0.00000  Uiso   1.00
O341   O     0.42993   0.37387   0.66250   0.00000  Uiso   1.00
O342   O     0.39534   0.32328   0.66060   0.00000  Uiso   1.00
N343   N     0.14442   0.41016   0.32082   0.00000  Uiso   1.00
O344   O     0.14353   0.44558   0.32271   0.00000  Uiso   1.00
O345   O     0.15209   0.39146   0.35186   0.00000  Uiso   1.00
N346   N     0.35127   0.09434   0.67846   0.00000  Uiso   1.00
O347   O     0.35340   0.05924   0.67357   0.00000  Uiso   1.00
O348   O     0.34091   0.11481   0.64964   0.00000  Uiso   1.00
N349   N     0.49005   0.31590   0.39666   0.00000  Uiso   1.00
O350   O     0.01094   0.32657   0.36828   0.00000  Uiso   1.00
O351   O     0.45971   0.33317   0.40353   0.00000  Uiso   1.00
N352   N     0.47312   0.18892   0.60275   0.00000  Uiso   1.00
O353   O     0.48971   0.17368   0.63196   0.00000  Uiso   1.00
O354   O     0.44003   0.17897   0.59408   0.00000  Uiso   1.00
N355   N     0.18399   0.48917   0.39653   0.00000  Uiso   1.00
O356   O     0.17298   0.01008   0.36834   0.00000  Uiso   1.00
O357   O     0.16724   0.45851   0.40309   0.00000  Uiso   1.00
N358   N     0.31235   0.47782   0.60306   0.00000  Uiso   1.00
O359   O     0.32779   0.49762   0.62973   0.00000  Uiso   1.00
O360   O     0.32334   0.44454   0.59730   0.00000  Uiso   1.00
N361   N     0.00990   0.18416   0.39671   0.00000  Uiso   1.00
O362   O     0.48900   0.17346   0.36838   0.00000  Uiso   1.00
O363   O     0.04025   0.16690   0.40354   0.00000  Uiso   1.00
N364   N     0.02592   0.31149   0.60293   0.00000  Uiso   1.00
O365   O     0.00868   0.32666   0.63178   0.00000  Uiso   1.00
O366   O     0.05906   0.32171   0.59481   0.00000  Uiso   1.00
N367   N     0.31552   0.01099   0.39657   0.00000  Uiso   1.00
O368   O     0.32665   0.49014   0.36838   0.00000  Uiso   1.00
O369   O     0.33234   0.04156   0.40338   0.00000  Uiso   1.00
N370   N     0.18779   0.02529   0.60275   0.00000  Uiso   1.00
O371   O     0.17322   0.00856   0.63225   0.00000  Uiso   1.00
O372   O     0.17696   0.05805   0.59395   0.00000  Uiso   1.00
N373   N     0.22700   0.06283   0.89761   0.00000  Uiso   1.00
O374   O     0.24343   0.07637   0.86738   0.00000  Uiso   1.00
O375   O     0.19516   0.07545   0.90762   0.00000  Uiso   1.00
N376   N     0.22783   0.43683   0.10231   0.00000  Uiso   1.00
O377   O     0.24408   0.42374   0.13287   0.00000  Uiso   1.00
O378   O     0.19649   0.42342   0.09178   0.00000  Uiso   1.00
N379   N     0.43727   0.22660   0.89767   0.00000  Uiso   1.00
O380   O     0.42358   0.24293   0.86746   0.00000  Uiso   1.00
O381   O     0.42489   0.19470   0.90766   0.00000  Uiso   1.00
N382   N     0.06336   0.22814   0.10225   0.00000  Uiso   1.00
O383   O     0.07634   0.24435   0.13287   0.00000  Uiso   1.00
O384   O     0.07699   0.19694   0.09161   0.00000  Uiso   1.00
N385   N     0.27290   0.43713   0.89763   0.00000  Uiso   1.00
O386   O     0.25652   0.42364   0.86735   0.00000  Uiso   1.00
O387   O     0.30465   0.42439   0.90774   0.00000  Uiso   1.00
N388   N     0.27220   0.06316   0.10225   0.00000  Uiso   1.00
O389   O     0.25598   0.07625   0.13283   0.00000  Uiso   1.00
O390   O     0.30353   0.07658   0.09164   0.00000  Uiso   1.00
N391   N     0.06280   0.27323   0.89757   0.00000  Uiso   1.00
O392   O     0.07647   0.25682   0.86739   0.00000  Uiso   1.00
O393   O     0.07524   0.30511   0.90749   0.00000  Uiso   1.00
N394   N     0.43666   0.27189   0.10228   0.00000  Uiso   1.00
O395   O     0.42368   0.25571   0.13294   0.00000  Uiso   1.00
O396   O     0.42302   0.30307   0.09160   0.00000  Uiso   1.00
Zn397  Zn    0.70659   0.00000   0.21735   0.00000  Uiso   1.00
Zn398  Zn    0.79340   0.00000   0.78265   0.00000  Uiso   1.00
Zn399  Zn    0.50000   0.20660   0.21735   0.00000  Uiso   1.00
Zn400  Zn    0.50000   0.29340   0.78265   0.00000  Uiso   1.00
Zn401  Zn    0.79340   0.00000   0.21735   0.00000  Uiso   1.00
Zn402  Zn    0.70659   0.00000   0.78265   0.00000  Uiso   1.00
Zn403  Zn    0.50000   0.29341   0.21735   0.00000  Uiso   1.00
Zn404  Zn    0.50000   0.20659   0.78265   0.00000  Uiso   1.00
Zn405  Zn    0.95659   0.25000   0.71735   0.00000  Uiso   1.00
Zn406  Zn    0.54340   0.25000   0.28265   0.00000  Uiso   1.00
Zn407  Zn    0.75000   0.45660   0.71735   0.00000  Uiso   1.00
Zn408  Zn    0.75000   0.04341   0.28265   0.00000  Uiso   1.00
Zn409  Zn    0.54340   0.25000   0.71735   0.00000  Uiso   1.00
Zn410  Zn    0.95659   0.25000   0.28265   0.00000  Uiso   1.00
Zn411  Zn    0.75000   0.04341   0.71735   0.00000  Uiso   1.00
Zn412  Zn    0.75000   0.45660   0.28265   0.00000  Uiso   1.00
C413   C     0.99832   0.28323   0.41791   0.00000  Uiso   1.00
C414   C     0.98984   0.21840   0.58183   0.00000  Uiso   1.00
C415   C     0.71654   0.49780   0.41784   0.00000  Uiso   1.00
C416   C     0.78176   0.49161   0.58174   0.00000  Uiso   1.00
C417   C     0.50163   0.21684   0.41794   0.00000  Uiso   1.00
C418   C     0.50984   0.28178   0.58185   0.00000  Uiso   1.00
C419   C     0.78293   0.00226   0.41784   0.00000  Uiso   1.00
C420   C     0.71770   0.00929   0.58181   0.00000  Uiso   1.00
C421   C     0.74220   0.03232   0.91823   0.00000  Uiso   1.00
C422   C     0.74273   0.46755   0.08177   0.00000  Uiso   1.00
C423   C     0.96770   0.24201   0.91825   0.00000  Uiso   1.00
C424   C     0.53253   0.24290   0.08175   0.00000  Uiso   1.00
C425   C     0.75769   0.46765   0.91823   0.00000  Uiso   1.00
C426   C     0.75728   0.03244   0.08174   0.00000  Uiso   1.00
C427   C     0.53234   0.25791   0.91821   0.00000  Uiso   1.00
C428   C     0.96749   0.25710   0.08177   0.00000  Uiso   1.00
C429   C     0.99998   0.25003   0.39797   0.00000  Uiso   1.00
C430   C     0.99995   0.25004   0.60190   0.00000  Uiso   1.00
C431   C     0.74977   0.00001   0.39791   0.00000  Uiso   1.00
C432   C     0.74968   0.00016   0.60184   0.00000  Uiso   1.00
C433   C     0.74997   0.49999   0.89810   0.00000  Uiso   1.00
C434   C     0.75002   0.49999   0.10190   0.00000  Uiso   1.00
C435   C     0.50001   0.24998   0.89810   0.00000  Uiso   1.00
C436   C     0.50001   0.25000   0.10191   0.00000  Uiso   1.00
O437   O     0.75000  -0.00000   0.25000   0.00000  Uiso   1.00
O438   O     0.75000  -0.00000   0.75000   0.00000  Uiso   1.00
O439   O     0.50000   0.25000   0.25000   0.00000  Uiso   1.00
O440   O     0.50000   0.25000   0.75000   0.00000  Uiso   1.00
O441   O     0.75000   0.46963   0.33755   0.00000  Uiso   1.00
O442   O     0.75000   0.03037   0.66245   0.00000  Uiso   1.00
O443   O     0.53036   0.25000   0.33755   0.00000  Uiso   1.00
O444   O     0.96963   0.25000   0.66245   0.00000  Uiso   1.00
O445   O     0.75000   0.03037   0.33755   0.00000  Uiso   1.00
O446   O     0.75000   0.46963   0.66245   0.00000  Uiso   1.00
O447   O     0.96963   0.25000   0.33755   0.00000  Uiso   1.00
O448   O     0.53036   0.25000   0.66245   0.00000  Uiso   1.00
O449   O     0.50000   0.21964   0.83755   0.00000  Uiso   1.00
O450   O     0.50000   0.28036   0.16245   0.00000  Uiso   1.00
O451   O     0.78036   0.00000   0.83755   0.00000  Uiso   1.00
O452   O     0.71963   0.00000   0.16245   0.00000  Uiso   1.00
O453   O     0.50000   0.28036   0.83755   0.00000  Uiso   1.00
O454   O     0.50000   0.21963   0.16245   0.00000  Uiso   1.00
O455   O     0.71963  -0.00000   0.83755   0.00000  Uiso   1.00
O456   O     0.78036   0.00000   0.16245   0.00000  Uiso   1.00
O457   O     0.70724   0.07308   0.27302   0.00000  Uiso   1.00
O458   O     0.79275   0.42693   0.72698   0.00000  Uiso   1.00
O459   O     0.92692   0.20725   0.27302   0.00000  Uiso   1.00
O460   O     0.57307   0.29275   0.72698   0.00000  Uiso   1.00
O461   O     0.79275   0.42693   0.27302   0.00000  Uiso   1.00
O462   O     0.70724   0.07308   0.72698   0.00000  Uiso   1.00
O463   O     0.57307   0.29275   0.27302   0.00000  Uiso   1.00
O464   O     0.92692   0.20725   0.72698   0.00000  Uiso   1.00
O465   O     0.70724   0.42692   0.72698   0.00000  Uiso   1.00
O466   O     0.79275   0.07308   0.27302   0.00000  Uiso   1.00
O467   O     0.92692   0.29276   0.72698   0.00000  Uiso   1.00
O468   O     0.57307   0.20724   0.27302   0.00000  Uiso   1.00
O469   O     0.79275   0.07308   0.72698   0.00000  Uiso   1.00
O470   O     0.70724   0.42692   0.27302   0.00000  Uiso   1.00
O471   O     0.57307   0.20724   0.72698   0.00000  Uiso   1.00
O472   O     0.92692   0.29276   0.27302   0.00000  Uiso   1.00
O473   O     0.95724   0.32308   0.77302   0.00000  Uiso   1.00
O474   O     0.54275   0.17692   0.22698   0.00000  Uiso   1.00
O475   O     0.67692   0.45724   0.77302   0.00000  Uiso   1.00
O476   O     0.82307   0.04276   0.22698   0.00000  Uiso   1.00
O477   O     0.54275   0.17692   0.77302   0.00000  Uiso   1.00
O478   O     0.95724   0.32308   0.22698   0.00000  Uiso   1.00
O479   O     0.82307   0.04276   0.77302   0.00000  Uiso   1.00
O480   O     0.67692   0.45724   0.22698   0.00000  Uiso   1.00
O481   O     0.95724   0.17693   0.22698   0.00000  Uiso   1.00
O482   O     0.54275   0.32307   0.77302   0.00000  Uiso   1.00
O483   O     0.67692   0.04276   0.22698   0.00000  Uiso   1.00
O484   O     0.82307   0.45725   0.77302   0.00000  Uiso   1.00
O485   O     0.54275   0.32307   0.22698   0.00000  Uiso   1.00
O486   O     0.95724   0.17693   0.77302   0.00000  Uiso   1.00
O487   O     0.82307   0.45725   0.22698   0.00000  Uiso   1.00
O488   O     0.67692   0.04276   0.77302   0.00000  Uiso   1.00
C489   C     0.99239   0.18356   0.47963   0.00000  Uiso   1.00
C490   C     0.50823   0.31644   0.52026   0.00000  Uiso   1.00
C491   C     0.81640   0.49379   0.47942   0.00000  Uiso   1.00
C492   C     0.68308   0.00680   0.52026   0.00000  Uiso   1.00
C493   C     0.50752   0.31654   0.47957   0.00000  Uiso   1.00
C494   C     0.99161   0.18371   0.52032   0.00000  Uiso   1.00
C495   C     0.68297   0.00614   0.47957   0.00000  Uiso   1.00
C496   C     0.81636   0.49337   0.52007   0.00000  Uiso   1.00
C497   C     0.75158   0.43316   0.97967   0.00000  Uiso   1.00
C498   C     0.75029   0.06683   0.02036   0.00000  Uiso   1.00
C499   C     0.56691   0.25209   0.97965   0.00000  Uiso   1.00
C500   C     0.93310   0.24988   0.02042   0.00000  Uiso   1.00
C501   C     0.74826   0.06682   0.97966   0.00000  Uiso   1.00
C502   C     0.74962   0.43315   0.02038   0.00000  Uiso   1.00
C503   C     0.93312   0.24784   0.97971   0.00000  Uiso   1.00
C504   C     0.56693   0.25008   0.02036   0.00000  Uiso   1.00
C505   C     0.74986   0.00000   0.35570   0.00000  Uiso   1.00
C506   C     0.74983   0.00003   0.64421   0.00000  Uiso   1.00
C507   C     0.99999   0.25001   0.35573   0.00000  Uiso   1.00
C508   C     0.50000   0.25000   0.64422   0.00000  Uiso   1.00
C509   C     0.50000   0.25000   0.85578   0.00000  Uiso   1.00
C510   C     0.50000   0.25000   0.14423   0.00000  Uiso   1.00
C511   C     0.74999  -0.00000   0.85579   0.00000  Uiso   1.00
C512   C     0.75001   0.00000   0.14421   0.00000  Uiso   1.00
C513   C     0.67994   0.06993   0.25023   0.00000  Uiso   1.00
C514   C     0.81998   0.42992   0.75023   0.00000  Uiso   1.00
C515   C     0.93005   0.17996   0.25023   0.00000  Uiso   1.00
C516   C     0.57005   0.32000   0.75001   0.00000  Uiso   1.00
C517   C     0.82007   0.43007   0.25022   0.00000  Uiso   1.00
C518   C     0.67997   0.07002   0.75001   0.00000  Uiso   1.00
C519   C     0.56995   0.32005   0.25023   0.00000  Uiso   1.00
C520   C     0.92994   0.18002   0.75004   0.00000  Uiso   1.00
C521   C     0.68002   0.43002   0.75004   0.00000  Uiso   1.00
C522   C     0.81999   0.07003   0.24979   0.00000  Uiso   1.00
C523   C     0.92992   0.31986   0.75004   0.00000  Uiso   1.00
C524   C     0.57004   0.18003   0.24981   0.00000  Uiso   1.00
C525   C     0.81995   0.07001   0.75006   0.00000  Uiso   1.00
C526   C     0.68002   0.42996   0.24979   0.00000  Uiso   1.00
C527   C     0.57000   0.18004   0.75002   0.00000  Uiso   1.00
C528   C     0.92995   0.31997   0.24981   0.00000  Uiso   1.00
C529   C     0.64089   0.38597   0.21469   0.00000  Uiso   1.00
C530   C     0.86020   0.11266   0.78570   0.00000  Uiso   1.00
C531   C     0.61412   0.14095   0.21473   0.00000  Uiso   1.00
C532   C     0.88637   0.35919   0.78585   0.00000  Uiso   1.00
C533   C     0.85916   0.11402   0.21469   0.00000  Uiso   1.00
C534   C     0.63981   0.38730   0.78561   0.00000  Uiso   1.00
C535   C     0.88590   0.35905   0.21473   0.00000  Uiso   1.00
C536   C     0.61288   0.14002   0.78556   0.00000  Uiso   1.00
C537   C     0.63955   0.11272   0.78549   0.00000  Uiso   1.00
C538   C     0.85823   0.38536   0.21480   0.00000  Uiso   1.00
C539   C     0.61257   0.36057   0.78553   0.00000  Uiso   1.00
C540   C     0.88541   0.14175   0.21479   0.00000  Uiso   1.00
C541   C     0.86004   0.38687   0.78579   0.00000  Uiso   1.00
C542   C     0.64181   0.11465   0.21481   0.00000  Uiso   1.00
C543   C     0.88746   0.13938   0.78561   0.00000  Uiso   1.00
C544   C     0.61462   0.35826   0.21478   0.00000  Uiso   1.00
C545   C     0.88908   0.13774   0.71464   0.00000  Uiso   1.00
C546   C     0.60878   0.36428   0.28537   0.00000  Uiso   1.00
C547   C     0.86344   0.39013   0.71494   0.00000  Uiso   1.00
C548   C     0.63560   0.10870   0.28537   0.00000  Uiso   1.00
C549   C     0.61078   0.36247   0.71458   0.00000  Uiso   1.00
C550   C     0.89118   0.13572   0.28538   0.00000  Uiso   1.00
C551   C     0.63729   0.11049   0.71456   0.00000  Uiso   1.00
C552   C     0.86437   0.39130   0.28537   0.00000  Uiso   1.00
C553   C     0.89199   0.36490   0.28526   0.00000  Uiso   1.00
C554   C     0.61000   0.13716   0.71448   0.00000  Uiso   1.00
C555   C     0.86484   0.10806   0.28524   0.00000  Uiso   1.00
C556   C     0.63736   0.38982   0.71451   0.00000  Uiso   1.00
C557   C     0.60797   0.13509   0.28526   0.00000  Uiso   1.00
C558   C     0.88969   0.36249   0.71492   0.00000  Uiso   1.00
C559   C     0.63513   0.39193   0.28524   0.00000  Uiso   1.00
C560   C     0.86247   0.11043   0.71459   0.00000  Uiso   1.00
C561   C     0.99776   0.21648   0.45881   0.00000  Uiso   1.00
C562   C     0.50586   0.28315   0.54101   0.00000  Uiso   1.00
C563   C     0.78334   0.49848   0.45869   0.00000  Uiso   1.00
C564   C     0.71647   0.00527   0.54096   0.00000  Uiso   1.00
C565   C     0.50219   0.28361   0.45878   0.00000  Uiso   1.00
C566   C     0.99394   0.21702   0.54101   0.00000  Uiso   1.00
C567   C     0.71606   0.00158   0.45873   0.00000  Uiso   1.00
C568   C     0.78300   0.49523   0.54089   0.00000  Uiso   1.00
C569   C     0.75289   0.46655   0.95897   0.00000  Uiso   1.00
C570   C     0.75233   0.03347   0.04103   0.00000  Uiso   1.00
C571   C     0.53348   0.25314   0.95896   0.00000  Uiso   1.00
C572   C     0.96649   0.25213   0.04106   0.00000  Uiso   1.00
C573   C     0.74699   0.03343   0.95896   0.00000  Uiso   1.00
C574   C     0.74764   0.46652   0.04104   0.00000  Uiso   1.00
C575   C     0.96656   0.24679   0.95899   0.00000  Uiso   1.00
C576   C     0.53354   0.24785   0.04103   0.00000  Uiso   1.00
C577   C     0.59853   0.34761   0.25016   0.00000  Uiso   1.00
C578   C     0.90176   0.15198   0.75010   0.00000  Uiso   1.00
C579   C     0.65235   0.09849   0.25017   0.00000  Uiso   1.00
C580   C     0.84849   0.40217   0.75034   0.00000  Uiso   1.00
C581   C     0.90146   0.15240   0.25017   0.00000  Uiso   1.00
C582   C     0.59821   0.34807   0.75004   0.00000  Uiso   1.00
C583   C     0.84766   0.40152   0.25016   0.00000  Uiso   1.00
C584   C     0.65185   0.09813   0.75003   0.00000  Uiso   1.00
C585   C     0.59803   0.15200   0.75002   0.00000  Uiso   1.00
C586   C     0.90243   0.34862   0.24993   0.00000  Uiso   1.00
C587   C     0.65196   0.40200   0.75006   0.00000  Uiso   1.00
C588   C     0.84867   0.09753   0.24990   0.00000  Uiso   1.00
C589   C     0.90128   0.34729   0.75032   0.00000  Uiso   1.00
C590   C     0.59756   0.15137   0.24993   0.00000  Uiso   1.00
C591   C     0.84797   0.09809   0.75014   0.00000  Uiso   1.00
C592   C     0.65135   0.40246   0.24990   0.00000  Uiso   1.00
C593   C     0.99997   0.25006   0.47936   0.00000  Uiso   1.00
C594   C     0.99994   0.25007   0.52043   0.00000  Uiso   1.00
C595   C     0.74970   0.00006   0.47927   0.00000  Uiso   1.00
C596   C     0.74972   0.00015   0.52035   0.00000  Uiso   1.00
C597   C     0.74995   0.49999   0.97950   0.00000  Uiso   1.00
C598   C     0.74997   0.49999   0.02050   0.00000  Uiso   1.00
C599   C     0.50002   0.24998   0.97950   0.00000  Uiso   1.00
C600   C     0.50002   0.24999   0.02050   0.00000  Uiso   1.00
N601   N     0.98521   0.14987   0.45986   0.00000  Uiso   1.00
O602   O     0.95464   0.14563   0.44117   0.00000  Uiso   1.00
O603   O     0.50698   0.12213   0.46427   0.00000  Uiso   1.00
N604   N     0.50865   0.35086   0.54013   0.00000  Uiso   1.00
O605   O     0.97999   0.36140   0.55944   0.00000  Uiso   1.00
O606   O     0.53578   0.37334   0.53540   0.00000  Uiso   1.00
N607   N     0.85018   0.48678   0.45961   0.00000  Uiso   1.00
O608   O     0.85465   0.45619   0.44107   0.00000  Uiso   1.00
O609   O     0.87778   0.00876   0.46383   0.00000  Uiso   1.00
N610   N     0.64864   0.00627   0.54021   0.00000  Uiso   1.00
O611   O     0.63913   0.47759   0.56000   0.00000  Uiso   1.00
O612   O     0.62530   0.03265   0.53541   0.00000  Uiso   1.00
N613   N     0.51478   0.35021   0.45975   0.00000  Uiso   1.00
O614   O     0.54535   0.35438   0.44102   0.00000  Uiso   1.00
O615   O     0.99305   0.37799   0.46414   0.00000  Uiso   1.00
N616   N     0.99118   0.14932   0.54026   0.00000  Uiso   1.00
O617   O     0.51966   0.13899   0.55996   0.00000  Uiso   1.00
O618   O     0.96415   0.12674   0.53545   0.00000  Uiso   1.00
N619   N     0.64908   0.01257   0.45982   0.00000  Uiso   1.00
O620   O     0.64406   0.04311   0.44134   0.00000  Uiso   1.00
O621   O     0.62187   0.49012   0.46412   0.00000  Uiso   1.00
N622   N     0.85089   0.49354   0.53977   0.00000  Uiso   1.00
O623   O     0.86185   0.02302   0.55724   0.00000  Uiso   1.00
O624   O     0.87334   0.46628   0.53582   0.00000  Uiso   1.00
N625   N     0.74939   0.39890   0.95962   0.00000  Uiso   1.00
O626   O     0.72090   0.39147   0.93851   0.00000  Uiso   1.00
O627   O     0.77394   0.37383   0.96540   0.00000  Uiso   1.00
N628   N     0.74735   0.10101   0.04047   0.00000  Uiso   1.00
O629   O     0.71888   0.10766   0.06194   0.00000  Uiso   1.00
O630   O     0.77120   0.12671   0.03450   0.00000  Uiso   1.00
N631   N     0.60123   0.25023   0.95959   0.00000  Uiso   1.00
O632   O     0.60900   0.22180   0.93855   0.00000  Uiso   1.00
O633   O     0.62608   0.27501   0.96535   0.00000  Uiso   1.00
N634   N     0.89890   0.24672   0.04055   0.00000  Uiso   1.00
O635   O     0.89247   0.21829   0.06209   0.00000  Uiso   1.00
O636   O     0.87299   0.27035   0.03458   0.00000  Uiso   1.00
N637   N     0.75035   0.10108   0.95960   0.00000  Uiso   1.00
O638   O     0.77884   0.10863   0.93851   0.00000  Uiso   1.00
O639   O     0.72571   0.12607   0.96540   0.00000  Uiso   1.00
N640   N     0.75256   0.39897   0.04048   0.00000  Uiso   1.00
O641   O     0.78105   0.39229   0.06188   0.00000  Uiso   1.00
O642   O     0.72867   0.37329   0.03460   0.00000  Uiso   1.00
N643   N     0.89880   0.24967   0.95968   0.00000  Uiso   1.00
O644   O     0.89103   0.27807   0.93860   0.00000  Uiso   1.00
O645   O     0.87397   0.22489   0.96549   0.00000  Uiso   1.00
N646   N     0.60113   0.25323   0.04045   0.00000  Uiso   1.00
O647   O     0.60757   0.28169   0.06195   0.00000  Uiso   1.00
O648   O     0.62702   0.22959   0.03448   0.00000  Uiso   1.00
N649   N     0.65868   0.39562   0.17909   0.00000  Uiso   1.00
O650   O     0.67986   0.37216   0.16192   0.00000  Uiso   1.00
O651   O     0.64898   0.42510   0.16079   0.00000  Uiso   1.00
N652   N     0.84412   0.10140   0.82185   0.00000  Uiso   1.00
O653   O     0.80891   0.10277   0.82656   0.00000  Uiso   1.00
O654   O     0.86468   0.09170   0.85087   0.00000  Uiso   1.00
N655   N     0.60459   0.15883   0.17915   0.00000  Uiso   1.00
O656   O     0.62815   0.18003   0.16215   0.00000  Uiso   1.00
O657   O     0.57513   0.14924   0.16073   0.00000  Uiso   1.00
N658   N     0.89707   0.34251   0.82189   0.00000  Uiso   1.00
O659   O     0.89631   0.30722   0.82566   0.00000  Uiso   1.00
O660   O     0.90602   0.36254   0.85158   0.00000  Uiso   1.00
N661   N     0.84139   0.10438   0.17909   0.00000  Uiso   1.00
O662   O     0.82022   0.12785   0.16193   0.00000  Uiso   1.00
O663   O     0.85109   0.07490   0.16079   0.00000  Uiso   1.00
N664   N     0.65598   0.39843   0.82176   0.00000  Uiso   1.00
O665   O     0.69120   0.39701   0.82635   0.00000  Uiso   1.00
O666   O     0.63548   0.40808   0.85087   0.00000  Uiso   1.00
N667   N     0.89546   0.34116   0.17916   0.00000  Uiso   1.00
O668   O     0.87190   0.31997   0.16217   0.00000  Uiso   1.00
O669   O     0.92493   0.35075   0.16072   0.00000  Uiso   1.00
N670   N     0.60191   0.15640   0.82167   0.00000  Uiso   1.00
O671   O     0.60333   0.19161   0.82601   0.00000  Uiso   1.00
O672   O     0.59239   0.13611   0.85097   0.00000  Uiso   1.00
N673   N     0.65616   0.10195   0.82135   0.00000  Uiso   1.00
O674   O     0.67742   0.12462   0.83955   0.00000  Uiso   1.00
O675   O     0.64509   0.07254   0.83888   0.00000  Uiso   1.00
N676   N     0.84024   0.39486   0.17911   0.00000  Uiso   1.00
O677   O     0.80481   0.39388   0.17683   0.00000  Uiso   1.00
O678   O     0.85919   0.40286   0.14830   0.00000  Uiso   1.00
N679   N     0.60167   0.34409   0.82140   0.00000  Uiso   1.00
O680   O     0.62431   0.32288   0.83974   0.00000  Uiso   1.00
O681   O     0.57222   0.35525   0.83884   0.00000  Uiso   1.00
N682   N     0.89496   0.15970   0.17908   0.00000  Uiso   1.00
O683   O     0.89386   0.19509   0.17673   0.00000  Uiso   1.00
O684   O     0.90314   0.14076   0.14834   0.00000  Uiso   1.00
N685   N     0.84315   0.39749   0.82157   0.00000  Uiso   1.00
O686   O     0.82226   0.37454   0.83988   0.00000  Uiso   1.00
O687   O     0.85365   0.42717   0.83896   0.00000  Uiso   1.00
N688   N     0.65984   0.10516   0.17911   0.00000  Uiso   1.00
O689   O     0.69527   0.10614   0.17684   0.00000  Uiso   1.00
O690   O     0.64092   0.09716   0.14830   0.00000  Uiso   1.00
N691   N     0.89843   0.15575   0.82150   0.00000  Uiso   1.00
O692   O     0.87583   0.17689   0.83999   0.00000  Uiso   1.00
O693   O     0.92793   0.14454   0.83880   0.00000  Uiso   1.00
N694   N     0.60510   0.34032   0.17908   0.00000  Uiso   1.00
O695   O     0.60619   0.30493   0.17673   0.00000  Uiso   1.00
O696   O     0.59695   0.35927   0.14834   0.00000  Uiso   1.00
N697   N     0.90500   0.14912   0.67866   0.00000  Uiso   1.00
O698   O     0.92574   0.12668   0.65945   0.00000  Uiso   1.00
O699   O     0.89322   0.17860   0.66181   0.00000  Uiso   1.00
N700   N     0.59032   0.35532   0.32084   0.00000  Uiso   1.00
O701   O     0.56959   0.37947   0.33757   0.00000  Uiso   1.00
O702   O     0.59885   0.32568   0.33950   0.00000  Uiso   1.00
N703   N     0.85341   0.40721   0.67908   0.00000  Uiso   1.00
O704   O     0.85696   0.44229   0.67519   0.00000  Uiso   1.00
O705   O     0.84385   0.38755   0.64933   0.00000  Uiso   1.00
N706   N     0.64447   0.09017   0.32081   0.00000  Uiso   1.00
O707   O     0.62025   0.06943   0.33741   0.00000  Uiso   1.00
O708   O     0.67411   0.09861   0.33955   0.00000  Uiso   1.00
N709   N     0.59478   0.35116   0.67863   0.00000  Uiso   1.00
O710   O     0.57389   0.37359   0.65961   0.00000  Uiso   1.00
O711   O     0.60650   0.32171   0.66168   0.00000  Uiso   1.00
N712   N     0.90959   0.14470   0.32086   0.00000  Uiso   1.00
O713   O     0.93029   0.12056   0.33760   0.00000  Uiso   1.00
O714   O     0.90102   0.17435   0.33949   0.00000  Uiso   1.00
N715   N     0.64833   0.09418   0.67867   0.00000  Uiso   1.00
O716   O     0.62567   0.07330   0.65996   0.00000  Uiso   1.00
O717   O     0.67783   0.10552   0.66145   0.00000  Uiso   1.00
N718   N     0.85546   0.40982   0.32081   0.00000  Uiso   1.00
O719   O     0.87963   0.43064   0.33735   0.00000  Uiso   1.00
O720   O     0.82583   0.40134   0.33957   0.00000  Uiso   1.00
N721   N     0.91026   0.35563   0.32084   0.00000  Uiso   1.00
O722   O     0.94573   0.35628   0.32266   0.00000  Uiso   1.00
O723   O     0.89154   0.34814   0.35196   0.00000  Uiso   1.00
N724   N     0.59371   0.14823   0.67835   0.00000  Uiso   1.00
O725   O     0.55845   0.14706   0.67394   0.00000  Uiso   1.00
O726   O     0.61412   0.15785   0.64917   0.00000  Uiso   1.00
N727   N     0.85550   0.08984   0.32083   0.00000  Uiso   1.00
O728   O     0.85638   0.05442   0.32275   0.00000  Uiso   1.00
O729   O     0.84778   0.10856   0.35186   0.00000  Uiso   1.00
N730   N     0.64857   0.40598   0.67836   0.00000  Uiso   1.00
O731   O     0.64709   0.44115   0.67369   0.00000  Uiso   1.00
O732   O     0.65858   0.38551   0.64939   0.00000  Uiso   1.00
N733   N     0.58968   0.14438   0.32084   0.00000  Uiso   1.00
O734   O     0.55421   0.14372   0.32267   0.00000  Uiso   1.00
O735   O     0.60837   0.15187   0.35195   0.00000  Uiso   1.00
N736   N     0.90671   0.35203   0.67912   0.00000  Uiso   1.00
O737   O     0.92993   0.37387   0.66250   0.00000  Uiso   1.00
O738   O     0.89534   0.32328   0.66060   0.00000  Uiso   1.00
N739   N     0.64442   0.41016   0.32082   0.00000  Uiso   1.00
O740   O     0.64353   0.44558   0.32271   0.00000  Uiso   1.00
O741   O     0.65209   0.39146   0.35186   0.00000  Uiso   1.00
N742   N     0.85127   0.09434   0.67846   0.00000  Uiso   1.00
O743   O     0.85340   0.05924   0.67357   0.00000  Uiso   1.00
O744   O     0.84091   0.11481   0.64964   0.00000  Uiso   1.00
N745   N     0.99005   0.31590   0.39666   0.00000  Uiso   1.00
O746   O     0.51094   0.32657   0.36828   0.00000  Uiso   1.00
O747   O     0.95971   0.33317   0.40353   0.00000  Uiso   1.00
N748   N     0.97312   0.18892   0.60275   0.00000  Uiso   1.00
O749   O     0.98971   0.17368   0.63196   0.00000  Uiso   1.00
O750   O     0.94003   0.17897   0.59408   0.00000  Uiso   1.00
N751   N     0.68399   0.48917   0.39653   0.00000  Uiso   1.00
O752   O     0.67298   0.01008   0.36834   0.00000  Uiso   1.00
O753   O     0.66724   0.45851   0.40309   0.00000  Uiso   1.00
N754   N     0.81235   0.47782   0.60306   0.00000  Uiso   1.00
O755   O     0.82779   0.49762   0.62973   0.00000  Uiso   1.00
O756   O     0.82334   0.44454   0.59730   0.00000  Uiso   1.00
N757   N     0.50990   0.18416   0.39671   0.00000  Uiso   1.00
O758   O     0.98900   0.17346   0.36838   0.00000  Uiso   1.00
O759   O     0.54025   0.16690   0.40354   0.00000  Uiso   1.00
N760   N     0.52592   0.31149   0.60293   0.00000  Uiso   1.00
O761   O     0.50868   0.32666   0.63178   0.00000  Uiso   1.00
O762   O     0.55906   0.32171   0.59481   0.00000  Uiso   1.00
N763   N     0.81552   0.01099   0.39657   0.00000  Uiso   1.00
O764   O     0.82665   0.49014   0.36838   0.00000  Uiso   1.00
O765   O     0.83234   0.04156   0.40338   0.00000  Uiso   1.00
N766   N     0.68779   0.02529   0.60275   0.00000  Uiso   1.00
O767   O     0.67322   0.00856   0.63225   0.00000  Uiso   1.00
O768   O     0.67696   0.05805   0.59395   0.00000  Uiso   1.00
N769   N     0.72700   0.06283   0.89761   0.00000  Uiso   1.00
O770   O     0.74343   0.07637   0.86738   0.00000  Uiso   1.00
O771   O     0.69516   0.07545   0.90762   0.00000  Uiso   1.00
N772   N     0.72783   0.43683   0.10231   0.00000  Uiso   1.00
O773   O     0.74408   0.42374   0.13287   0.00000  Uiso   1.00
O774   O     0.69649   0.42342   0.09178   0.00000  Uiso   1.00
N775   N     0.93727   0.22660   0.89767   0.00000  Uiso   1.00
O776   O     0.92358   0.24293   0.86746   0.00000  Uiso   1.00
O777   O     0.92489   0.19470   0.90766   0.00000  Uiso   1.00
N778   N     0.56336   0.22814   0.10225   0.00000  Uiso   1.00
O779   O     0.57634   0.24435   0.13287   0.00000  Uiso   1.00
O780   O     0.57699   0.19694   0.09161   0.00000  Uiso   1.00
N781   N     0.77290   0.43713   0.89763   0.00000  Uiso   1.00
O782   O     0.75652   0.42364   0.86735   0.00000  Uiso   1.00
O783   O     0.80465   0.42439   0.90774   0.00000  Uiso   1.00
N784   N     0.77220   0.06316   0.10225   0.00000  Uiso   1.00
O785   O     0.75598   0.07625   0.13283   0.00000  Uiso   1.00
O786   O     0.80353   0.07658   0.09164   0.00000  Uiso   1.00
N787   N     0.56280   0.27323   0.89757   0.00000  Uiso   1.00
O788   O     0.57647   0.25682   0.86739   0.00000  Uiso   1.00
O789   O     0.57524   0.30511   0.90749   0.00000  Uiso   1.00
N790   N     0.93666   0.27189   0.10228   0.00000  Uiso   1.00
O791   O     0.92368   0.25571   0.13294   0.00000  Uiso   1.00
O792   O     0.92302   0.30307   0.09160   0.00000  Uiso   1.00
Zn793  Zn    0.20659   0.50000   0.21735   0.00000  Uiso   1.00
Zn794  Zn    0.29340   0.50000   0.78265   0.00000  Uiso   1.00
Zn795  Zn   -0.00000   0.70660   0.21735   0.00000  Uiso   1.00
Zn796  Zn    0.00000   0.79340   0.78265   0.00000  Uiso   1.00
Zn797  Zn    0.29340   0.50000   0.21735   0.00000  Uiso   1.00
Zn798  Zn    0.20659   0.50000   0.78265   0.00000  Uiso   1.00
Zn799  Zn   -0.00000   0.79341   0.21735   0.00000  Uiso   1.00
Zn800  Zn    0.00000   0.70659   0.78265   0.00000  Uiso   1.00
Zn801  Zn    0.45659   0.75000   0.71735   0.00000  Uiso   1.00
Zn802  Zn    0.04340   0.75000   0.28265   0.00000  Uiso   1.00
Zn803  Zn    0.25000   0.95660   0.71735   0.00000  Uiso   1.00
Zn804  Zn    0.25000   0.54341   0.28265   0.00000  Uiso   1.00
Zn805  Zn    0.04340   0.75000   0.71735   0.00000  Uiso   1.00
Zn806  Zn    0.45659   0.75000   0.28265   0.00000  Uiso   1.00
Zn807  Zn    0.25000   0.54341   0.71735   0.00000  Uiso   1.00
Zn808  Zn    0.25000   0.95660   0.28265   0.00000  Uiso   1.00
C809   C     0.49832   0.78323   0.41791   0.00000  Uiso   1.00
C810   C     0.48984   0.71840   0.58183   0.00000  Uiso   1.00
C811   C     0.21654   0.99780   0.41784   0.00000  Uiso   1.00
C812   C     0.28176   0.99161   0.58174   0.00000  Uiso   1.00
C813   C     0.00163   0.71684   0.41794   0.00000  Uiso   1.00
C814   C     0.00984   0.78178   0.58185   0.00000  Uiso   1.00
C815   C     0.28293   0.50226   0.41784   0.00000  Uiso   1.00
C816   C     0.21770   0.50929   0.58181   0.00000  Uiso   1.00
C817   C     0.24220   0.53232   0.91823   0.00000  Uiso   1.00
C818   C     0.24273   0.96755   0.08177   0.00000  Uiso   1.00
C819   C     0.46770   0.74201   0.91825   0.00000  Uiso   1.00
C820   C     0.03253   0.74290   0.08175   0.00000  Uiso   1.00
C821   C     0.25769   0.96765   0.91823   0.00000  Uiso   1.00
C822   C     0.25728   0.53244   0.08174   0.00000  Uiso   1.00
C823   C     0.03234   0.75791   0.91821   0.00000  Uiso   1.00
C824   C     0.46749   0.75710   0.08177   0.00000  Uiso   1.00
C825   C     0.49998   0.75003   0.39797   0.00000  Uiso   1.00
C826   C     0.49995   0.75004   0.60190   0.00000  Uiso   1.00
C827   C     0.24977   0.50001   0.39791   0.00000  Uiso   1.00
C828   C     0.24968   0.50016   0.60184   0.00000  Uiso   1.00
C829   C     0.24997   0.99999   0.89810   0.00000  Uiso   1.00
C830   C     0.25002   0.99999   0.10190   0.00000  Uiso   1.00
C831   C     0.00001   0.74998   0.89810   0.00000  Uiso   1.00
C832   C     0.00001   0.75000   0.10191   0.00000  Uiso   1.00
O833   O     0.25000   0.50000   0.25000   0.00000  Uiso   1.00
O834   O     0.25000   0.50000   0.75000   0.00000  Uiso   1.00
O835   O     0.00000   0.75000   0.25000   0.00000  Uiso   1.00
O836   O     0.00000   0.75000   0.75000   0.00000  Uiso   1.00
O837   O     0.25000   0.96963   0.33755   0.00000  Uiso   1.00
O838   O     0.25000   0.53037   0.66245   0.00000  Uiso   1.00
O839   O     0.03036   0.75000   0.33755   0.00000  Uiso   1.00
O840   O     0.46963   0.75000   0.66245   0.00000  Uiso   1.00
O841   O     0.25000   0.53037   0.33755   0.00000  Uiso   1.00
O842   O     0.25000   0.96963   0.66245   0.00000  Uiso   1.00
O843   O     0.46963   0.75000   0.33755   0.00000  Uiso   1.00
O844   O     0.03036   0.75000   0.66245   0.00000  Uiso   1.00
O845   O    -0.00000   0.71964   0.83755   0.00000  Uiso   1.00
O846   O     0.00000   0.78036   0.16245   0.00000  Uiso   1.00
O847   O     0.28036   0.50000   0.83755   0.00000  Uiso   1.00
O848   O     0.21963   0.50000   0.16245   0.00000  Uiso   1.00
O849   O     0.00000   0.78036   0.83755   0.00000  Uiso   1.00
O850   O     0.00000   0.71963   0.16245   0.00000  Uiso   1.00
O851   O     0.21963   0.50000   0.83755   0.00000  Uiso   1.00
O852   O     0.28036   0.50000   0.16245   0.00000  Uiso   1.00
O853   O     0.20724   0.57308   0.27302   0.00000  Uiso   1.00
O854   O     0.29275   0.92693   0.72698   0.00000  Uiso   1.00
O855   O     0.42692   0.70725   0.27302   0.00000  Uiso   1.00
O856   O     0.07307   0.79275   0.72698   0.00000  Uiso   1.00
O857   O     0.29275   0.92693   0.27302   0.00000  Uiso   1.00
O858   O     0.20724   0.57308   0.72698   0.00000  Uiso   1.00
O859   O     0.07307   0.79275   0.27302   0.00000  Uiso   1.00
O860   O     0.42692   0.70725   0.72698   0.00000  Uiso   1.00
O861   O     0.20724   0.92692   0.72698   0.00000  Uiso   1.00
O862   O     0.29275   0.57308   0.27302   0.00000  Uiso   1.00
O863   O     0.42692   0.79276   0.72698   0.00000  Uiso   1.00
O864   O     0.07307   0.70724   0.27302   0.00000  Uiso   1.00
O865   O     0.29275   0.57308   0.72698   0.00000  Uiso   1.00
O866   O     0.20724   0.92692   0.27302   0.00000  Uiso   1.00
O867   O     0.07307   0.70724   0.72698   0.00000  Uiso   1.00
O868   O     0.42692   0.79276   0.27302   0.00000  Uiso   1.00
O869   O     0.45724   0.82308   0.77302   0.00000  Uiso   1.00
O870   O     0.04275   0.67692   0.22698   0.00000  Uiso   1.00
O871   O     0.17692   0.95724   0.77302   0.00000  Uiso   1.00
O872   O     0.32307   0.54276   0.22698   0.00000  Uiso   1.00
O873   O     0.04275   0.67692   0.77302   0.00000  Uiso   1.00
O874   O     0.45724   0.82308   0.22698   0.00000  Uiso   1.00
O875   O     0.32307   0.54276   0.77302   0.00000  Uiso   1.00
O876   O     0.17692   0.95724   0.22698   0.00000  Uiso   1.00
O877   O     0.45724   0.67693   0.22698   0.00000  Uiso   1.00
O878   O     0.04275   0.82307   0.77302   0.00000  Uiso   1.00
O879   O     0.17692   0.54276   0.22698   0.00000  Uiso   1.00
O880   O     0.32307   0.95725   0.77302   0.00000  Uiso   1.00
O881   O     0.04275   0.82307   0.22698   0.00000  Uiso   1.00
O882   O     0.45724   0.67693   0.77302   0.00000  Uiso   1.00
O883   O     0.32307   0.95725   0.22698   0.00000  Uiso   1.00
O884   O     0.17692   0.54276   0.77302   0.00000  Uiso   1.00
C885   C     0.49239   0.68356   0.47963   0.00000  Uiso   1.00
C886   C     0.00823   0.81644   0.52026   0.00000  Uiso   1.00
C887   C     0.31640   0.99379   0.47942   0.00000  Uiso   1.00
C888   C     0.18308   0.50680   0.52026   0.00000  Uiso   1.00
C889   C     0.00752   0.81654   0.47957   0.00000  Uiso   1.00
C890   C     0.49161   0.68371   0.52032   0.00000  Uiso   1.00
C891   C     0.18297   0.50614   0.47957   0.00000  Uiso   1.00
C892   C     0.31636   0.99337   0.52007   0.00000  Uiso   1.00
C893   C     0.25158   0.93316   0.97967   0.00000  Uiso   1.00
C894   C     0.25029   0.56683   0.02036   0.00000  Uiso   1.00
C895   C     0.06691   0.75209   0.97965   0.00000  Uiso   1.00
C896   C     0.43310   0.74988   0.02042   0.00000  Uiso   1.00
C897   C     0.24826   0.56682   0.97966   0.00000  Uiso   1.00
C898   C     0.24962   0.93315   0.02038   0.00000  Uiso   1.00
C899   C     0.43312   0.74784   0.97971   0.00000  Uiso   1.00
C900   C     0.06693   0.75008   0.02036   0.00000  Uiso   1.00
C901   C     0.24986   0.50000   0.35570   0.00000  Uiso   1.00
C902   C     0.24983   0.50003   0.64421   0.00000  Uiso   1.00
C903   C     0.49999   0.75001   0.35573   0.00000  Uiso   1.00
C904   C    -0.00000   0.75000   0.64422   0.00000  Uiso   1.00
C905   C     0.00000   0.75000   0.85578   0.00000  Uiso   1.00
C906   C     0.00000   0.75000   0.14423   0.00000  Uiso   1.00
C907   C     0.24999   0.50000   0.85579   0.00000  Uiso   1.00
C908   C     0.25001   0.50000   0.14421   0.00000  Uiso   1.00
C909   C     0.17994   0.56993   0.25023   0.00000  Uiso   1.00
C910   C     0.31998   0.92992   0.75023   0.00000  Uiso   1.00
C911   C     0.43005   0.67996   0.25023   0.00000  Uiso   1.00
C912   C     0.07005   0.82000   0.75001   0.00000  Uiso   1.00
C913   C     0.32007   0.93007   0.25022   0.00000  Uiso   1.00
C914   C     0.17997   0.57002   0.75001   0.00000  Uiso   1.00
C915   C     0.06995   0.82005   0.25023   0.00000  Uiso   1.00
C916   C     0.42994   0.68002   0.75004   0.00000  Uiso   1.00
C917   C     0.18002   0.93002   0.75004   0.00000  Uiso   1.00
C918   C     0.31999   0.57003   0.24979   0.00000  Uiso   1.00
C919   C     0.42992   0.81986   0.75004   0.00000  Uiso   1.00
C920   C     0.07004   0.68003   0.24981   0.00000  Uiso   1.00
C921   C     0.31995   0.57001   0.75006   0.00000  Uiso   1.00
C922   C     0.18002   0.92996   0.24979   0.00000  Uiso   1.00
C923   C     0.07000   0.68004   0.75002   0.00000  Uiso   1.00
C924   C     0.42995   0.81997   0.24981   0.00000  Uiso   1.00
C925   C     0.14089   0.88597   0.21469   0.00000  Uiso   1.00
C926   C     0.36020   0.61266   0.78570   0.00000  Uiso   1.00
C927   C     0.11412   0.64095   0.21473   0.00000  Uiso   1.00
C928   C     0.38637   0.85919   0.78585   0.00000  Uiso   1.00
C929   C     0.35916   0.61402   0.21469   0.00000  Uiso   1.00
C930   C     0.13981   0.88730   0.78561   0.00000  Uiso   1.00
C931   C     0.38590   0.85905   0.21473   0.00000  Uiso   1.00
C932   C     0.11288   0.64002   0.78556   0.00000  Uiso   1.00
C933   C     0.13955   0.61272   0.78549   0.00000  Uiso   1.00
C934   C     0.35823   0.88536   0.21480   0.00000  Uiso   1.00
C935   C     0.11257   0.86057   0.78553   0.00000  Uiso   1.00
C936   C     0.38541   0.64175   0.21479   0.00000  Uiso   1.00
C937   C     0.36004   0.88687   0.78579   0.00000  Uiso   1.00
C938   C     0.14181   0.61465   0.21481   0.00000  Uiso   1.00
C939   C     0.38746   0.63938   0.78561   0.00000  Uiso   1.00
C940   C     0.11462   0.85826   0.21478   0.00000  Uiso   1.00
C941   C     0.38908   0.63774   0.71464   0.00000  Uiso   1.00
C942   C     0.10878   0.86428   0.28537   0.00000  Uiso   1.00
C943   C     0.36344   0.89013   0.71494   0.00000  Uiso   1.00
C944   C     0.13560   0.60870   0.28537   0.00000  Uiso   1.00
C945   C     0.11078   0.86247   0.71458   0.00000  Uiso   1.00
C946   C     0.39118   0.63572   0.28538   0.00000  Uiso   1.00
C947   C     0.13729   0.61049   0.71456   0.00000  Uiso   1.00
C948   C     0.36437   0.89130   0.28537   0.00000  Uiso   1.00
C949   C     0.39199   0.86490   0.28526   0.00000  Uiso   1.00
C950   C     0.11000   0.63716   0.71448   0.00000  Uiso   1.00
C951   C     0.36484   0.60806   0.28524   0.00000  Uiso   1.00
C952   C     0.13736   0.88982   0.71451   0.00000  Uiso   1.00
C953   C     0.10797   0.63509   0.28526   0.00000  Uiso   1.00
C954   C     0.38969   0.86249   0.71492   0.00000  Uiso   1.00
C955   C     0.13513   0.89193   0.28524   0.00000  Uiso   1.00
C956   C     0.36247   0.61043   0.71459   0.00000  Uiso   1.00
C957   C     0.49776   0.71648   0.45881   0.00000  Uiso   1.00
C958   C     0.00586   0.78315   0.54101   0.00000  Uiso   1.00
C959   C     0.28334   0.99848   0.45869   0.00000  Uiso   1.00
C960   C     0.21647   0.50527   0.54096   0.00000  Uiso   1.00
C961   C     0.00219   0.78361   0.45878   0.00000  Uiso   1.00
C962   C     0.49394   0.71702   0.54101   0.00000  Uiso   1.00
C963   C     0.21606   0.50158   0.45873   0.00000  Uiso   1.00
C964   C     0.28300   0.99523   0.54089   0.00000  Uiso   1.00
C965   C     0.25289   0.96655   0.95897   0.00000  Uiso   1.00
C966   C     0.25233   0.53347   0.04103   0.00000  Uiso   1.00
C967   C     0.03348   0.75314   0.95896   0.00000  Uiso   1.00
C968   C     0.46649   0.75213   0.04106   0.00000  Uiso   1.00
C969   C     0.24699   0.53343   0.95896   0.00000  Uiso   1.00
C970   C     0.24764   0.96652   0.04104   0.00000  Uiso   1.00
C971   C     0.46656   0.74679   0.95899   0.00000  Uiso   1.00
C972   C     0.03354   0.74785   0.04103   0.00000  Uiso   1.00
C973   C     0.09853   0.84761   0.25016   0.00000  Uiso   1.00
C974   C     0.40176   0.65198   0.75010   0.00000  Uiso   1.00
C975   C     0.15235   0.59849   0.25017   0.00000  Uiso   1.00
C976   C     0.34849   0.90217   0.75034   0.00000  Uiso   1.00
C977   C     0.40146   0.65240   0.25017   0.00000  Uiso   1.00
C978   C     0.09821   0.84807   0.75004   0.00000  Uiso   1.00
C979   C     0.34766   0.90152   0.25016   0.00000  Uiso   1.00
C980   C     0.15185   0.59813   0.75003   0.00000  Uiso   1.00
C981   C     0.09803   0.65200   0.75002   0.00000  Uiso   1.00
C982   C     0.40243   0.84862   0.24993   0.00000  Uiso   1.00
C983   C     0.15196   0.90200   0.75006   0.00000  Uiso   1.00
C984   C     0.34867   0.59753   0.24990   0.00000  Uiso   1.00
C985   C     0.40128   0.84729   0.75032   0.00000  Uiso   1.00
C986   C     0.09756   0.65137   0.24993   0.00000  Uiso   1.00
C987   C     0.34797   0.59809   0.75014   0.00000  Uiso   1.00
C988   C     0.15135   0.90246   0.24990   0.00000  Uiso   1.00
C989   C     0.49997   0.75006   0.47936   0.00000  Uiso   1.00
C990   C     0.49994   0.75007   0.52043   0.00000  Uiso   1.00
C991   C     0.24970   0.50006   0.47927   0.00000  Uiso   1.00
C992   C     0.24972   0.50015   0.52035   0.00000  Uiso   1.00
C993   C     0.24995   0.99999   0.97950   0.00000  Uiso   1.00
C994   C     0.24997   0.99999   0.02050   0.00000  Uiso   1.00
C995   C     0.00002   0.74998   0.97950   0.00000  Uiso   1.00
C996   C     0.00002   0.74999   0.02050   0.00000  Uiso   1.00
N997   N     0.48521   0.64987   0.45986   0.00000  Uiso   1.00
O998   O     0.45464   0.64563   0.44117   0.00000  Uiso   1.00
O999   O     0.00698   0.62213   0.46427   0.00000  Uiso   1.00
N1000  N     0.00865   0.85086   0.54013   0.00000  Uiso   1.00
O1001  O     0.47999   0.86140   0.55944   0.00000  Uiso   1.00
O1002  O     0.03578   0.87334   0.53540   0.00000  Uiso   1.00
N1003  N     0.35018   0.98678   0.45961   0.00000  Uiso   1.00
O1004  O     0.35465   0.95619   0.44107   0.00000  Uiso   1.00
O1005  O     0.37778   0.50876   0.46383   0.00000  Uiso   1.00
N1006  N     0.14864   0.50627   0.54021   0.00000  Uiso   1.00
O1007  O     0.13913   0.97759   0.56000   0.00000  Uiso   1.00
O1008  O     0.12530   0.53265   0.53541   0.00000  Uiso   1.00
N1009  N     0.01478   0.85021   0.45975   0.00000  Uiso   1.00
O1010  O     0.04535   0.85438   0.44102   0.00000  Uiso   1.00
O1011  O     0.49305   0.87799   0.46414   0.00000  Uiso   1.00
N1012  N     0.49118   0.64932   0.54026   0.00000  Uiso   1.00
O1013  O     0.01966   0.63899   0.55996   0.00000  Uiso   1.00
O1014  O     0.46415   0.62674   0.53545   0.00000  Uiso   1.00
N1015  N     0.14908   0.51257   0.45982   0.00000  Uiso   1.00
O1016  O     0.14406   0.54311   0.44134   0.00000  Uiso   1.00
O1017  O     0.12187   0.99012   0.46412   0.00000  Uiso   1.00
N1018  N     0.35089   0.99354   0.53977   0.00000  Uiso   1.00
O1019  O     0.36185   0.52302   0.55724   0.00000  Uiso   1.00
O1020  O     0.37334   0.96628   0.53582   0.00000  Uiso   1.00
N1021  N     0.24939   0.89890   0.95962   0.00000  Uiso   1.00
O1022  O     0.22090   0.89147   0.93851   0.00000  Uiso   1.00
O1023  O     0.27394   0.87383   0.96540   0.00000  Uiso   1.00
N1024  N     0.24735   0.60101   0.04047   0.00000  Uiso   1.00
O1025  O     0.21888   0.60766   0.06194   0.00000  Uiso   1.00
O1026  O     0.27120   0.62671   0.03450   0.00000  Uiso   1.00
N1027  N     0.10123   0.75023   0.95959   0.00000  Uiso   1.00
O1028  O     0.10900   0.72180   0.93855   0.00000  Uiso   1.00
O1029  O     0.12608   0.77501   0.96535   0.00000  Uiso   1.00
N1030  N     0.39890   0.74672   0.04055   0.00000  Uiso   1.00
O1031  O     0.39247   0.71829   0.06209   0.00000  Uiso   1.00
O1032  O     0.37299   0.77035   0.03458   0.00000  Uiso   1.00
N1033  N     0.25035   0.60108   0.95960   0.00000  Uiso   1.00
O1034  O     0.27884   0.60863   0.93851   0.00000  Uiso   1.00
O1035  O     0.22571   0.62607   0.96540   0.00000  Uiso   1.00
N1036  N     0.25256   0.89897   0.04048   0.00000  Uiso   1.00
O1037  O     0.28105   0.89229   0.06188   0.00000  Uiso   1.00
O1038  O     0.22867   0.87329   0.03460   0.00000  Uiso   1.00
N1039  N     0.39880   0.74967   0.95968   0.00000  Uiso   1.00
O1040  O     0.39103   0.77807   0.93860   0.00000  Uiso   1.00
O1041  O     0.37397   0.72489   0.96549   0.00000  Uiso   1.00
N1042  N     0.10113   0.75323   0.04045   0.00000  Uiso   1.00
O1043  O     0.10757   0.78169   0.06195   0.00000  Uiso   1.00
O1044  O     0.12702   0.72959   0.03448   0.00000  Uiso   1.00
N1045  N     0.15868   0.89562   0.17909   0.00000  Uiso   1.00
O1046  O     0.17986   0.87216   0.16192   0.00000  Uiso   1.00
O1047  O     0.14898   0.92510   0.16079   0.00000  Uiso   1.00
N1048  N     0.34412   0.60140   0.82185   0.00000  Uiso   1.00
O1049  O     0.30891   0.60277   0.82656   0.00000  Uiso   1.00
O1050  O     0.36468   0.59170   0.85087   0.00000  Uiso   1.00
N1051  N     0.10459   0.65883   0.17915   0.00000  Uiso   1.00
O1052  O     0.12815   0.68003   0.16215   0.00000  Uiso   1.00
O1053  O     0.07513   0.64924   0.16073   0.00000  Uiso   1.00
N1054  N     0.39707   0.84251   0.82189   0.00000  Uiso   1.00
O1055  O     0.39631   0.80722   0.82566   0.00000  Uiso   1.00
O1056  O     0.40602   0.86254   0.85158   0.00000  Uiso   1.00
N1057  N     0.34139   0.60438   0.17909   0.00000  Uiso   1.00
O1058  O     0.32022   0.62785   0.16193   0.00000  Uiso   1.00
O1059  O     0.35109   0.57490   0.16079   0.00000  Uiso   1.00
N1060  N     0.15598   0.89843   0.82176   0.00000  Uiso   1.00
O1061  O     0.19120   0.89701   0.82635   0.00000  Uiso   1.00
O1062  O     0.13548   0.90808   0.85087   0.00000  Uiso   1.00
N1063  N     0.39546   0.84116   0.17916   0.00000  Uiso   1.00
O1064  O     0.37190   0.81997   0.16217   0.00000  Uiso   1.00
O1065  O     0.42493   0.85075   0.16072   0.00000  Uiso   1.00
N1066  N     0.10191   0.65640   0.82167   0.00000  Uiso   1.00
O1067  O     0.10333   0.69161   0.82601   0.00000  Uiso   1.00
O1068  O     0.09239   0.63611   0.85097   0.00000  Uiso   1.00
N1069  N     0.15616   0.60195   0.82135   0.00000  Uiso   1.00
O1070  O     0.17742   0.62462   0.83955   0.00000  Uiso   1.00
O1071  O     0.14509   0.57254   0.83888   0.00000  Uiso   1.00
N1072  N     0.34024   0.89486   0.17911   0.00000  Uiso   1.00
O1073  O     0.30481   0.89388   0.17683   0.00000  Uiso   1.00
O1074  O     0.35919   0.90286   0.14830   0.00000  Uiso   1.00
N1075  N     0.10167   0.84409   0.82140   0.00000  Uiso   1.00
O1076  O     0.12431   0.82288   0.83974   0.00000  Uiso   1.00
O1077  O     0.07222   0.85525   0.83884   0.00000  Uiso   1.00
N1078  N     0.39496   0.65970   0.17908   0.00000  Uiso   1.00
O1079  O     0.39386   0.69509   0.17673   0.00000  Uiso   1.00
O1080  O     0.40314   0.64076   0.14834   0.00000  Uiso   1.00
N1081  N     0.34315   0.89749   0.82157   0.00000  Uiso   1.00
O1082  O     0.32226   0.87454   0.83988   0.00000  Uiso   1.00
O1083  O     0.35365   0.92717   0.83896   0.00000  Uiso   1.00
N1084  N     0.15984   0.60516   0.17911   0.00000  Uiso   1.00
O1085  O     0.19527   0.60614   0.17684   0.00000  Uiso   1.00
O1086  O     0.14092   0.59716   0.14830   0.00000  Uiso   1.00
N1087  N     0.39843   0.65575   0.82150   0.00000  Uiso   1.00
O1088  O     0.37583   0.67689   0.83999   0.00000  Uiso   1.00
O1089  O     0.42793   0.64454   0.83880   0.00000  Uiso   1.00
N1090  N     0.10510   0.84032   0.17908   0.00000  Uiso   1.00
O1091  O     0.10619   0.80493   0.17673   0.00000  Uiso   1.00
O1092  O     0.09695   0.85927   0.14834   0.00000  Uiso   1.00
N1093  N     0.40500   0.64912   0.67866   0.00000  Uiso   1.00
O1094  O     0.42574   0.62668   0.65945   0.00000  Uiso   1.00
O1095  O     0.39322   0.67860   0.66181   0.00000  Uiso   1.00
N1096  N     0.09032   0.85532   0.32084   0.00000  Uiso   1.00
O1097  O     0.06959   0.87947   0.33757   0.00000  Uiso   1.00
O1098  O     0.09885   0.82568   0.33950   0.00000  Uiso   1.00
N1099  N     0.35341   0.90721   0.67908   0.00000  Uiso   1.00
O1100  O     0.35696   0.94229   0.67519   0.00000  Uiso   1.00
O1101  O     0.34385   0.88755   0.64933   0.00000  Uiso   1.00
N1102  N     0.14447   0.59017   0.32081   0.00000  Uiso   1.00
O1103  O     0.12025   0.56943   0.33741   0.00000  Uiso   1.00
O1104  O     0.17411   0.59861   0.33955   0.00000  Uiso   1.00
N1105  N     0.09478   0.85116   0.67863   0.00000  Uiso   1.00
O1106  O     0.07389   0.87359   0.65961   0.00000  Uiso   1.00
O1107  O     0.10650   0.82171   0.66168   0.00000  Uiso   1.00
N1108  N     0.40959   0.64470   0.32086   0.00000  Uiso   1.00
O1109  O     0.43029   0.62056   0.33760   0.00000  Uiso   1.00
O1110  O     0.40102   0.67435   0.33949   0.00000  Uiso   1.00
N1111  N     0.14833   0.59418   0.67867   0.00000  Uiso   1.00
O1112  O     0.12567   0.57330   0.65996   0.00000  Uiso   1.00
O1113  O     0.17783   0.60552   0.66145   0.00000  Uiso   1.00
N1114  N     0.35546   0.90982   0.32081   0.00000  Uiso   1.00
O1115  O     0.37963   0.93064   0.33735   0.00000  Uiso   1.00
O1116  O     0.32583   0.90134   0.33957   0.00000  Uiso   1.00
N1117  N     0.41026   0.85563   0.32084   0.00000  Uiso   1.00
O1118  O     0.44573   0.85628   0.32266   0.00000  Uiso   1.00
O1119  O     0.39154   0.84814   0.35196   0.00000  Uiso   1.00
N1120  N     0.09371   0.64823   0.67835   0.00000  Uiso   1.00
O1121  O     0.05845   0.64706   0.67394   0.00000  Uiso   1.00
O1122  O     0.11412   0.65785   0.64917   0.00000  Uiso   1.00
N1123  N     0.35550   0.58984   0.32083   0.00000  Uiso   1.00
O1124  O     0.35638   0.55442   0.32275   0.00000  Uiso   1.00
O1125  O     0.34778   0.60856   0.35186   0.00000  Uiso   1.00
N1126  N     0.14857   0.90598   0.67836   0.00000  Uiso   1.00
O1127  O     0.14709   0.94115   0.67369   0.00000  Uiso   1.00
O1128  O     0.15858   0.88551   0.64939   0.00000  Uiso   1.00
N1129  N     0.08968   0.64438   0.32084   0.00000  Uiso   1.00
O1130  O     0.05421   0.64372   0.32267   0.00000  Uiso   1.00
O1131  O     0.10837   0.65187   0.35195   0.00000  Uiso   1.00
N1132  N     0.40671   0.85203   0.67912   0.00000  Uiso   1.00
O1133  O     0.42993   0.87387   0.66250   0.00000  Uiso   1.00
O1134  O     0.39534   0.82328   0.66060   0.00000  Uiso   1.00
N1135  N     0.14442   0.91016   0.32082   0.00000  Uiso   1.00
O1136  O     0.14353   0.94558   0.32271   0.00000  Uiso   1.00
O1137  O     0.15209   0.89146   0.35186   0.00000  Uiso   1.00
N1138  N     0.35127   0.59434   0.67846   0.00000  Uiso   1.00
O1139  O     0.35340   0.55924   0.67357   0.00000  Uiso   1.00
O1140  O     0.34091   0.61481   0.64964   0.00000  Uiso   1.00
N1141  N     0.49005   0.81590   0.39666   0.00000  Uiso   1.00
O1142  O     0.01094   0.82657   0.36828   0.00000  Uiso   1.00
O1143  O     0.45971   0.83317   0.40353   0.00000  Uiso   1.00
N1144  N     0.47312   0.68892   0.60275   0.00000  Uiso   1.00
O1145  O     0.48971   0.67368   0.63196   0.00000  Uiso   1.00
O1146  O     0.44003   0.67897   0.59408   0.00000  Uiso   1.00
N1147  N     0.18399   0.98917   0.39653   0.00000  Uiso   1.00
O1148  O     0.17298   0.51008   0.36834   0.00000  Uiso   1.00
O1149  O     0.16724   0.95851   0.40309   0.00000  Uiso   1.00
N1150  N     0.31235   0.97782   0.60306   0.00000  Uiso   1.00
O1151  O     0.32779   0.99762   0.62973   0.00000  Uiso   1.00
O1152  O     0.32334   0.94454   0.59730   0.00000  Uiso   1.00
N1153  N     0.00990   0.68416   0.39671   0.00000  Uiso   1.00
O1154  O     0.48900   0.67346   0.36838   0.00000  Uiso   1.00
O1155  O     0.04025   0.66690   0.40354   0.00000  Uiso   1.00
N1156  N     0.02592   0.81149   0.60293   0.00000  Uiso   1.00
O1157  O     0.00868   0.82666   0.63178   0.00000  Uiso   1.00
O1158  O     0.05906   0.82171   0.59481   0.00000  Uiso   1.00
N1159  N     0.31552   0.51099   0.39657   0.00000  Uiso   1.00
O1160  O     0.32665   0.99014   0.36838   0.00000  Uiso   1.00
O1161  O     0.33234   0.54156   0.40338   0.00000  Uiso   1.00
N1162  N     0.18779   0.52529   0.60275   0.00000  Uiso   1.00
O1163  O     0.17322   0.50856   0.63225   0.00000  Uiso   1.00
O1164  O     0.17696   0.55805   0.59395   0.00000  Uiso   1.00
N1165  N     0.22700   0.56283   0.89761   0.00000  Uiso   1.00
O1166  O     0.24343   0.57637   0.86738   0.00000  Uiso   1.00
O1167  O     0.19516   0.57545   0.90762   0.00000  Uiso   1.00
N1168  N     0.22783   0.93683   0.10231   0.00000  Uiso   1.00
O1169  O     0.24408   0.92374   0.13287   0.00000  Uiso   1.00
O1170  O     0.19649   0.92342   0.09178   0.00000  Uiso   1.00
N1171  N     0.43727   0.72660   0.89767   0.00000  Uiso   1.00
O1172  O     0.42358   0.74293   0.86746   0.00000  Uiso   1.00
O1173  O     0.42489   0.69470   0.90766   0.00000  Uiso   1.00
N1174  N     0.06336   0.72814   0.10225   0.00000  Uiso   1.00
O1175  O     0.07634   0.74435   0.13287   0.00000  Uiso   1.00
O1176  O     0.07699   0.69694   0.09161   0.00000  Uiso   1.00
N1177  N     0.27290   0.93713   0.89763   0.00000  Uiso   1.00
O1178  O     0.25652   0.92364   0.86735   0.00000  Uiso   1.00
O1179  O     0.30465   0.92439   0.90774   0.00000  Uiso   1.00
N1180  N     0.27220   0.56316   0.10225   0.00000  Uiso   1.00
O1181  O     0.25598   0.57625   0.13283   0.00000  Uiso   1.00
O1182  O     0.30353   0.57658   0.09164   0.00000  Uiso   1.00
N1183  N     0.06280   0.77323   0.89757   0.00000  Uiso   1.00
O1184  O     0.07647   0.75682   0.86739   0.00000  Uiso   1.00
O1185  O     0.07524   0.80511   0.90749   0.00000  Uiso   1.00
N1186  N     0.43666   0.77189   0.10228   0.00000  Uiso   1.00
O1187  O     0.42368   0.75571   0.13294   0.00000  Uiso   1.00
O1188  O     0.42302   0.80307   0.09160   0.00000  Uiso   1.00
Zn1189 Zn    0.70659   0.50000   0.21735   0.00000  Uiso   1.00
Zn1190 Zn    0.79340   0.50000   0.78265   0.00000  Uiso   1.00
Zn1191 Zn    0.50000   0.70660   0.21735   0.00000  Uiso   1.00
Zn1192 Zn    0.50000   0.79340   0.78265   0.00000  Uiso   1.00
Zn1193 Zn    0.79340   0.50000   0.21735   0.00000  Uiso   1.00
Zn1194 Zn    0.70659   0.50000   0.78265   0.00000  Uiso   1.00
Zn1195 Zn    0.50000   0.79341   0.21735   0.00000  Uiso   1.00
Zn1196 Zn    0.50000   0.70659   0.78265   0.00000  Uiso   1.00
Zn1197 Zn    0.95659   0.75000   0.71735   0.00000  Uiso   1.00
Zn1198 Zn    0.54340   0.75000   0.28265   0.00000  Uiso   1.00
Zn1199 Zn    0.75000   0.95660   0.71735   0.00000  Uiso   1.00
Zn1200 Zn    0.75000   0.54341   0.28265   0.00000  Uiso   1.00
Zn1201 Zn    0.54340   0.75000   0.71735   0.00000  Uiso   1.00
Zn1202 Zn    0.95659   0.75000   0.28265   0.00000  Uiso   1.00
Zn1203 Zn    0.75000   0.54341   0.71735   0.00000  Uiso   1.00
Zn1204 Zn    0.75000   0.95660   0.28265   0.00000  Uiso   1.00
C1205  C     0.99832   0.78323   0.41791   0.00000  Uiso   1.00
C1206  C     0.98984   0.71840   0.58183   0.00000  Uiso   1.00
C1207  C     0.71654   0.99780   0.41784   0.00000  Uiso   1.00
C1208  C     0.78176   0.99161   0.58174   0.00000  Uiso   1.00
C1209  C     0.50163   0.71684   0.41794   0.00000  Uiso   1.00
C1210  C     0.50984   0.78178   0.58185   0.00000  Uiso   1.00
C1211  C     0.78293   0.50226   0.41784   0.00000  Uiso   1.00
C1212  C     0.71770   0.50929   0.58181   0.00000  Uiso   1.00
C1213  C     0.74220   0.53232   0.91823   0.00000  Uiso   1.00
C1214  C     0.74273   0.96755   0.08177   0.00000  Uiso   1.00
C1215  C     0.96770   0.74201   0.91825   0.00000  Uiso   1.00
C1216  C     0.53253   0.74290   0.08175   0.00000  Uiso   1.00
C1217  C     0.75769   0.96765   0.91823   0.00000  Uiso   1.00
C1218  C     0.75728   0.53244   0.08174   0.00000  Uiso   1.00
C1219  C     0.53234   0.75791   0.91821   0.00000  Uiso   1.00
C1220  C     0.96749   0.75710   0.08177   0.00000  Uiso   1.00
C1221  C     0.99998   0.75003   0.39797   0.00000  Uiso   1.00
C1222  C     0.99995   0.75004   0.60190   0.00000  Uiso   1.00
C1223  C     0.74977   0.50001   0.39791   0.00000  Uiso   1.00
C1224  C     0.74968   0.50016   0.60184   0.00000  Uiso   1.00
C1225  C     0.74997   0.99999   0.89810   0.00000  Uiso   1.00
C1226  C     0.75002   0.99999   0.10190   0.00000  Uiso   1.00
C1227  C     0.50001   0.74998   0.89810   0.00000  Uiso   1.00
C1228  C     0.50001   0.75000   0.10191   0.00000  Uiso   1.00
O1229  O     0.75000   0.50000   0.25000   0.00000  Uiso   1.00
O1230  O     0.75000   0.50000   0.75000   0.00000  Uiso   1.00
O1231  O     0.50000   0.75000   0.25000   0.00000  Uiso   1.00
O1232  O     0.50000   0.75000   0.75000   0.00000  Uiso   1.00
O1233  O     0.75000   0.96963   0.33755   0.00000  Uiso   1.00
O1234  O     0.75000   0.53037   0.66245   0.00000  Uiso   1.00
O1235  O     0.53036   0.75000   0.33755   0.00000  Uiso   1.00
O1236  O     0.96963   0.75000   0.66245   0.00000  Uiso   1.00
O1237  O     0.75000   0.53037   0.33755   0.00000  Uiso   1.00
O1238  O     0.75000   0.96963   0.66245   0.00000  Uiso   1.00
O1239  O     0.96963   0.75000   0.33755   0.00000  Uiso   1.00
O1240  O     0.53036   0.75000   0.66245   0.00000  Uiso   1.00
O1241  O     0.50000   0.71964   0.83755   0.00000  Uiso   1.00
O1242  O     0.50000   0.78036   0.16245   0.00000  Uiso   1.00
O1243  O     0.78036   0.50000   0.83755   0.00000  Uiso   1.00
O1244  O     0.71963   0.50000   0.16245   0.00000  Uiso   1.00
O1245  O     0.50000   0.78036   0.83755   0.00000  Uiso   1.00
O1246  O     0.50000   0.71963   0.16245   0.00000  Uiso   1.00
O1247  O     0.71963   0.50000   0.83755   0.00000  Uiso   1.00
O1248  O     0.78036   0.50000   0.16245   0.00000  Uiso   1.00
O1249  O     0.70724   0.57308   0.27302   0.00000  Uiso   1.00
O1250  O     0.79275   0.92693   0.72698   0.00000  Uiso   1.00
O1251  O     0.92692   0.70725   0.27302   0.00000  Uiso   1.00
O1252  O     0.57307   0.79275   0.72698   0.00000  Uiso   1.00
O1253  O     0.79275   0.92693   0.27302   0.00000  Uiso   1.00
O1254  O     0.70724   0.57308   0.72698   0.00000  Uiso   1.00
O1255  O     0.57307   0.79275   0.27302   0.00000  Uiso   1.00
O1256  O     0.92692   0.70725   0.72698   0.00000  Uiso   1.00
O1257  O     0.70724   0.92692   0.72698   0.00000  Uiso   1.00
O1258  O     0.79275   0.57308   0.27302   0.00000  Uiso   1.00
O1259  O     0.92692   0.79276   0.72698   0.00000  Uiso   1.00
O1260  O     0.57307   0.70724   0.27302   0.00000  Uiso   1.00
O1261  O     0.79275   0.57308   0.72698   0.00000  Uiso   1.00
O1262  O     0.70724   0.92692   0.27302   0.00000  Uiso   1.00
O1263  O     0.57307   0.70724   0.72698   0.00000  Uiso   1.00
O1264  O     0.92692   0.79276   0.27302   0.00000  Uiso   1.00
O1265  O     0.95724   0.82308   0.77302   0.00000  Uiso   1.00
O1266  O     0.54275   0.67692   0.22698   0.00000  Uiso   1.00
O1267  O     0.67692   0.95724   0.77302   0.00000  Uiso   1.00
O1268  O     0.82307   0.54276   0.22698   0.00000  Uiso   1.00
O1269  O     0.54275   0.67692   0.77302   0.00000  Uiso   1.00
O1270  O     0.95724   0.82308   0.22698   0.00000  Uiso   1.00
O1271  O     0.82307   0.54276   0.77302   0.00000  Uiso   1.00
O1272  O     0.67692   0.95724   0.22698   0.00000  Uiso   1.00
O1273  O     0.95724   0.67693   0.22698   0.00000  Uiso   1.00
O1274  O     0.54275   0.82307   0.77302   0.00000  Uiso   1.00
O1275  O     0.67692   0.54276   0.22698   0.00000  Uiso   1.00
O1276  O     0.82307   0.95725   0.77302   0.00000  Uiso   1.00
O1277  O     0.54275   0.82307   0.22698   0.00000  Uiso   1.00
O1278  O     0.95724   0.67693   0.77302   0.00000  Uiso   1.00
O1279  O     0.82307   0.95725   0.22698   0.00000  Uiso   1.00
O1280  O     0.67692   0.54276   0.77302   0.00000  Uiso   1.00
C1281  C     0.99239   0.68356   0.47963   0.00000  Uiso   1.00
C1282  C     0.50823   0.81644   0.52026   0.00000  Uiso   1.00
C1283  C     0.81640   0.99379   0.47942   0.00000  Uiso   1.00
C1284  C     0.68308   0.50680   0.52026   0.00000  Uiso   1.00
C1285  C     0.50752   0.81654   0.47957   0.00000  Uiso   1.00
C1286  C     0.99161   0.68371   0.52032   0.00000  Uiso   1.00
C1287  C     0.68297   0.50614   0.47957   0.00000  Uiso   1.00
C1288  C     0.81636   0.99337   0.52007   0.00000  Uiso   1.00
C1289  C     0.75158   0.93316   0.97967   0.00000  Uiso   1.00
C1290  C     0.75029   0.56683   0.02036   0.00000  Uiso   1.00
C1291  C     0.56691   0.75209   0.97965   0.00000  Uiso   1.00
C1292  C     0.93310   0.74988   0.02042   0.00000  Uiso   1.00
C1293  C     0.74826   0.56682   0.97966   0.00000  Uiso   1.00
C1294  C     0.74962   0.93315   0.02038   0.00000  Uiso   1.00
C1295  C     0.93312   0.74784   0.97971   0.00000  Uiso   1.00
C1296  C     0.56693   0.75008   0.02036   0.00000  Uiso   1.00
C1297  C     0.74986   0.50000   0.35570   0.00000  Uiso   1.00
C1298  C     0.74983   0.50003   0.64421   0.00000  Uiso   1.00
C1299  C     0.99999   0.75001   0.35573   0.00000  Uiso   1.00
C1300  C     0.50000   0.75000   0.64422   0.00000  Uiso   1.00
C1301  C     0.50000   0.75000   0.85578   0.00000  Uiso   1.00
C1302  C     0.50000   0.75000   0.14423   0.00000  Uiso   1.00
C1303  C     0.74999   0.50000   0.85579   0.00000  Uiso   1.00
C1304  C     0.75001   0.50000   0.14421   0.00000  Uiso   1.00
C1305  C     0.67994   0.56993   0.25023   0.00000  Uiso   1.00
C1306  C     0.81998   0.92992   0.75023   0.00000  Uiso   1.00
C1307  C     0.93005   0.67996   0.25023   0.00000  Uiso   1.00
C1308  C     0.57005   0.82000   0.75001   0.00000  Uiso   1.00
C1309  C     0.82007   0.93007   0.25022   0.00000  Uiso   1.00
C1310  C     0.67997   0.57002   0.75001   0.00000  Uiso   1.00
C1311  C     0.56995   0.82005   0.25023   0.00000  Uiso   1.00
C1312  C     0.92994   0.68002   0.75004   0.00000  Uiso   1.00
C1313  C     0.68002   0.93002   0.75004   0.00000  Uiso   1.00
C1314  C     0.81999   0.57003   0.24979   0.00000  Uiso   1.00
C1315  C     0.92992   0.81986   0.75004   0.00000  Uiso   1.00
C1316  C     0.57004   0.68003   0.24981   0.00000  Uiso   1.00
C1317  C     0.81995   0.57001   0.75006   0.00000  Uiso   1.00
C1318  C     0.68002   0.92996   0.24979   0.00000  Uiso   1.00
C1319  C     0.57000   0.68004   0.75002   0.00000  Uiso   1.00
C1320  C     0.92995   0.81997   0.24981   0.00000  Uiso   1.00
C1321  C     0.64089   0.88597   0.21469   0.00000  Uiso   1.00
C1322  C     0.86020   0.61266   0.78570   0.00000  Uiso   1.00
C1323  C     0.61412   0.64095   0.21473   0.00000  Uiso   1.00
C1324  C     0.88637   0.85919   0.78585   0.00000  Uiso   1.00
C1325  C     0.85916   0.61402   0.21469   0.00000  Uiso   1.00
C1326  C     0.63981   0.88730   0.78561   0.00000  Uiso   1.00
C1327  C     0.88590   0.85905   0.21473   0.00000  Uiso   1.00
C1328  C     0.61288   0.64002   0.78556   0.00000  Uiso   1.00
C1329  C     0.63955   0.61272   0.78549   0.00000  Uiso   1.00
C1330  C     0.85823   0.88536   0.21480   0.00000  Uiso   1.00
C1331  C     0.61257   0.86057   0.78553   0.00000  Uiso   1.00
C1332  C     0.88541   0.64175   0.21479   0.00000  Uiso   1.00
C1333  C     0.86004   0.88687   0.78579   0.00000  Uiso   1.00
C1334  C     0.64181   0.61465   0.21481   0.00000  Uiso   1.00
C1335  C     0.88746   0.63938   0.78561   0.00000  Uiso   1.00
C1336  C     0.61462   0.85826   0.21478   0.00000  Uiso   1.00
C1337  C     0.88908   0.63774   0.71464   0.00000  Uiso   1.00
C1338  C     0.60878   0.86428   0.28537   0.00000  Uiso   1.00
C1339  C     0.86344   0.89013   0.71494   0.00000  Uiso   1.00
C1340  C     0.63560   0.60870   0.28537   0.00000  Uiso   1.00
C1341  C     0.61078   0.86247   0.71458   0.00000  Uiso   1.00
C1342  C     0.89118   0.63572   0.28538   0.00000  Uiso   1.00
C1343  C     0.63729   0.61049   0.71456   0.00000  Uiso   1.00
C1344  C     0.86437   0.89130   0.28537   0.00000  Uiso   1.00
C1345  C     0.89199   0.86490   0.28526   0.00000  Uiso   1.00
C1346  C     0.61000   0.63716   0.71448   0.00000  Uiso   1.00
C1347  C     0.86484   0.60806   0.28524   0.00000  Uiso   1.00
C1348  C     0.63736   0.88982   0.71451   0.00000  Uiso   1.00
C1349  C     0.60797   0.63509   0.28526   0.00000  Uiso   1.00
C1350  C     0.88969   0.86249   0.71492   0.00000  Uiso   1.00
C1351  C     0.63513   0.89193   0.28524   0.00000  Uiso   1.00
C1352  C     0.86247   0.61043   0.71459   0.00000  Uiso   1.00
C1353  C     0.99776   0.71648   0.45881   0.00000  Uiso   1.00
C1354  C     0.50586   0.78315   0.54101   0.00000  Uiso   1.00
C1355  C     0.78334   0.99848   0.45869   0.00000  Uiso   1.00
C1356  C     0.71647   0.50527   0.54096   0.00000  Uiso   1.00
C1357  C     0.50219   0.78361   0.45878   0.00000  Uiso   1.00
C1358  C     0.99394   0.71702   0.54101   0.00000  Uiso   1.00
C1359  C     0.71606   0.50158   0.45873   0.00000  Uiso   1.00
C1360  C     0.78300   0.99523   0.54089   0.00000  Uiso   1.00
C1361  C     0.75289   0.96655   0.95897   0.00000  Uiso   1.00
C1362  C     0.75233   0.53347   0.04103   0.00000  Uiso   1.00
C1363  C     0.53348   0.75314   0.95896   0.00000  Uiso   1.00
C1364  C     0.96649   0.75213   0.04106   0.00000  Uiso   1.00
C1365  C     0.74699   0.53343   0.95896   0.00000  Uiso   1.00
C1366  C     0.74764   0.96652   0.04104   0.00000  Uiso   1.00
C1367  C     0.96656   0.74679   0.95899   0.00000  Uiso   1.00
C1368  C     0.53354   0.74785   0.04103   0.00000  Uiso   1.00
C1369  C     0.59853   0.84761   0.25016   0.00000  Uiso   1.00
C1370  C     0.90176   0.65198   0.75010   0.00000  Uiso   1.00
C1371  C     0.65235   0.59849   0.25017   0.00000  Uiso   1.00
C1372  C     0.84849   0.90217   0.75034   0.00000  Uiso   1.00
C1373  C     0.90146   0.65240   0.25017   0.00000  Uiso   1.00
C1374  C     0.59821   0.84807   0.75004   0.00000  Uiso   1.00
C1375  C     0.84766   0.90152   0.25016   0.00000  Uiso   1.00
C1376  C     0.65185   0.59813   0.75003   0.00000  Uiso   1.00
C1377  C     0.59803   0.65200   0.75002   0.00000  Uiso   1.00
C1378  C     0.90243   0.84862   0.24993   0.00000  Uiso   1.00
C1379  C     0.65196   0.90200   0.75006   0.00000  Uiso   1.00
C1380  C     0.84867   0.59753   0.24990   0.00000  Uiso   1.00
C1381  C     0.90128   0.84729   0.75032   0.00000  Uiso   1.00
C1382  C     0.59756   0.65137   0.24993   0.00000  Uiso   1.00
C1383  C     0.84797   0.59809   0.75014   0.00000  Uiso   1.00
C1384  C     0.65135   0.90246   0.24990   0.00000  Uiso   1.00
C1385  C     0.99997   0.75006   0.47936   0.00000  Uiso   1.00
C1386  C     0.99994   0.75007   0.52043   0.00000  Uiso   1.00
C1387  C     0.74970   0.50006   0.47927   0.00000  Uiso   1.00
C1388  C     0.74972   0.50015   0.52035   0.00000  Uiso   1.00
C1389  C     0.74995   0.99999   0.97950   0.00000  Uiso   1.00
C1390  C     0.74997   0.99999   0.02050   0.00000  Uiso   1.00
C1391  C     0.50002   0.74998   0.97950   0.00000  Uiso   1.00
C1392  C     0.50002   0.74999   0.02050   0.00000  Uiso   1.00
N1393  N     0.98521   0.64987   0.45986   0.00000  Uiso   1.00
O1394  O     0.95464   0.64563   0.44117   0.00000  Uiso   1.00
O1395  O     0.50698   0.62213   0.46427   0.00000  Uiso   1.00
N1396  N     0.50865   0.85086   0.54013   0.00000  Uiso   1.00
O1397  O     0.97999   0.86140   0.55944   0.00000  Uiso   1.00
O1398  O     0.53578   0.87334   0.53540   0.00000  Uiso   1.00
N1399  N     0.85018   0.98678   0.45961   0.00000  Uiso   1.00
O1400  O     0.85465   0.95619   0.44107   0.00000  Uiso   1.00
O1401  O     0.87778   0.50876   0.46383   0.00000  Uiso   1.00
N1402  N     0.64864   0.50627   0.54021   0.00000  Uiso   1.00
O1403  O     0.63913   0.97759   0.56000   0.00000  Uiso   1.00
O1404  O     0.62530   0.53265   0.53541   0.00000  Uiso   1.00
N1405  N     0.51478   0.85021   0.45975   0.00000  Uiso   1.00
O1406  O     0.54535   0.85438   0.44102   0.00000  Uiso   1.00
O1407  O     0.99305   0.87799   0.46414   0.00000  Uiso   1.00
N1408  N     0.99118   0.64932   0.54026   0.00000  Uiso   1.00
O1409  O     0.51966   0.63899   0.55996   0.00000  Uiso   1.00
O1410  O     0.96415   0.62674   0.53545   0.00000  Uiso   1.00
N1411  N     0.64908   0.51257   0.45982   0.00000  Uiso   1.00
O1412  O     0.64406   0.54311   0.44134   0.00000  Uiso   1.00
O1413  O     0.62187   0.99012   0.46412   0.00000  Uiso   1.00
N1414  N     0.85089   0.99354   0.53977   0.00000  Uiso   1.00
O1415  O     0.86185   0.52302   0.55724   0.00000  Uiso   1.00
O1416  O     0.87334   0.96628   0.53582   0.00000  Uiso   1.00
N1417  N     0.74939   0.89890   0.95962   0.00000  Uiso   1.00
O1418  O     0.72090   0.89147   0.93851   0.00000  Uiso   1.00
O1419  O     0.77394   0.87383   0.96540   0.00000  Uiso   1.00
N1420  N     0.74735   0.60101   0.04047   0.00000  Uiso   1.00
O1421  O     0.71888   0.60766   0.06194   0.00000  Uiso   1.00
O1422  O     0.77120   0.62671   0.03450   0.00000  Uiso   1.00
N1423  N     0.60123   0.75023   0.95959   0.00000  Uiso   1.00
O1424  O     0.60900   0.72180   0.93855   0.00000  Uiso   1.00
O1425  O     0.62608   0.77501   0.96535   0.00000  Uiso   1.00
N1426  N     0.89890   0.74672   0.04055   0.00000  Uiso   1.00
O1427  O     0.89247   0.71829   0.06209   0.00000  Uiso   1.00
O1428  O     0.87299   0.77035   0.03458   0.00000  Uiso   1.00
N1429  N     0.75035   0.60108   0.95960   0.00000  Uiso   1.00
O1430  O     0.77884   0.60863   0.93851   0.00000  Uiso   1.00
O1431  O     0.72571   0.62607   0.96540   0.00000  Uiso   1.00
N1432  N     0.75256   0.89897   0.04048   0.00000  Uiso   1.00
O1433  O     0.78105   0.89229   0.06188   0.00000  Uiso   1.00
O1434  O     0.72867   0.87329   0.03460   0.00000  Uiso   1.00
N1435  N     0.89880   0.74967   0.95968   0.00000  Uiso   1.00
O1436  O     0.89103   0.77807   0.93860   0.00000  Uiso   1.00
O1437  O     0.87397   0.72489   0.96549   0.00000  Uiso   1.00
N1438  N     0.60113   0.75323   0.04045   0.00000  Uiso   1.00
O1439  O     0.60757   0.78169   0.06195   0.00000  Uiso   1.00
O1440  O     0.62702   0.72959   0.03448   0.00000  Uiso   1.00
N1441  N     0.65868   0.89562   0.17909   0.00000  Uiso   1.00
O1442  O     0.67986   0.87216   0.16192   0.00000  Uiso   1.00
O1443  O     0.64898   0.92510   0.16079   0.00000  Uiso   1.00
N1444  N     0.84412   0.60140   0.82185   0.00000  Uiso   1.00
O1445  O     0.80891   0.60277   0.82656   0.00000  Uiso   1.00
O1446  O     0.86468   0.59170   0.85087   0.00000  Uiso   1.00
N1447  N     0.60459   0.65883   0.17915   0.00000  Uiso   1.00
O1448  O     0.62815   0.68003   0.16215   0.00000  Uiso   1.00
O1449  O     0.57513   0.64924   0.16073   0.00000  Uiso   1.00
N1450  N     0.89707   0.84251   0.82189   0.00000  Uiso   1.00
O1451  O     0.89631   0.80722   0.82566   0.00000  Uiso   1.00
O1452  O     0.90602   0.86254   0.85158   0.00000  Uiso   1.00
N1453  N     0.84139   0.60438   0.17909   0.00000  Uiso   1.00
O1454  O     0.82022   0.62785   0.16193   0.00000  Uiso   1.00
O1455  O     0.85109   0.57490   0.16079   0.00000  Uiso   1.00
N1456  N     0.65598   0.89843   0.82176   0.00000  Uiso   1.00
O1457  O     0.69120   0.89701   0.82635   0.00000  Uiso   1.00
O1458  O     0.63548   0.90808   0.85087   0.00000  Uiso   1.00
N1459  N     0.89546   0.84116   0.17916   0.00000  Uiso   1.00
O1460  O     0.87190   0.81997   0.16217   0.00000  Uiso   1.00
O1461  O     0.92493   0.85075   0.16072   0.00000  Uiso   1.00
N1462  N     0.60191   0.65640   0.82167   0.00000  Uiso   1.00
O1463  O     0.60333   0.69161   0.82601   0.00000  Uiso   1.00
O1464  O     0.59239   0.63611   0.85097   0.00000  Uiso   1.00
N1465  N     0.65616   0.60195   0.82135   0.00000  Uiso   1.00
O1466  O     0.67742   0.62462   0.83955   0.00000  Uiso   1.00
O1467  O     0.64509   0.57254   0.83888   0.00000  Uiso   1.00
N1468  N     0.84024   0.89486   0.17911   0.00000  Uiso   1.00
O1469  O     0.80481   0.89388   0.17683   0.00000  Uiso   1.00
O1470  O     0.85919   0.90286   0.14830   0.00000  Uiso   1.00
N1471  N     0.60167   0.84409   0.82140   0.00000  Uiso   1.00
O1472  O     0.62431   0.82288   0.83974   0.00000  Uiso   1.00
O1473  O     0.57222   0.85525   0.83884   0.00000  Uiso   1.00
N1474  N     0.89496   0.65970   0.17908   0.00000  Uiso   1.00
O1475  O     0.89386   0.69509   0.17673   0.00000  Uiso   1.00
O1476  O     0.90314   0.64076   0.14834   0.00000  Uiso   1.00
N1477  N     0.84315   0.89749   0.82157   0.00000  Uiso   1.00
O1478  O     0.82226   0.87454   0.83988   0.00000  Uiso   1.00
O1479  O     0.85365   0.92717   0.83896   0.00000  Uiso   1.00
N1480  N     0.65984   0.60516   0.17911   0.00000  Uiso   1.00
O1481  O     0.69527   0.60614   0.17684   0.00000  Uiso   1.00
O1482  O     0.64092   0.59716   0.14830   0.00000  Uiso   1.00
N1483  N     0.89843   0.65575   0.82150   0.00000  Uiso   1.00
O1484  O     0.87583   0.67689   0.83999   0.00000  Uiso   1.00
O1485  O     0.92793   0.64454   0.83880   0.00000  Uiso   1.00
N1486  N     0.60510   0.84032   0.17908   0.00000  Uiso   1.00
O1487  O     0.60619   0.80493   0.17673   0.00000  Uiso   1.00
O1488  O     0.59695   0.85927   0.14834   0.00000  Uiso   1.00
N1489  N     0.90500   0.64912   0.67866   0.00000  Uiso   1.00
O1490  O     0.92574   0.62668   0.65945   0.00000  Uiso   1.00
O1491  O     0.89322   0.67860   0.66181   0.00000  Uiso   1.00
N1492  N     0.59032   0.85532   0.32084   0.00000  Uiso   1.00
O1493  O     0.56959   0.87947   0.33757   0.00000  Uiso   1.00
O1494  O     0.59885   0.82568   0.33950   0.00000  Uiso   1.00
N1495  N     0.85341   0.90721   0.67908   0.00000  Uiso   1.00
O1496  O     0.85696   0.94229   0.67519   0.00000  Uiso   1.00
O1497  O     0.84385   0.88755   0.64933   0.00000  Uiso   1.00
N1498  N     0.64447   0.59017   0.32081   0.00000  Uiso   1.00
O1499  O     0.62025   0.56943   0.33741   0.00000  Uiso   1.00
O1500  O     0.67411   0.59861   0.33955   0.00000  Uiso   1.00
N1501  N     0.59478   0.85116   0.67863   0.00000  Uiso   1.00
O1502  O     0.57389   0.87359   0.65961   0.00000  Uiso   1.00
O1503  O     0.60650   0.82171   0.66168   0.00000  Uiso   1.00
N1504  N     0.90959   0.64470   0.32086   0.00000  Uiso   1.00
O1505  O     0.93029   0.62056   0.33760   0.00000  Uiso   1.00
O1506  O     0.90102   0.67435   0.33949   0.00000  Uiso   1.00
N1507  N     0.64833   0.59418   0.67867   0.00000  Uiso   1.00
O1508  O     0.62567   0.57330   0.65996   0.00000  Uiso   1.00
O1509  O     0.67783   0.60552   0.66145   0.00000  Uiso   1.00
N1510  N     0.85546   0.90982   0.32081   0.00000  Uiso   1.00
O1511  O     0.87963   0.93064   0.33735   0.00000  Uiso   1.00
O1512  O     0.82583   0.90134   0.33957   0.00000  Uiso   1.00
N1513  N     0.91026   0.85563   0.32084   0.00000  Uiso   1.00
O1514  O     0.94573   0.85628   0.32266   0.00000  Uiso   1.00
O1515  O     0.89154   0.84814   0.35196   0.00000  Uiso   1.00
N1516  N     0.59371   0.64823   0.67835   0.00000  Uiso   1.00
O1517  O     0.55845   0.64706   0.67394   0.00000  Uiso   1.00
O1518  O     0.61412   0.65785   0.64917   0.00000  Uiso   1.00
N1519  N     0.85550   0.58984   0.32083   0.00000  Uiso   1.00
O1520  O     0.85638   0.55442   0.32275   0.00000  Uiso   1.00
O1521  O     0.84778   0.60856   0.35186   0.00000  Uiso   1.00
N1522  N     0.64857   0.90598   0.67836   0.00000  Uiso   1.00
O1523  O     0.64709   0.94115   0.67369   0.00000  Uiso   1.00
O1524  O     0.65858   0.88551   0.64939   0.00000  Uiso   1.00
N1525  N     0.58968   0.64438   0.32084   0.00000  Uiso   1.00
O1526  O     0.55421   0.64372   0.32267   0.00000  Uiso   1.00
O1527  O     0.60837   0.65187   0.35195   0.00000  Uiso   1.00
N1528  N     0.90671   0.85203   0.67912   0.00000  Uiso   1.00
O1529  O     0.92993   0.87387   0.66250   0.00000  Uiso   1.00
O1530  O     0.89534   0.82328   0.66060   0.00000  Uiso   1.00
N1531  N     0.64442   0.91016   0.32082   0.00000  Uiso   1.00
O1532  O     0.64353   0.94558   0.32271   0.00000  Uiso   1.00
O1533  O     0.65209   0.89146   0.35186   0.00000  Uiso   1.00
N1534  N     0.85127   0.59434   0.67846   0.00000  Uiso   1.00
O1535  O     0.85340   0.55924   0.67357   0.00000  Uiso   1.00
O1536  O     0.84091   0.61481   0.64964   0.00000  Uiso   1.00
N1537  N     0.99005   0.81590   0.39666   0.00000  Uiso   1.00
O1538  O     0.51094   0.82657   0.36828   0.00000  Uiso   1.00
O1539  O     0.95971   0.83317   0.40353   0.00000  Uiso   1.00
N1540  N     0.97312   0.68892   0.60275   0.00000  Uiso   1.00
O1541  O     0.98971   0.67368   0.63196   0.00000  Uiso   1.00
O1542  O     0.94003   0.67897   0.59408   0.00000  Uiso   1.00
N1543  N     0.68399   0.98917   0.39653   0.00000  Uiso   1.00
O1544  O     0.67298   0.51008   0.36834   0.00000  Uiso   1.00
O1545  O     0.66724   0.95851   0.40309   0.00000  Uiso   1.00
N1546  N     0.81235   0.97782   0.60306   0.00000  Uiso   1.00
O1547  O     0.82779   0.99762   0.62973   0.00000  Uiso   1.00
O1548  O     0.82334   0.94454   0.59730   0.00000  Uiso   1.00
N1549  N     0.50990   0.68416   0.39671   0.00000  Uiso   1.00
O1550  O     0.98900   0.67346   0.36838   0.00000  Uiso   1.00
O1551  O     0.54025   0.66690   0.40354   0.00000  Uiso   1.00
N1552  N     0.52592   0.81149   0.60293   0.00000  Uiso   1.00
O1553  O     0.50868   0.82666   0.63178   0.00000  Uiso   1.00
O1554  O     0.55906   0.82171   0.59481   0.00000  Uiso   1.00
N1555  N     0.81552   0.51099   0.39657   0.00000  Uiso   1.00
O1556  O     0.82665   0.99014   0.36838   0.00000  Uiso   1.00
O1557  O     0.83234   0.54156   0.40338   0.00000  Uiso   1.00
N1558  N     0.68779   0.52529   0.60275   0.00000  Uiso   1.00
O1559  O     0.67322   0.50856   0.63225   0.00000  Uiso   1.00
O1560  O     0.67696   0.55805   0.59395   0.00000  Uiso   1.00
N1561  N     0.72700   0.56283   0.89761   0.00000  Uiso   1.00
O1562  O     0.74343   0.57637   0.86738   0.00000  Uiso   1.00
O1563  O     0.69516   0.57545   0.90762   0.00000  Uiso   1.00
N1564  N     0.72783   0.93683   0.10231   0.00000  Uiso   1.00
O1565  O     0.74408   0.92374   0.13287   0.00000  Uiso   1.00
O1566  O     0.69649   0.92342   0.09178   0.00000  Uiso   1.00
N1567  N     0.93727   0.72660   0.89767   0.00000  Uiso   1.00
O1568  O     0.92358   0.74293   0.86746   0.00000  Uiso   1.00
O1569  O     0.92489   0.69470   0.90766   0.00000  Uiso   1.00
N1570  N     0.56336   0.72814   0.10225   0.00000  Uiso   1.00
O1571  O     0.57634   0.74435   0.13287   0.00000  Uiso   1.00
O1572  O     0.57699   0.69694   0.09161   0.00000  Uiso   1.00
N1573  N     0.77290   0.93713   0.89763   0.00000  Uiso   1.00
O1574  O     0.75652   0.92364   0.86735   0.00000  Uiso   1.00
O1575  O     0.80465   0.92439   0.90774   0.00000  Uiso   1.00
N1576  N     0.77220   0.56316   0.10225   0.00000  Uiso   1.00
O1577  O     0.75598   0.57625   0.13283   0.00000  Uiso   1.00
O1578  O     0.80353   0.57658   0.09164   0.00000  Uiso   1.00
N1579  N     0.56280   0.77323   0.89757   0.00000  Uiso   1.00
O1580  O     0.57647   0.75682   0.86739   0.00000  Uiso   1.00
O1581  O     0.57524   0.80511   0.90749   0.00000  Uiso   1.00
N1582  N     0.93666   0.77189   0.10228   0.00000  Uiso   1.00
O1583  O     0.92368   0.75571   0.13294   0.00000  Uiso   1.00
O1584  O     0.92302   0.80307   0.09160   0.00000  Uiso   1.00
loop_
_geom_bond_atom_site_label_1
_geom_bond_atom_site_label_2
_geom_bond_distance
_geom_bond_site_symmetry_2
_ccdc_geom_bond_type
Zn1    O87     1.936   .     S
Zn1    O56     1.950   .     S
Zn1    O41     1.948   .     S
Zn1    O876    1.937   1_545 S
Zn2    O83     1.937   .     S
Zn2    O42     1.948   .     S
Zn2    O55     1.950   .     S
Zn2    O880    1.936   1_545 S
Zn3    O481    1.936   1_455 S
Zn3    O43     1.949   .     S
Zn3    O58     1.950   .     S
Zn3    O78     1.936   .     S
Zn4    O86     1.936   .     S
Zn4    O44     1.949   .     S
Zn4    O57     1.950   .     S
Zn4    O473    1.936   1_455 S
Zn5    O60     1.950   .     S
Zn5    O80     1.937   .     S
Zn5    O41     1.947   .     S
Zn5    O883    1.936   1_545 S
Zn6    O92     1.936   .     S
Zn6    O42     1.947   .     S
Zn6    O59     1.950   .     S
Zn6    O871    1.937   1_545 S
Zn7    O478    1.935   1_455 S
Zn7    O43     1.949   .     S
Zn7    O54     1.950   .     S
Zn7    O89     1.936   .     S
Zn8    O81     1.935   .     S
Zn8    O44     1.949   .     S
Zn8    O53     1.950   .     S
Zn8    O486    1.936   1_455 S
Zn9    O48     1.950   .     S
Zn9    O71     1.936   .     S
Zn9    O68     1.937   .     S
Zn9    O440    1.948   .     S
Zn10   O47     1.950   .     S
Zn10   O72     1.936   .     S
Zn10   O67     1.937   .     S
Zn10   O43     1.948   .     S
Zn11   O62     1.936   .     S
Zn11   O834    1.949   .     S
Zn11   O69     1.936   .     S
Zn11   O50     1.950   .     S
Zn12   O49     1.950   .     S
Zn12   O70     1.936   .     S
Zn12   O61     1.936   .     S
Zn12   O41     1.949   .     S
Zn13   O75     1.936   .     S
Zn13   O44     1.947   .     S
Zn13   O52     1.950   .     S
Zn13   O64     1.937   .     S
Zn14   O76     1.936   .     S
Zn14   O51     1.950   .     S
Zn14   O63     1.937   .     S
Zn14   O439    1.947   .     S
Zn15   O66     1.935   .     S
Zn15   O73     1.936   .     S
Zn15   O46     1.950   .     S
Zn15   O42     1.949   .     S
Zn16   O45     1.950   .     S
Zn16   O65     1.935   .     S
Zn16   O74     1.936   .     S
Zn16   O833    1.949   .     S
C17    C33     1.399   .     A
C17    N349    1.436   .     S
C17    C565    1.415   .     S
C18    N352    1.436   .     S
C18    C170    1.414   .     A
C18    C34     1.401   .     A
C19    N355    1.436   .     S
C19    C827    1.399   .     S
C19    C963    1.415   .     S
C20    N358    1.432   .     S
C20    C172    1.414   .     A
C20    C828    1.399   .     S
C21    N361    1.436   .     S
C21    C429    1.399   1_455 S
C21    C561    1.415   1_455 S
C22    C166    1.415   .     A
C22    N364    1.436   .     S
C22    C430    1.401   1_455 S
C23    N367    1.436   .     S
C23    C35     1.398   .     A
C23    C959    1.414   1_545 S
C24    C36     1.400   .     A
C24    N370    1.437   .     S
C24    C168    1.415   .     A
C25    N373    1.437   .     S
C25    C177    1.415   .     A
C25    C829    1.403   1_545 S
C26    C38     1.403   .     A
C26    N376    1.438   .     S
C26    C178    1.414   .     A
C27    N379    1.437   .     S
C27    C179    1.415   .     A
C27    C435    1.403   .     S
C28    C40     1.403   .     A
C28    C180    1.415   .     A
C28    N382    1.438   .     S
C29    C37     1.403   .     A
C29    N385    1.437   .     S
C29    C173    1.415   .     A
C30    N388    1.438   .     S
C30    C174    1.414   .     A
C30    C830    1.403   1_545 S
C31    N391    1.437   .     S
C31    C175    1.415   .     A
C31    C39     1.403   .     A
C32    N394    1.438   .     S
C32    C176    1.414   .     A
C32    C436    1.403   .     S
C33    C111    1.455   .     S
C33    C417    1.399   .     S
C34    C508    1.457   .     S
C34    C418    1.401   .     S
C35    C109    1.454   .     S
C35    C811    1.399   1_545 S
C36    C110    1.459   .     S
C36    C812    1.399   1_545 S
C37    C907    1.457   .     S
C37    C817    1.403   .     S
C38    C822    1.403   .     S
C38    C908    1.457   .     S
C39    C113    1.457   .     S
C39    C423    1.403   1_455 S
C40    C114    1.457   .     S
C40    C428    1.403   1_455 S
O41    Zn808   1.949   1_545 S
O42    Zn803   1.949   1_545 S
O43    Zn410   1.947   1_455 S
O44    Zn405   1.948   1_455 S
O45    C901    1.277   .     S
O46    C110    1.278   .     A
O47    C507    1.276   1_455 S
O48    C508    1.277   .     A
O49    C109    1.277   .     A
O50    C902    1.279   .     S
O51    C111    1.276   .     A
O52    C112    1.278   .     S
O53    C113    1.278   .     S
O54    C114    1.278   .     A
O55    C115    1.277   .     A
O56    C116    1.277   .     A
O57    C113    1.278   .     A
O58    C114    1.278   .     A
O59    C115    1.277   .     A
O60    C116    1.277   .     A
O61    C117    1.277   .     A
O62    C118    1.284   .     A
O63    C119    1.277   .     A
O64    C120    1.281   .     A
O65    C121    1.277   .     A
O66    C122    1.280   .     A
O67    C123    1.277   .     A
O68    C124    1.281   .     A
O69    C125    1.279   .     A
O70    C126    1.283   .     A
O71    C127    1.277   .     A
O72    C128    1.284   .     A
O73    C129    1.280   .     A
O74    C130    1.284   .     A
O75    C131    1.279   .     A
O76    C132    1.283   .     A
O77    C127    1.282   .     A
O77    Zn400   1.936   .     S
O78    C128    1.277   .     A
O79    C125    1.279   .     A
O79    Zn798   1.937   .     S
O80    C126    1.277   .     A
O81    C131    1.279   .     A
O82    C132    1.277   .     A
O82    Zn403   1.935   .     S
O83    C129    1.279   .     A
O84    C130    1.277   .     A
O84    Zn793   1.937   .     S
O85    Zn399   1.936   .     S
O85    C119    1.283   .     A
O86    C120    1.281   .     A
O87    C117    1.283   .     A
O88    C118    1.278   .     A
O88    Zn794   1.936   .     S
O89    C123    1.283   .     A
O90    C124    1.281   .     A
O90    Zn404   1.936   .     S
O91    C121    1.283   .     A
O91    Zn797   1.936   .     S
O92    C122    1.281   .     A
C93    N205    1.436   .     S
C93    C165    1.418   .     A
C93    C98     1.401   .     A
C94    N208    1.436   .     S
C94    C97     1.402   .     A
C94    C166    1.417   .     A
C95    C167    1.417   .     A
C95    N211    1.436   .     S
C95    C100    1.400   .     A
C96    C99     1.402   .     A
C96    N214    1.436   .     S
C96    C168    1.417   .     A
C97    N217    1.436   .     S
C97    C169    1.418   .     A
C98    N220    1.436   .     S
C98    C170    1.417   .     A
C99    N223    1.435   .     S
C99    C171    1.418   .     A
C100   C172    1.418   .     A
C100   N226    1.435   .     S
C101   C173    1.418   .     A
C101   N229    1.436   .     S
C101   C106    1.404   1_556 S
C102   N232    1.436   .     S
C102   C174    1.417   .     A
C102   C105    1.404   1_554 S
C103   N235    1.436   .     S
C103   C175    1.418   .     A
C103   C108    1.404   1_556 S
C104   N238    1.436   .     S
C104   C176    1.417   .     A
C104   C107    1.404   1_554 S
C105   N241    1.436   .     S
C105   C177    1.418   .     A
C105   C102    1.404   1_556 S
C106   N244    1.436   .     S
C106   C178    1.417   .     A
C106   C101    1.404   1_554 S
C107   C179    1.418   .     A
C107   N247    1.436   .     S
C107   C104    1.404   1_556 S
C108   N250    1.436   .     S
C108   C180    1.417   .     A
C108   C103    1.404   1_554 S
C109   O837    1.277   1_545 S
C110   O842    1.279   1_545 S
C111   O443    1.276   .     S
C112   C430    1.457   1_455 S
C112   O444    1.277   1_455 A
C115   C829    1.457   1_545 S
C116   C830    1.457   1_545 S
C117   C183    1.455   .     S
C118   C184    1.458   .     S
C119   C185    1.455   .     S
C120   C186    1.458   .     S
C121   C187    1.455   .     S
C122   C188    1.457   .     S
C123   C181    1.455   .     S
C124   C182    1.457   .     S
C125   C191    1.454   .     S
C126   C192    1.456   .     S
C127   C193    1.453   .     S
C128   C194    1.456   .     S
C129   C195    1.454   .     S
C130   C196    1.457   .     S
C131   C189    1.453   .     S
C132   C190    1.456   .     S
C133   N253    1.433   .     S
C133   C196    1.408   .     A
C133   C148    1.400   .     A
C134   C147    1.399   .     A
C134   C195    1.410   .     A
C134   N256    1.438   .     S
C135   C146    1.400   .     A
C135   N259    1.433   .     S
C135   C194    1.408   .     A
C136   N262    1.438   .     S
C136   C145    1.400   .     A
C136   C193    1.409   .     A
C137   C144    1.400   .     A
C137   C192    1.408   .     A
C137   N265    1.433   .     S
C138   C143    1.399   .     A
C138   C191    1.410   .     A
C138   N268    1.438   .     S
C139   C142    1.400   .     A
C139   C190    1.408   .     A
C139   N271    1.433   .     S
C140   C141    1.399   .     A
C140   C189    1.410   .     A
C140   N274    1.438   .     S
C141   C188    1.407   .     A
C141   N277    1.432   .     S
C142   C187    1.408   .     A
C142   N280    1.438   .     S
C143   N283    1.432   .     S
C143   C186    1.408   .     A
C144   C185    1.408   .     A
C144   N286    1.438   .     S
C145   C184    1.409   .     A
C145   N289    1.432   .     S
C146   C183    1.408   .     A
C146   N292    1.438   .     S
C147   N295    1.432   .     S
C147   C182    1.408   .     A
C148   N298    1.438   .     S
C148   C181    1.408   .     A
C149   N301    1.431   .     S
C149   C182    1.407   .     A
C149   C164    1.398   .     A
C150   C163    1.400   .     A
C150   C181    1.409   .     A
C150   N304    1.434   .     S
C151   C184    1.407   .     A
C151   C162    1.397   .     A
C151   N307    1.433   .     S
C152   N310    1.434   .     S
C152   C161    1.400   .     A
C152   C183    1.409   .     A
C153   C160    1.398   .     A
C153   C186    1.408   .     A
C153   N313    1.431   .     S
C154   C159    1.400   .     A
C154   N316    1.434   .     S
C154   C185    1.409   .     A
C155   C158    1.399   .     A
C155   N319    1.432   .     S
C155   C188    1.408   .     A
C156   C187    1.409   .     A
C156   C157    1.400   .     A
C156   N322    1.434   .     S
C157   C190    1.408   .     A
C157   N325    1.437   .     S
C158   N328    1.439   .     S
C158   C189    1.409   .     A
C159   C192    1.408   .     A
C159   N331    1.437   .     S
C160   N334    1.438   .     S
C160   C191    1.409   .     A
C161   N337    1.437   .     S
C161   C194    1.408   .     A
C162   N340    1.434   .     S
C162   C193    1.406   .     A
C163   N343    1.437   .     S
C163   C196    1.408   .     A
C164   C195    1.409   .     A
C164   N346    1.437   .     S
C165   C197    1.423   .     A
C165   C417    1.415   .     S
C166   C594    1.421   1_455 S
C167   C815    1.414   .     S
C167   C991    1.423   .     S
C168   C200    1.422   .     A
C169   C413    1.415   1_455 S
C169   C593    1.422   1_455 S
C170   C198    1.421   .     A
C171   C199    1.423   .     A
C171   C811    1.415   1_545 S
C172   C992    1.421   .     S
C173   C201    1.420   .     A
C174   C994    1.419   1_545 S
C175   C203    1.420   .     A
C176   C600    1.419   .     S
C177   C993    1.420   1_545 S
C178   C202    1.419   .     A
C179   C599    1.420   .     S
C180   C204    1.419   .     A
C197   C198    1.415   .     A
C197   C565    1.422   .     S
C198   C562    1.421   .     S
C199   C200    1.415   .     A
C199   C959    1.423   1_545 S
C200   C964    1.421   1_545 S
C201   C969    1.420   .     S
C201   C202    1.412   1_556 S
C202   C966    1.419   .     S
C202   C201    1.412   1_554 S
C203   C575    1.420   1_455 S
C203   C204    1.412   1_556 S
C204   C572    1.419   1_455 S
C204   C203    1.412   1_554 S
N205   O206    1.301   .     A
N205   O603    1.301   .     S
O207   N601    1.301   1_455 S
N208   O210    1.302   .     A
N208   O605    1.301   1_455 S
O209   N604    1.301   .     S
N211   O212    1.301   .     A
N211   O1005   1.302   .     S
O213   N1003   1.302   1_545 S
N214   O216    1.302   .     A
N214   O1007   1.301   1_545 S
O215   N1006   1.301   .     S
N217   O218    1.301   .     A
N217   O615    1.301   1_455 S
O219   N613    1.301   .     S
N220   O222    1.302   .     A
N220   O617    1.301   .     S
O221   N616    1.301   1_455 S
N223   O224    1.301   .     A
N223   O1017   1.302   1_545 S
O225   N1015   1.302   .     S
N226   O228    1.302   .     A
N226   O1019   1.301   .     S
O227   N1018   1.301   1_545 S
N229   O230    1.301   .     A
N229   O231    1.301   .     A
N232   O234    1.301   .     A
N232   O233    1.301   .     A
N235   O236    1.301   .     A
N235   O237    1.301   .     A
N238   O239    1.301   .     A
N238   O240    1.301   .     A
N241   O243    1.301   .     A
N241   O242    1.301   .     A
N244   O245    1.301   .     A
N244   O246    1.301   .     A
N247   O249    1.301   .     A
N247   O248    1.301   .     A
N250   O252    1.301   .     A
N250   O251    1.301   .     A
N253   O254    1.301   .     A
N253   O255    1.301   .     A
N256   O258    1.301   .     A
N256   O257    1.301   .     A
N259   O261    1.301   .     A
N259   O260    1.301   .     A
N262   O263    1.301   .     A
N262   O264    1.301   .     A
N265   O267    1.301   .     A
N265   O266    1.301   .     A
N268   O270    1.301   .     A
N268   O269    1.301   .     A
N271   O272    1.301   .     A
N271   O273    1.301   .     A
N274   O275    1.301   .     A
N274   O276    1.301   .     A
N277   O278    1.301   .     A
N277   O279    1.301   .     A
N280   O281    1.301   .     A
N280   O282    1.301   .     A
N283   O284    1.301   .     A
N283   O285    1.301   .     A
N286   O288    1.301   .     A
N286   O287    1.301   .     A
N289   O290    1.301   .     A
N289   O291    1.301   .     A
N292   O294    1.301   .     A
N292   O293    1.301   .     A
N295   O297    1.301   .     A
N295   O296    1.301   .     A
N298   O299    1.301   .     A
N298   O300    1.301   .     A
N301   O302    1.301   .     A
N301   O303    1.301   .     A
N304   O306    1.301   .     A
N304   O305    1.301   .     A
N307   O308    1.300   .     A
N307   O309    1.301   .     A
N310   O312    1.301   .     A
N310   O311    1.301   .     A
N313   O314    1.301   .     A
N313   O315    1.301   .     A
N316   O317    1.301   .     A
N316   O318    1.301   .     A
N319   O321    1.301   .     A
N319   O320    1.301   .     A
N322   O324    1.301   .     A
N322   O323    1.301   .     A
N325   O326    1.301   .     A
N325   O327    1.301   .     A
N328   O329    1.301   .     A
N328   O330    1.301   .     A
N331   O333    1.301   .     A
N331   O332    1.301   .     A
N334   O335    1.301   .     A
N334   O336    1.301   .     A
N337   O338    1.301   .     A
N337   O339    1.301   .     A
N340   O342    1.301   .     A
N340   O341    1.301   .     A
N343   O345    1.301   .     A
N343   O344    1.301   .     A
N346   O348    1.301   .     A
N346   O347    1.301   .     A
N349   O351    1.301   .     A
N349   O746    1.301   .     S
O350   N745    1.301   1_455 S
N352   O353    1.301   .     A
N352   O354    1.301   .     A
N355   O357    1.301   .     A
N355   O1148   1.301   .     S
O356   N1147   1.301   1_545 S
N358   O360    1.300   .     A
N358   O359    1.300   .     A
N361   O363    1.301   .     A
N361   O758    1.301   1_455 S
O362   N757    1.301   .     S
N364   O365    1.302   .     A
N364   O366    1.301   .     A
N367   O369    1.301   .     A
N367   O1160   1.301   1_545 S
O368   N1159   1.301   .     S
N370   O371    1.301   .     A
N370   O372    1.301   .     A
N373   O375    1.301   .     A
N373   O374    1.301   .     A
N376   O378    1.301   .     A
N376   O377    1.301   .     A
N379   O380    1.301   .     A
N379   O381    1.301   .     A
N382   O383    1.301   .     A
N382   O384    1.301   .     A
N385   O387    1.301   .     A
N385   O386    1.301   .     A
N388   O389    1.301   .     A
N388   O390    1.301   .     A
N391   O393    1.301   .     A
N391   O392    1.301   .     A
N394   O395    1.301   .     A
N394   O396    1.301   .     A
Zn397  O483    1.936   .     S
Zn397  O452    1.950   .     S
Zn397  O437    1.948   .     S
Zn397  O1272   1.937   1_545 S
Zn398  O479    1.937   .     S
Zn398  O438    1.948   .     S
Zn398  O451    1.950   .     S
Zn398  O1276   1.936   1_545 S
Zn399  O439    1.949   .     S
Zn399  O454    1.950   .     S
Zn399  O474    1.936   .     S
Zn400  O482    1.936   .     S
Zn400  O440    1.949   .     S
Zn400  O453    1.950   .     S
Zn401  O456    1.950   .     S
Zn401  O476    1.937   .     S
Zn401  O437    1.947   .     S
Zn401  O1279   1.936   1_545 S
Zn402  O488    1.936   .     S
Zn402  O438    1.947   .     S
Zn402  O455    1.950   .     S
Zn402  O1267   1.937   1_545 S
Zn403  O439    1.949   .     S
Zn403  O450    1.950   .     S
Zn403  O485    1.936   .     S
Zn404  O477    1.935   .     S
Zn404  O440    1.949   .     S
Zn404  O449    1.950   .     S
Zn405  O444    1.950   .     S
Zn405  O467    1.936   .     S
Zn405  O464    1.937   .     S
Zn405  O44     1.948   1_655 S
Zn406  O443    1.950   .     S
Zn406  O468    1.936   .     S
Zn406  O463    1.937   .     S
Zn406  O439    1.948   .     S
Zn407  O458    1.936   .     S
Zn407  O1230   1.949   .     S
Zn407  O465    1.936   .     S
Zn407  O446    1.950   .     S
Zn408  O445    1.950   .     S
Zn408  O466    1.936   .     S
Zn408  O457    1.936   .     S
Zn408  O437    1.949   .     S
Zn409  O471    1.936   .     S
Zn409  O440    1.947   .     S
Zn409  O448    1.950   .     S
Zn409  O460    1.937   .     S
Zn410  O472    1.936   .     S
Zn410  O447    1.950   .     S
Zn410  O459    1.937   .     S
Zn410  O43     1.947   1_655 S
Zn411  O462    1.935   .     S
Zn411  O469    1.936   .     S
Zn411  O442    1.950   .     S
Zn411  O438    1.949   .     S
Zn412  O441    1.950   .     S
Zn412  O461    1.935   .     S
Zn412  O470    1.936   .     S
Zn412  O1229   1.949   .     S
C413   C429    1.399   .     A
C413   N745    1.436   .     S
C413   C169    1.415   1_655 S
C414   N748    1.436   .     S
C414   C566    1.414   .     A
C414   C430    1.401   .     A
C415   N751    1.436   .     S
C415   C1223   1.399   .     S
C415   C1359   1.415   .     S
C416   N754    1.432   .     S
C416   C568    1.414   .     A
C416   C1224   1.399   .     S
C417   N757    1.436   .     S
C418   C562    1.415   .     A
C418   N760    1.436   .     S
C419   N763    1.436   .     S
C419   C431    1.398   .     A
C419   C1355   1.414   1_545 S
C420   C432    1.400   .     A
C420   N766    1.437   .     S
C420   C564    1.415   .     A
C421   N769    1.437   .     S
C421   C573    1.415   .     A
C421   C1225   1.403   1_545 S
C422   C434    1.403   .     A
C422   N772    1.438   .     S
C422   C574    1.414   .     A
C423   N775    1.437   .     S
C423   C575    1.415   .     A
C423   C39     1.403   1_655 S
C424   C436    1.403   .     A
C424   C576    1.415   .     A
C424   N778    1.438   .     S
C425   C433    1.403   .     A
C425   N781    1.437   .     S
C425   C569    1.415   .     A
C426   N784    1.438   .     S
C426   C570    1.414   .     A
C426   C1226   1.403   1_545 S
C427   N787    1.437   .     S
C427   C571    1.415   .     A
C427   C435    1.403   .     A
C428   N790    1.438   .     S
C428   C572    1.414   .     A
C428   C40     1.403   1_655 S
C429   C507    1.455   .     S
C429   C21     1.399   1_655 S
C430   C112    1.457   1_655 S
C430   C22     1.401   1_655 S
C431   C505    1.454   .     S
C431   C1207   1.399   1_545 S
C432   C506    1.459   .     S
C432   C1208   1.399   1_545 S
C433   C1303   1.457   .     S
C433   C1213   1.403   .     S
C434   C1218   1.403   .     S
C434   C1304   1.457   .     S
C435   C509    1.457   .     S
C436   C510    1.457   .     S
O437   Zn1204  1.949   1_545 S
O438   Zn1199  1.949   1_545 S
O441   C1297   1.277   .     S
O442   C506    1.278   .     A
O444   C112    1.277   1_655 A
O445   C505    1.277   .     A
O446   C1298   1.279   .     S
O447   C507    1.276   .     A
O448   C508    1.278   .     S
O449   C509    1.278   .     S
O450   C510    1.278   .     A
O451   C511    1.277   .     A
O452   C512    1.277   .     A
O453   C509    1.278   .     A
O454   C510    1.278   .     A
O455   C511    1.277   .     A
O456   C512    1.277   .     A
O457   C513    1.277   .     A
O458   C514    1.284   .     A
O459   C515    1.277   .     A
O460   C516    1.281   .     A
O461   C517    1.277   .     A
O462   C518    1.280   .     A
O463   C519    1.277   .     A
O464   C520    1.281   .     A
O465   C521    1.279   .     A
O466   C522    1.283   .     A
O467   C523    1.277   .     A
O468   C524    1.284   .     A
O469   C525    1.280   .     A
O470   C526    1.284   .     A
O471   C527    1.279   .     A
O472   C528    1.283   .     A
O473   C523    1.282   .     A
O473   Zn4     1.936   1_655 S
O474   C524    1.277   .     A
O475   C521    1.279   .     A
O475   Zn1194  1.937   .     S
O476   C522    1.277   .     A
O477   C527    1.279   .     A
O478   C528    1.277   .     A
O478   Zn7     1.935   1_655 S
O479   C525    1.279   .     A
O480   C526    1.277   .     A
O480   Zn1189  1.937   .     S
O481   Zn3     1.936   1_655 S
O481   C515    1.283   .     A
O482   C516    1.281   .     A
O483   C513    1.283   .     A
O484   C514    1.278   .     A
O484   Zn1190  1.936   .     S
O485   C519    1.283   .     A
O486   C520    1.281   .     A
O486   Zn8     1.936   1_655 S
O487   C517    1.283   .     A
O487   Zn1193  1.936   .     S
O488   C518    1.281   .     A
C489   N601    1.436   .     S
C489   C561    1.418   .     A
C489   C494    1.401   .     A
C490   N604    1.436   .     S
C490   C493    1.402   .     A
C490   C562    1.417   .     A
C491   C563    1.417   .     A
C491   N607    1.436   .     S
C491   C496    1.400   .     A
C492   C495    1.402   .     A
C492   N610    1.436   .     S
C492   C564    1.417   .     A
C493   N613    1.436   .     S
C493   C565    1.418   .     A
C494   N616    1.436   .     S
C494   C566    1.417   .     A
C495   N619    1.435   .     S
C495   C567    1.418   .     A
C496   C568    1.418   .     A
C496   N622    1.435   .     S
C497   C569    1.418   .     A
C497   N625    1.436   .     S
C497   C502    1.404   1_556 S
C498   N628    1.436   .     S
C498   C570    1.417   .     A
C498   C501    1.404   1_554 S
C499   N631    1.436   .     S
C499   C571    1.418   .     A
C499   C504    1.404   1_556 S
C500   N634    1.436   .     S
C500   C572    1.417   .     A
C500   C503    1.404   1_554 S
C501   N637    1.436   .     S
C501   C573    1.418   .     A
C501   C498    1.404   1_556 S
C502   N640    1.436   .     S
C502   C574    1.417   .     A
C502   C497    1.404   1_554 S
C503   C575    1.418   .     A
C503   N643    1.436   .     S
C503   C500    1.404   1_556 S
C504   N646    1.436   .     S
C504   C576    1.417   .     A
C504   C499    1.404   1_554 S
C505   O1233   1.277   1_545 S
C506   O1238   1.279   1_545 S
C507   O47     1.276   1_655 S
C511   C1225   1.457   1_545 S
C512   C1226   1.457   1_545 S
C513   C579    1.455   .     S
C514   C580    1.458   .     S
C515   C581    1.455   .     S
C516   C582    1.458   .     S
C517   C583    1.455   .     S
C518   C584    1.457   .     S
C519   C577    1.455   .     S
C520   C578    1.457   .     S
C521   C587    1.454   .     S
C522   C588    1.456   .     S
C523   C589    1.453   .     S
C524   C590    1.456   .     S
C525   C591    1.454   .     S
C526   C592    1.457   .     S
C527   C585    1.453   .     S
C528   C586    1.456   .     S
C529   N649    1.433   .     S
C529   C592    1.408   .     A
C529   C544    1.400   .     A
C530   C543    1.399   .     A
C530   C591    1.410   .     A
C530   N652    1.438   .     S
C531   C542    1.400   .     A
C531   N655    1.433   .     S
C531   C590    1.408   .     A
C532   N658    1.438   .     S
C532   C541    1.400   .     A
C532   C589    1.409   .     A
C533   C540    1.400   .     A
C533   C588    1.408   .     A
C533   N661    1.433   .     S
C534   C539    1.399   .     A
C534   C587    1.410   .     A
C534   N664    1.438   .     S
C535   C538    1.400   .     A
C535   C586    1.408   .     A
C535   N667    1.433   .     S
C536   C537    1.399   .     A
C536   C585    1.410   .     A
C536   N670    1.438   .     S
C537   C584    1.407   .     A
C537   N673    1.432   .     S
C538   C583    1.408   .     A
C538   N676    1.438   .     S
C539   N679    1.432   .     S
C539   C582    1.408   .     A
C540   C581    1.408   .     A
C540   N682    1.438   .     S
C541   C580    1.409   .     A
C541   N685    1.432   .     S
C542   C579    1.408   .     A
C542   N688    1.438   .     S
C543   N691    1.432   .     S
C543   C578    1.408   .     A
C544   N694    1.438   .     S
C544   C577    1.408   .     A
C545   N697    1.431   .     S
C545   C578    1.407   .     A
C545   C560    1.398   .     A
C546   C559    1.400   .     A
C546   C577    1.409   .     A
C546   N700    1.434   .     S
C547   C580    1.407   .     A
C547   C558    1.397   .     A
C547   N703    1.433   .     S
C548   N706    1.434   .     S
C548   C557    1.400   .     A
C548   C579    1.409   .     A
C549   C556    1.398   .     A
C549   C582    1.408   .     A
C549   N709    1.431   .     S
C550   C555    1.400   .     A
C550   N712    1.434   .     S
C550   C581    1.409   .     A
C551   C554    1.399   .     A
C551   N715    1.432   .     S
C551   C584    1.408   .     A
C552   C583    1.409   .     A
C552   C553    1.400   .     A
C552   N718    1.434   .     S
C553   C586    1.408   .     A
C553   N721    1.437   .     S
C554   N724    1.439   .     S
C554   C585    1.409   .     A
C555   C588    1.408   .     A
C555   N727    1.437   .     S
C556   N730    1.438   .     S
C556   C587    1.409   .     A
C557   N733    1.437   .     S
C557   C590    1.408   .     A
C558   N736    1.434   .     S
C558   C589    1.406   .     A
C559   N739    1.437   .     S
C559   C592    1.408   .     A
C560   C591    1.409   .     A
C560   N742    1.437   .     S
C561   C593    1.423   .     A
C561   C21     1.415   1_655 S
C563   C1211   1.414   .     S
C563   C1387   1.423   .     S
C564   C596    1.422   .     A
C566   C594    1.421   .     A
C567   C595    1.423   .     A
C567   C1207   1.415   1_545 S
C568   C1388   1.421   .     S
C569   C597    1.420   .     A
C570   C1390   1.419   1_545 S
C571   C599    1.420   .     A
C572   C204    1.419   1_655 S
C573   C1389   1.420   1_545 S
C574   C598    1.419   .     A
C575   C203    1.420   1_655 S
C576   C600    1.419   .     A
C593   C594    1.415   .     A
C593   C169    1.422   1_655 S
C594   C166    1.421   1_655 S
C595   C596    1.415   .     A
C595   C1355   1.423   1_545 S
C596   C1360   1.421   1_545 S
C597   C1365   1.420   .     S
C597   C598    1.412   1_556 S
C598   C1362   1.419   .     S
C598   C597    1.412   1_554 S
C599   C600    1.412   1_556 S
C600   C599    1.412   1_554 S
N601   O602    1.301   .     A
N601   O207    1.301   1_655 S
N604   O606    1.302   .     A
O605   N208    1.301   1_655 S
N607   O608    1.301   .     A
N607   O1401   1.302   .     S
O609   N1399   1.302   1_545 S
N610   O612    1.302   .     A
N610   O1403   1.301   1_545 S
O611   N1402   1.301   .     S
N613   O614    1.301   .     A
O615   N217    1.301   1_655 S
N616   O618    1.302   .     A
N616   O221    1.301   1_655 S
N619   O620    1.301   .     A
N619   O1413   1.302   1_545 S
O621   N1411   1.302   .     S
N622   O624    1.302   .     A
N622   O1415   1.301   .     S
O623   N1414   1.301   1_545 S
N625   O626    1.301   .     A
N625   O627    1.301   .     A
N628   O630    1.301   .     A
N628   O629    1.301   .     A
N631   O632    1.301   .     A
N631   O633    1.301   .     A
N634   O635    1.301   .     A
N634   O636    1.301   .     A
N637   O639    1.301   .     A
N637   O638    1.301   .     A
N640   O641    1.301   .     A
N640   O642    1.301   .     A
N643   O645    1.301   .     A
N643   O644    1.301   .     A
N646   O648    1.301   .     A
N646   O647    1.301   .     A
N649   O650    1.301   .     A
N649   O651    1.301   .     A
N652   O654    1.301   .     A
N652   O653    1.301   .     A
N655   O657    1.301   .     A
N655   O656    1.301   .     A
N658   O659    1.301   .     A
N658   O660    1.301   .     A
N661   O663    1.301   .     A
N661   O662    1.301   .     A
N664   O666    1.301   .     A
N664   O665    1.301   .     A
N667   O668    1.301   .     A
N667   O669    1.301   .     A
N670   O671    1.301   .     A
N670   O672    1.301   .     A
N673   O674    1.301   .     A
N673   O675    1.301   .     A
N676   O677    1.301   .     A
N676   O678    1.301   .     A
N679   O680    1.301   .     A
N679   O681    1.301   .     A
N682   O684    1.301   .     A
N682   O683    1.301   .     A
N685   O686    1.301   .     A
N685   O687    1.301   .     A
N688   O690    1.301   .     A
N688   O689    1.301   .     A
N691   O693    1.301   .     A
N691   O692    1.301   .     A
N694   O695    1.301   .     A
N694   O696    1.301   .     A
N697   O698    1.301   .     A
N697   O699    1.301   .     A
N700   O702    1.301   .     A
N700   O701    1.301   .     A
N703   O704    1.300   .     A
N703   O705    1.301   .     A
N706   O708    1.301   .     A
N706   O707    1.301   .     A
N709   O710    1.301   .     A
N709   O711    1.301   .     A
N712   O713    1.301   .     A
N712   O714    1.301   .     A
N715   O717    1.301   .     A
N715   O716    1.301   .     A
N718   O720    1.301   .     A
N718   O719    1.301   .     A
N721   O722    1.301   .     A
N721   O723    1.301   .     A
N724   O725    1.301   .     A
N724   O726    1.301   .     A
N727   O729    1.301   .     A
N727   O728    1.301   .     A
N730   O731    1.301   .     A
N730   O732    1.301   .     A
N733   O734    1.301   .     A
N733   O735    1.301   .     A
N736   O738    1.301   .     A
N736   O737    1.301   .     A
N739   O741    1.301   .     A
N739   O740    1.301   .     A
N742   O744    1.301   .     A
N742   O743    1.301   .     A
N745   O747    1.301   .     A
N745   O350    1.301   1_655 S
N748   O749    1.301   .     A
N748   O750    1.301   .     A
N751   O753    1.301   .     A
N751   O1544   1.301   .     S
O752   N1543   1.301   1_545 S
N754   O756    1.300   .     A
N754   O755    1.300   .     A
N757   O759    1.301   .     A
O758   N361    1.301   1_655 S
N760   O761    1.302   .     A
N760   O762    1.301   .     A
N763   O765    1.301   .     A
N763   O1556   1.301   1_545 S
O764   N1555   1.301   .     S
N766   O767    1.301   .     A
N766   O768    1.301   .     A
N769   O771    1.301   .     A
N769   O770    1.301   .     A
N772   O774    1.301   .     A
N772   O773    1.301   .     A
N775   O776    1.301   .     A
N775   O777    1.301   .     A
N778   O779    1.301   .     A
N778   O780    1.301   .     A
N781   O783    1.301   .     A
N781   O782    1.301   .     A
N784   O785    1.301   .     A
N784   O786    1.301   .     A
N787   O789    1.301   .     A
N787   O788    1.301   .     A
N790   O791    1.301   .     A
N790   O792    1.301   .     A
Zn793  O879    1.936   .     S
Zn793  O848    1.950   .     S
Zn793  O833    1.948   .     S
Zn794  O875    1.937   .     S
Zn794  O834    1.948   .     S
Zn794  O847    1.950   .     S
Zn795  O1273   1.936   1_455 S
Zn795  O835    1.949   .     S
Zn795  O850    1.950   .     S
Zn795  O870    1.936   .     S
Zn796  O878    1.936   .     S
Zn796  O836    1.949   .     S
Zn796  O849    1.950   .     S
Zn796  O1265   1.936   1_455 S
Zn797  O852    1.950   .     S
Zn797  O872    1.937   .     S
Zn797  O833    1.947   .     S
Zn798  O884    1.936   .     S
Zn798  O834    1.947   .     S
Zn798  O851    1.950   .     S
Zn799  O1270   1.935   1_455 S
Zn799  O835    1.949   .     S
Zn799  O846    1.950   .     S
Zn799  O881    1.936   .     S
Zn800  O873    1.935   .     S
Zn800  O836    1.949   .     S
Zn800  O845    1.950   .     S
Zn800  O1278   1.936   1_455 S
Zn801  O840    1.950   .     S
Zn801  O863    1.936   .     S
Zn801  O860    1.937   .     S
Zn801  O1232   1.948   .     S
Zn802  O839    1.950   .     S
Zn802  O864    1.936   .     S
Zn802  O859    1.937   .     S
Zn802  O835    1.948   .     S
Zn803  O854    1.936   .     S
Zn803  O42     1.949   1_565 S
Zn803  O861    1.936   .     S
Zn803  O842    1.950   .     S
Zn804  O841    1.950   .     S
Zn804  O862    1.936   .     S
Zn804  O853    1.936   .     S
Zn804  O833    1.949   .     S
Zn805  O867    1.936   .     S
Zn805  O836    1.947   .     S
Zn805  O844    1.950   .     S
Zn805  O856    1.937   .     S
Zn806  O868    1.936   .     S
Zn806  O843    1.950   .     S
Zn806  O855    1.937   .     S
Zn806  O1231   1.947   .     S
Zn807  O858    1.935   .     S
Zn807  O865    1.936   .     S
Zn807  O838    1.950   .     S
Zn807  O834    1.949   .     S
Zn808  O837    1.950   .     S
Zn808  O857    1.935   .     S
Zn808  O866    1.936   .     S
Zn808  O41     1.949   1_565 S
C809   C825    1.399   .     A
C809   N1141   1.436   .     S
C809   C1357   1.415   .     S
C810   N1144   1.436   .     S
C810   C962    1.414   .     A
C810   C826    1.401   .     A
C811   N1147   1.436   .     S
C811   C35     1.399   1_565 S
C811   C171    1.415   1_565 S
C812   N1150   1.432   .     S
C812   C964    1.414   .     A
C812   C36     1.399   1_565 S
C813   N1153   1.436   .     S
C813   C1221   1.399   1_455 S
C813   C1353   1.415   1_455 S
C814   C958    1.415   .     A
C814   N1156   1.436   .     S
C814   C1222   1.401   1_455 S
C815   N1159   1.436   .     S
C815   C827    1.398   .     A
C816   C828    1.400   .     A
C816   N1162   1.437   .     S
C816   C960    1.415   .     A
C817   N1165   1.437   .     S
C817   C969    1.415   .     A
C818   C830    1.403   .     A
C818   N1168   1.438   .     S
C818   C970    1.414   .     A
C819   N1171   1.437   .     S
C819   C971    1.415   .     A
C819   C1227   1.403   .     S
C820   C832    1.403   .     A
C820   C972    1.415   .     A
C820   N1174   1.438   .     S
C821   C829    1.403   .     A
C821   N1177   1.437   .     S
C821   C965    1.415   .     A
C822   N1180   1.438   .     S
C822   C966    1.414   .     A
C823   N1183   1.437   .     S
C823   C967    1.415   .     A
C823   C831    1.403   .     A
C824   N1186   1.438   .     S
C824   C968    1.414   .     A
C824   C1228   1.403   .     S
C825   C903    1.455   .     S
C825   C1209   1.399   .     S
C826   C1300   1.457   .     S
C826   C1210   1.401   .     S
C827   C901    1.454   .     S
C828   C902    1.459   .     S
C829   C115    1.457   1_565 S
C829   C25     1.403   1_565 S
C830   C30     1.403   1_565 S
C830   C116    1.457   1_565 S
C831   C905    1.457   .     S
C831   C1215   1.403   1_455 S
C832   C906    1.457   .     S
C832   C1220   1.403   1_455 S
O835   Zn1202  1.947   1_455 S
O836   Zn1197  1.948   1_455 S
O837   C109    1.277   1_565 S
O838   C902    1.278   .     A
O839   C1299   1.276   1_455 S
O840   C1300   1.277   .     A
O841   C901    1.277   .     A
O842   C110    1.279   1_565 S
O843   C903    1.276   .     A
O844   C904    1.278   .     S
O845   C905    1.278   .     S
O846   C906    1.278   .     A
O847   C907    1.277   .     A
O848   C908    1.277   .     A
O849   C905    1.278   .     A
O850   C906    1.278   .     A
O851   C907    1.277   .     A
O852   C908    1.277   .     A
O853   C909    1.277   .     A
O854   C910    1.284   .     A
O855   C911    1.277   .     A
O856   C912    1.281   .     A
O857   C913    1.277   .     A
O858   C914    1.280   .     A
O859   C915    1.277   .     A
O860   C916    1.281   .     A
O861   C917    1.279   .     A
O862   C918    1.283   .     A
O863   C919    1.277   .     A
O864   C920    1.284   .     A
O865   C921    1.280   .     A
O866   C922    1.284   .     A
O867   C923    1.279   .     A
O868   C924    1.283   .     A
O869   C919    1.282   .     A
O869   Zn1192  1.936   .     S
O870   C920    1.277   .     A
O871   C917    1.279   .     A
O871   Zn6     1.937   1_565 S
O872   C918    1.277   .     A
O873   C923    1.279   .     A
O874   C924    1.277   .     A
O874   Zn1195  1.935   .     S
O875   C921    1.279   .     A
O876   C922    1.277   .     A
O876   Zn1     1.937   1_565 S
O877   Zn1191  1.936   .     S
O877   C911    1.283   .     A
O878   C912    1.281   .     A
O879   C909    1.283   .     A
O880   C910    1.278   .     A
O880   Zn2     1.936   1_565 S
O881   C915    1.283   .     A
O882   C916    1.281   .     A
O882   Zn1196  1.936   .     S
O883   C913    1.283   .     A
O883   Zn5     1.936   1_565 S
O884   C914    1.281   .     A
C885   N997    1.436   .     S
C885   C957    1.418   .     A
C885   C890    1.401   .     A
C886   N1000   1.436   .     S
C886   C889    1.402   .     A
C886   C958    1.417   .     A
C887   C959    1.417   .     A
C887   N1003   1.436   .     S
C887   C892    1.400   .     A
C888   C891    1.402   .     A
C888   N1006   1.436   .     S
C888   C960    1.417   .     A
C889   N1009   1.436   .     S
C889   C961    1.418   .     A
C890   N1012   1.436   .     S
C890   C962    1.417   .     A
C891   N1015   1.435   .     S
C891   C963    1.418   .     A
C892   C964    1.418   .     A
C892   N1018   1.435   .     S
C893   C965    1.418   .     A
C893   N1021   1.436   .     S
C893   C898    1.404   1_556 S
C894   N1024   1.436   .     S
C894   C966    1.417   .     A
C894   C897    1.404   1_554 S
C895   N1027   1.436   .     S
C895   C967    1.418   .     A
C895   C900    1.404   1_556 S
C896   N1030   1.436   .     S
C896   C968    1.417   .     A
C896   C899    1.404   1_554 S
C897   N1033   1.436   .     S
C897   C969    1.418   .     A
C897   C894    1.404   1_556 S
C898   N1036   1.436   .     S
C898   C970    1.417   .     A
C898   C893    1.404   1_554 S
C899   C971    1.418   .     A
C899   N1039   1.436   .     S
C899   C896    1.404   1_556 S
C900   N1042   1.436   .     S
C900   C972    1.417   .     A
C900   C895    1.404   1_554 S
C903   O1235   1.276   .     S
C904   C1222   1.457   1_455 S
C904   O1236   1.277   1_455 A
C909   C975    1.455   .     S
C910   C976    1.458   .     S
C911   C977    1.455   .     S
C912   C978    1.458   .     S
C913   C979    1.455   .     S
C914   C980    1.457   .     S
C915   C973    1.455   .     S
C916   C974    1.457   .     S
C917   C983    1.454   .     S
C918   C984    1.456   .     S
C919   C985    1.453   .     S
C920   C986    1.456   .     S
C921   C987    1.454   .     S
C922   C988    1.457   .     S
C923   C981    1.453   .     S
C924   C982    1.456   .     S
C925   N1045   1.433   .     S
C925   C988    1.408   .     A
C925   C940    1.400   .     A
C926   C939    1.399   .     A
C926   C987    1.410   .     A
C926   N1048   1.438   .     S
C927   C938    1.400   .     A
C927   N1051   1.433   .     S
C927   C986    1.408   .     A
C928   N1054   1.438   .     S
C928   C937    1.400   .     A
C928   C985    1.409   .     A
C929   C936    1.400   .     A
C929   C984    1.408   .     A
C929   N1057   1.433   .     S
C930   C935    1.399   .     A
C930   C983    1.410   .     A
C930   N1060   1.438   .     S
C931   C934    1.400   .     A
C931   C982    1.408   .     A
C931   N1063   1.433   .     S
C932   C933    1.399   .     A
C932   C981    1.410   .     A
C932   N1066   1.438   .     S
C933   C980    1.407   .     A
C933   N1069   1.432   .     S
C934   C979    1.408   .     A
C934   N1072   1.438   .     S
C935   N1075   1.432   .     S
C935   C978    1.408   .     A
C936   C977    1.408   .     A
C936   N1078   1.438   .     S
C937   C976    1.409   .     A
C937   N1081   1.432   .     S
C938   C975    1.408   .     A
C938   N1084   1.438   .     S
C939   N1087   1.432   .     S
C939   C974    1.408   .     A
C940   N1090   1.438   .     S
C940   C973    1.408   .     A
C941   N1093   1.431   .     S
C941   C974    1.407   .     A
C941   C956    1.398   .     A
C942   C955    1.400   .     A
C942   C973    1.409   .     A
C942   N1096   1.434   .     S
C943   C976    1.407   .     A
C943   C954    1.397   .     A
C943   N1099   1.433   .     S
C944   N1102   1.434   .     S
C944   C953    1.400   .     A
C944   C975    1.409   .     A
C945   C952    1.398   .     A
C945   C978    1.408   .     A
C945   N1105   1.431   .     S
C946   C951    1.400   .     A
C946   N1108   1.434   .     S
C946   C977    1.409   .     A
C947   C950    1.399   .     A
C947   N1111   1.432   .     S
C947   C980    1.408   .     A
C948   C979    1.409   .     A
C948   C949    1.400   .     A
C948   N1114   1.434   .     S
C949   C982    1.408   .     A
C949   N1117   1.437   .     S
C950   N1120   1.439   .     S
C950   C981    1.409   .     A
C951   C984    1.408   .     A
C951   N1123   1.437   .     S
C952   N1126   1.438   .     S
C952   C983    1.409   .     A
C953   N1129   1.437   .     S
C953   C986    1.408   .     A
C954   N1132   1.434   .     S
C954   C985    1.406   .     A
C955   N1135   1.437   .     S
C955   C988    1.408   .     A
C956   C987    1.409   .     A
C956   N1138   1.437   .     S
C957   C989    1.423   .     A
C957   C1209   1.415   .     S
C958   C1386   1.421   1_455 S
C959   C23     1.414   1_565 S
C959   C199    1.423   1_565 S
C960   C992    1.422   .     A
C961   C1205   1.415   1_455 S
C961   C1385   1.422   1_455 S
C962   C990    1.421   .     A
C963   C991    1.423   .     A
C964   C200    1.421   1_565 S
C965   C993    1.420   .     A
C967   C995    1.420   .     A
C968   C1392   1.419   .     S
C970   C994    1.419   .     A
C971   C1391   1.420   .     S
C972   C996    1.419   .     A
C989   C990    1.415   .     A
C989   C1357   1.422   .     S
C990   C1354   1.421   .     S
C991   C992    1.415   .     A
C993   C177    1.420   1_565 S
C993   C994    1.412   1_556 S
C994   C174    1.419   1_565 S
C994   C993    1.412   1_554 S
C995   C1367   1.420   1_455 S
C995   C996    1.412   1_556 S
C996   C1364   1.419   1_455 S
C996   C995    1.412   1_554 S
N997   O998    1.301   .     A
N997   O1395   1.301   .     S
O999   N1393   1.301   1_455 S
N1000  O1002   1.302   .     A
N1000  O1397   1.301   1_455 S
O1001  N1396   1.301   .     S
N1003  O1004   1.301   .     A
N1003  O213    1.302   1_565 S
N1006  O1008   1.302   .     A
O1007  N214    1.301   1_565 S
N1009  O1010   1.301   .     A
N1009  O1407   1.301   1_455 S
O1011  N1405   1.301   .     S
N1012  O1014   1.302   .     A
N1012  O1409   1.301   .     S
O1013  N1408   1.301   1_455 S
N1015  O1016   1.301   .     A
O1017  N223    1.302   1_565 S
N1018  O1020   1.302   .     A
N1018  O227    1.301   1_565 S
N1021  O1022   1.301   .     A
N1021  O1023   1.301   .     A
N1024  O1026   1.301   .     A
N1024  O1025   1.301   .     A
N1027  O1028   1.301   .     A
N1027  O1029   1.301   .     A
N1030  O1031   1.301   .     A
N1030  O1032   1.301   .     A
N1033  O1035   1.301   .     A
N1033  O1034   1.301   .     A
N1036  O1037   1.301   .     A
N1036  O1038   1.301   .     A
N1039  O1041   1.301   .     A
N1039  O1040   1.301   .     A
N1042  O1044   1.301   .     A
N1042  O1043   1.301   .     A
N1045  O1046   1.301   .     A
N1045  O1047   1.301   .     A
N1048  O1050   1.301   .     A
N1048  O1049   1.301   .     A
N1051  O1053   1.301   .     A
N1051  O1052   1.301   .     A
N1054  O1055   1.301   .     A
N1054  O1056   1.301   .     A
N1057  O1059   1.301   .     A
N1057  O1058   1.301   .     A
N1060  O1062   1.301   .     A
N1060  O1061   1.301   .     A
N1063  O1064   1.301   .     A
N1063  O1065   1.301   .     A
N1066  O1067   1.301   .     A
N1066  O1068   1.301   .     A
N1069  O1070   1.301   .     A
N1069  O1071   1.301   .     A
N1072  O1073   1.301   .     A
N1072  O1074   1.301   .     A
N1075  O1076   1.301   .     A
N1075  O1077   1.301   .     A
N1078  O1080   1.301   .     A
N1078  O1079   1.301   .     A
N1081  O1082   1.301   .     A
N1081  O1083   1.301   .     A
N1084  O1086   1.301   .     A
N1084  O1085   1.301   .     A
N1087  O1089   1.301   .     A
N1087  O1088   1.301   .     A
N1090  O1091   1.301   .     A
N1090  O1092   1.301   .     A
N1093  O1094   1.301   .     A
N1093  O1095   1.301   .     A
N1096  O1098   1.301   .     A
N1096  O1097   1.301   .     A
N1099  O1100   1.300   .     A
N1099  O1101   1.301   .     A
N1102  O1104   1.301   .     A
N1102  O1103   1.301   .     A
N1105  O1106   1.301   .     A
N1105  O1107   1.301   .     A
N1108  O1109   1.301   .     A
N1108  O1110   1.301   .     A
N1111  O1113   1.301   .     A
N1111  O1112   1.301   .     A
N1114  O1116   1.301   .     A
N1114  O1115   1.301   .     A
N1117  O1118   1.301   .     A
N1117  O1119   1.301   .     A
N1120  O1121   1.301   .     A
N1120  O1122   1.301   .     A
N1123  O1125   1.301   .     A
N1123  O1124   1.301   .     A
N1126  O1127   1.301   .     A
N1126  O1128   1.301   .     A
N1129  O1130   1.301   .     A
N1129  O1131   1.301   .     A
N1132  O1134   1.301   .     A
N1132  O1133   1.301   .     A
N1135  O1137   1.301   .     A
N1135  O1136   1.301   .     A
N1138  O1140   1.301   .     A
N1138  O1139   1.301   .     A
N1141  O1143   1.301   .     A
N1141  O1538   1.301   .     S
O1142  N1537   1.301   1_455 S
N1144  O1145   1.301   .     A
N1144  O1146   1.301   .     A
N1147  O1149   1.301   .     A
N1147  O356    1.301   1_565 S
N1150  O1152   1.300   .     A
N1150  O1151   1.300   .     A
N1153  O1155   1.301   .     A
N1153  O1550   1.301   1_455 S
O1154  N1549   1.301   .     S
N1156  O1157   1.302   .     A
N1156  O1158   1.301   .     A
N1159  O1161   1.301   .     A
O1160  N367    1.301   1_565 S
N1162  O1163   1.301   .     A
N1162  O1164   1.301   .     A
N1165  O1167   1.301   .     A
N1165  O1166   1.301   .     A
N1168  O1170   1.301   .     A
N1168  O1169   1.301   .     A
N1171  O1172   1.301   .     A
N1171  O1173   1.301   .     A
N1174  O1175   1.301   .     A
N1174  O1176   1.301   .     A
N1177  O1179   1.301   .     A
N1177  O1178   1.301   .     A
N1180  O1181   1.301   .     A
N1180  O1182   1.301   .     A
N1183  O1185   1.301   .     A
N1183  O1184   1.301   .     A
N1186  O1187   1.301   .     A
N1186  O1188   1.301   .     A
Zn1189 O1275   1.936   .     S
Zn1189 O1244   1.950   .     S
Zn1189 O1229   1.948   .     S
Zn1190 O1271   1.937   .     S
Zn1190 O1230   1.948   .     S
Zn1190 O1243   1.950   .     S
Zn1191 O1231   1.949   .     S
Zn1191 O1246   1.950   .     S
Zn1191 O1266   1.936   .     S
Zn1192 O1274   1.936   .     S
Zn1192 O1232   1.949   .     S
Zn1192 O1245   1.950   .     S
Zn1193 O1248   1.950   .     S
Zn1193 O1268   1.937   .     S
Zn1193 O1229   1.947   .     S
Zn1194 O1280   1.936   .     S
Zn1194 O1230   1.947   .     S
Zn1194 O1247   1.950   .     S
Zn1195 O1231   1.949   .     S
Zn1195 O1242   1.950   .     S
Zn1195 O1277   1.936   .     S
Zn1196 O1269   1.935   .     S
Zn1196 O1232   1.949   .     S
Zn1196 O1241   1.950   .     S
Zn1197 O1236   1.950   .     S
Zn1197 O1259   1.936   .     S
Zn1197 O1256   1.937   .     S
Zn1197 O836    1.948   1_655 S
Zn1198 O1235   1.950   .     S
Zn1198 O1260   1.936   .     S
Zn1198 O1255   1.937   .     S
Zn1198 O1231   1.948   .     S
Zn1199 O1250   1.936   .     S
Zn1199 O438    1.949   1_565 S
Zn1199 O1257   1.936   .     S
Zn1199 O1238   1.950   .     S
Zn1200 O1237   1.950   .     S
Zn1200 O1258   1.936   .     S
Zn1200 O1249   1.936   .     S
Zn1200 O1229   1.949   .     S
Zn1201 O1263   1.936   .     S
Zn1201 O1232   1.947   .     S
Zn1201 O1240   1.950   .     S
Zn1201 O1252   1.937   .     S
Zn1202 O1264   1.936   .     S
Zn1202 O1239   1.950   .     S
Zn1202 O1251   1.937   .     S
Zn1202 O835    1.947   1_655 S
Zn1203 O1254   1.935   .     S
Zn1203 O1261   1.936   .     S
Zn1203 O1234   1.950   .     S
Zn1203 O1230   1.949   .     S
Zn1204 O1233   1.950   .     S
Zn1204 O1253   1.935   .     S
Zn1204 O1262   1.936   .     S
Zn1204 O437    1.949   1_565 S
C1205  C1221   1.399   .     A
C1205  N1537   1.436   .     S
C1205  C961    1.415   1_655 S
C1206  N1540   1.436   .     S
C1206  C1358   1.414   .     A
C1206  C1222   1.401   .     A
C1207  N1543   1.436   .     S
C1207  C431    1.399   1_565 S
C1207  C567    1.415   1_565 S
C1208  N1546   1.432   .     S
C1208  C1360   1.414   .     A
C1208  C432    1.399   1_565 S
C1209  N1549   1.436   .     S
C1210  C1354   1.415   .     A
C1210  N1552   1.436   .     S
C1211  N1555   1.436   .     S
C1211  C1223   1.398   .     A
C1212  C1224   1.400   .     A
C1212  N1558   1.437   .     S
C1212  C1356   1.415   .     A
C1213  N1561   1.437   .     S
C1213  C1365   1.415   .     A
C1214  C1226   1.403   .     A
C1214  N1564   1.438   .     S
C1214  C1366   1.414   .     A
C1215  N1567   1.437   .     S
C1215  C1367   1.415   .     A
C1215  C831    1.403   1_655 S
C1216  C1228   1.403   .     A
C1216  C1368   1.415   .     A
C1216  N1570   1.438   .     S
C1217  C1225   1.403   .     A
C1217  N1573   1.437   .     S
C1217  C1361   1.415   .     A
C1218  N1576   1.438   .     S
C1218  C1362   1.414   .     A
C1219  N1579   1.437   .     S
C1219  C1363   1.415   .     A
C1219  C1227   1.403   .     A
C1220  N1582   1.438   .     S
C1220  C1364   1.414   .     A
C1220  C832    1.403   1_655 S
C1221  C1299   1.455   .     S
C1221  C813    1.399   1_655 S
C1222  C904    1.457   1_655 S
C1222  C814    1.401   1_655 S
C1223  C1297   1.454   .     S
C1224  C1298   1.459   .     S
C1225  C511    1.457   1_565 S
C1225  C421    1.403   1_565 S
C1226  C426    1.403   1_565 S
C1226  C512    1.457   1_565 S
C1227  C1301   1.457   .     S
C1228  C1302   1.457   .     S
O1233  C505    1.277   1_565 S
O1234  C1298   1.278   .     A
O1236  C904    1.277   1_655 A
O1237  C1297   1.277   .     A
O1238  C506    1.279   1_565 S
O1239  C1299   1.276   .     A
O1240  C1300   1.278   .     S
O1241  C1301   1.278   .     S
O1242  C1302   1.278   .     A
O1243  C1303   1.277   .     A
O1244  C1304   1.277   .     A
O1245  C1301   1.278   .     A
O1246  C1302   1.278   .     A
O1247  C1303   1.277   .     A
O1248  C1304   1.277   .     A
O1249  C1305   1.277   .     A
O1250  C1306   1.284   .     A
O1251  C1307   1.277   .     A
O1252  C1308   1.281   .     A
O1253  C1309   1.277   .     A
O1254  C1310   1.280   .     A
O1255  C1311   1.277   .     A
O1256  C1312   1.281   .     A
O1257  C1313   1.279   .     A
O1258  C1314   1.283   .     A
O1259  C1315   1.277   .     A
O1260  C1316   1.284   .     A
O1261  C1317   1.280   .     A
O1262  C1318   1.284   .     A
O1263  C1319   1.279   .     A
O1264  C1320   1.283   .     A
O1265  C1315   1.282   .     A
O1265  Zn796   1.936   1_655 S
O1266  C1316   1.277   .     A
O1267  C1313   1.279   .     A
O1267  Zn402   1.937   1_565 S
O1268  C1314   1.277   .     A
O1269  C1319   1.279   .     A
O1270  C1320   1.277   .     A
O1270  Zn799   1.935   1_655 S
O1271  C1317   1.279   .     A
O1272  C1318   1.277   .     A
O1272  Zn397   1.937   1_565 S
O1273  Zn795   1.936   1_655 S
O1273  C1307   1.283   .     A
O1274  C1308   1.281   .     A
O1275  C1305   1.283   .     A
O1276  C1306   1.278   .     A
O1276  Zn398   1.936   1_565 S
O1277  C1311   1.283   .     A
O1278  C1312   1.281   .     A
O1278  Zn800   1.936   1_655 S
O1279  C1309   1.283   .     A
O1279  Zn401   1.936   1_565 S
O1280  C1310   1.281   .     A
C1281  N1393   1.436   .     S
C1281  C1353   1.418   .     A
C1281  C1286   1.401   .     A
C1282  N1396   1.436   .     S
C1282  C1285   1.402   .     A
C1282  C1354   1.417   .     A
C1283  C1355   1.417   .     A
C1283  N1399   1.436   .     S
C1283  C1288   1.400   .     A
C1284  C1287   1.402   .     A
C1284  N1402   1.436   .     S
C1284  C1356   1.417   .     A
C1285  N1405   1.436   .     S
C1285  C1357   1.418   .     A
C1286  N1408   1.436   .     S
C1286  C1358   1.417   .     A
C1287  N1411   1.435   .     S
C1287  C1359   1.418   .     A
C1288  C1360   1.418   .     A
C1288  N1414   1.435   .     S
C1289  C1361   1.418   .     A
C1289  N1417   1.436   .     S
C1289  C1294   1.404   1_556 S
C1290  N1420   1.436   .     S
C1290  C1362   1.417   .     A
C1290  C1293   1.404   1_554 S
C1291  N1423   1.436   .     S
C1291  C1363   1.418   .     A
C1291  C1296   1.404   1_556 S
C1292  N1426   1.436   .     S
C1292  C1364   1.417   .     A
C1292  C1295   1.404   1_554 S
C1293  N1429   1.436   .     S
C1293  C1365   1.418   .     A
C1293  C1290   1.404   1_556 S
C1294  N1432   1.436   .     S
C1294  C1366   1.417   .     A
C1294  C1289   1.404   1_554 S
C1295  C1367   1.418   .     A
C1295  N1435   1.436   .     S
C1295  C1292   1.404   1_556 S
C1296  N1438   1.436   .     S
C1296  C1368   1.417   .     A
C1296  C1291   1.404   1_554 S
C1299  O839    1.276   1_655 S
C1305  C1371   1.455   .     S
C1306  C1372   1.458   .     S
C1307  C1373   1.455   .     S
C1308  C1374   1.458   .     S
C1309  C1375   1.455   .     S
C1310  C1376   1.457   .     S
C1311  C1369   1.455   .     S
C1312  C1370   1.457   .     S
C1313  C1379   1.454   .     S
C1314  C1380   1.456   .     S
C1315  C1381   1.453   .     S
C1316  C1382   1.456   .     S
C1317  C1383   1.454   .     S
C1318  C1384   1.457   .     S
C1319  C1377   1.453   .     S
C1320  C1378   1.456   .     S
C1321  N1441   1.433   .     S
C1321  C1384   1.408   .     A
C1321  C1336   1.400   .     A
C1322  C1335   1.399   .     A
C1322  C1383   1.410   .     A
C1322  N1444   1.438   .     S
C1323  C1334   1.400   .     A
C1323  N1447   1.433   .     S
C1323  C1382   1.408   .     A
C1324  N1450   1.438   .     S
C1324  C1333   1.400   .     A
C1324  C1381   1.409   .     A
C1325  C1332   1.400   .     A
C1325  C1380   1.408   .     A
C1325  N1453   1.433   .     S
C1326  C1331   1.399   .     A
C1326  C1379   1.410   .     A
C1326  N1456   1.438   .     S
C1327  C1330   1.400   .     A
C1327  C1378   1.408   .     A
C1327  N1459   1.433   .     S
C1328  C1329   1.399   .     A
C1328  C1377   1.410   .     A
C1328  N1462   1.438   .     S
C1329  C1376   1.407   .     A
C1329  N1465   1.432   .     S
C1330  C1375   1.408   .     A
C1330  N1468   1.438   .     S
C1331  N1471   1.432   .     S
C1331  C1374   1.408   .     A
C1332  C1373   1.408   .     A
C1332  N1474   1.438   .     S
C1333  C1372   1.409   .     A
C1333  N1477   1.432   .     S
C1334  C1371   1.408   .     A
C1334  N1480   1.438   .     S
C1335  N1483   1.432   .     S
C1335  C1370   1.408   .     A
C1336  N1486   1.438   .     S
C1336  C1369   1.408   .     A
C1337  N1489   1.431   .     S
C1337  C1370   1.407   .     A
C1337  C1352   1.398   .     A
C1338  C1351   1.400   .     A
C1338  C1369   1.409   .     A
C1338  N1492   1.434   .     S
C1339  C1372   1.407   .     A
C1339  C1350   1.397   .     A
C1339  N1495   1.433   .     S
C1340  N1498   1.434   .     S
C1340  C1349   1.400   .     A
C1340  C1371   1.409   .     A
C1341  C1348   1.398   .     A
C1341  C1374   1.408   .     A
C1341  N1501   1.431   .     S
C1342  C1347   1.400   .     A
C1342  N1504   1.434   .     S
C1342  C1373   1.409   .     A
C1343  C1346   1.399   .     A
C1343  N1507   1.432   .     S
C1343  C1376   1.408   .     A
C1344  C1375   1.409   .     A
C1344  C1345   1.400   .     A
C1344  N1510   1.434   .     S
C1345  C1378   1.408   .     A
C1345  N1513   1.437   .     S
C1346  N1516   1.439   .     S
C1346  C1377   1.409   .     A
C1347  C1380   1.408   .     A
C1347  N1519   1.437   .     S
C1348  N1522   1.438   .     S
C1348  C1379   1.409   .     A
C1349  N1525   1.437   .     S
C1349  C1382   1.408   .     A
C1350  N1528   1.434   .     S
C1350  C1381   1.406   .     A
C1351  N1531   1.437   .     S
C1351  C1384   1.408   .     A
C1352  C1383   1.409   .     A
C1352  N1534   1.437   .     S
C1353  C1385   1.423   .     A
C1353  C813    1.415   1_655 S
C1355  C419    1.414   1_565 S
C1355  C595    1.423   1_565 S
C1356  C1388   1.422   .     A
C1358  C1386   1.421   .     A
C1359  C1387   1.423   .     A
C1360  C596    1.421   1_565 S
C1361  C1389   1.420   .     A
C1363  C1391   1.420   .     A
C1364  C996    1.419   1_655 S
C1366  C1390   1.419   .     A
C1367  C995    1.420   1_655 S
C1368  C1392   1.419   .     A
C1385  C1386   1.415   .     A
C1385  C961    1.422   1_655 S
C1386  C958    1.421   1_655 S
C1387  C1388   1.415   .     A
C1389  C573    1.420   1_565 S
C1389  C1390   1.412   1_556 S
C1390  C570    1.419   1_565 S
C1390  C1389   1.412   1_554 S
C1391  C1392   1.412   1_556 S
C1392  C1391   1.412   1_554 S
N1393  O1394   1.301   .     A
N1393  O999    1.301   1_655 S
N1396  O1398   1.302   .     A
O1397  N1000   1.301   1_655 S
N1399  O1400   1.301   .     A
N1399  O609    1.302   1_565 S
N1402  O1404   1.302   .     A
O1403  N610    1.301   1_565 S
N1405  O1406   1.301   .     A
O1407  N1009   1.301   1_655 S
N1408  O1410   1.302   .     A
N1408  O1013   1.301   1_655 S
N1411  O1412   1.301   .     A
O1413  N619    1.302   1_565 S
N1414  O1416   1.302   .     A
N1414  O623    1.301   1_565 S
N1417  O1418   1.301   .     A
N1417  O1419   1.301   .     A
N1420  O1422   1.301   .     A
N1420  O1421   1.301   .     A
N1423  O1424   1.301   .     A
N1423  O1425   1.301   .     A
N1426  O1427   1.301   .     A
N1426  O1428   1.301   .     A
N1429  O1431   1.301   .     A
N1429  O1430   1.301   .     A
N1432  O1433   1.301   .     A
N1432  O1434   1.301   .     A
N1435  O1437   1.301   .     A
N1435  O1436   1.301   .     A
N1438  O1440   1.301   .     A
N1438  O1439   1.301   .     A
N1441  O1442   1.301   .     A
N1441  O1443   1.301   .     A
N1444  O1446   1.301   .     A
N1444  O1445   1.301   .     A
N1447  O1449   1.301   .     A
N1447  O1448   1.301   .     A
N1450  O1451   1.301   .     A
N1450  O1452   1.301   .     A
N1453  O1455   1.301   .     A
N1453  O1454   1.301   .     A
N1456  O1458   1.301   .     A
N1456  O1457   1.301   .     A
N1459  O1460   1.301   .     A
N1459  O1461   1.301   .     A
N1462  O1463   1.301   .     A
N1462  O1464   1.301   .     A
N1465  O1466   1.301   .     A
N1465  O1467   1.301   .     A
N1468  O1469   1.301   .     A
N1468  O1470   1.301   .     A
N1471  O1472   1.301   .     A
N1471  O1473   1.301   .     A
N1474  O1476   1.301   .     A
N1474  O1475   1.301   .     A
N1477  O1478   1.301   .     A
N1477  O1479   1.301   .     A
N1480  O1482   1.301   .     A
N1480  O1481   1.301   .     A
N1483  O1485   1.301   .     A
N1483  O1484   1.301   .     A
N1486  O1487   1.301   .     A
N1486  O1488   1.301   .     A
N1489  O1490   1.301   .     A
N1489  O1491   1.301   .     A
N1492  O1494   1.301   .     A
N1492  O1493   1.301   .     A
N1495  O1496   1.300   .     A
N1495  O1497   1.301   .     A
N1498  O1500   1.301   .     A
N1498  O1499   1.301   .     A
N1501  O1502   1.301   .     A
N1501  O1503   1.301   .     A
N1504  O1505   1.301   .     A
N1504  O1506   1.301   .     A
N1507  O1509   1.301   .     A
N1507  O1508   1.301   .     A
N1510  O1512   1.301   .     A
N1510  O1511   1.301   .     A
N1513  O1514   1.301   .     A
N1513  O1515   1.301   .     A
N1516  O1517   1.301   .     A
N1516  O1518   1.301   .     A
N1519  O1521   1.301   .     A
N1519  O1520   1.301   .     A
N1522  O1523   1.301   .     A
N1522  O1524   1.301   .     A
N1525  O1526   1.301   .     A
N1525  O1527   1.301   .     A
N1528  O1530   1.301   .     A
N1528  O1529   1.301   .     A
N1531  O1533   1.301   .     A
N1531  O1532   1.301   .     A
N1534  O1536   1.301   .     A
N1534  O1535   1.301   .     A
N1537  O1539   1.301   .     A
N1537  O1142   1.301   1_655 S
N1540  O1541   1.301   .     A
N1540  O1542   1.301   .     A
N1543  O1545   1.301   .     A
N1543  O752    1.301   1_565 S
N1546  O1548   1.300   .     A
N1546  O1547   1.300   .     A
N1549  O1551   1.301   .     A
O1550  N1153   1.301   1_655 S
N1552  O1553   1.302   .     A
N1552  O1554   1.301   .     A
N1555  O1557   1.301   .     A
O1556  N763    1.301   1_565 S
N1558  O1559   1.301   .     A
N1558  O1560   1.301   .     A
N1561  O1563   1.301   .     A
N1561  O1562   1.301   .     A
N1564  O1566   1.301   .     A
N1564  O1565   1.301   .     A
N1567  O1568   1.301   .     A
N1567  O1569   1.301   .     A
N1570  O1571   1.301   .     A
N1570  O1572   1.301   .     A
N1573  O1575   1.301   .     A
N1573  O1574   1.301   .     A
N1576  O1577   1.301   .     A
N1576  O1578   1.301   .     A
N1579  O1581   1.301   .     A
N1579  O1580   1.301   .     A
N1582  O1583   1.301   .     A
N1582  O1584   1.301   .     A
