data_str_m1_o10_o18_pcu_sym.224
_audit_creation_date              2020-01-03
_audit_creation_method            'Materials Studio'
_symmetry_space_group_name_H-M    'P1'
_symmetry_Int_Tables_number       1
_symmetry_cell_setting            triclinic
loop_
_symmetry_equiv_pos_as_xyz
  x,y,z
_cell_length_a                    32.5491
_cell_length_b                    32.5283
_cell_length_c                    35.6411
_cell_angle_alpha                 98.0360
_cell_angle_beta                  73.1765
_cell_angle_gamma                 98.5715
loop_
_atom_site_label
_atom_site_type_symbol
_atom_site_fract_x
_atom_site_fract_y
_atom_site_fract_z
_atom_site_U_iso_or_equiv
_atom_site_adp_type
_atom_site_occupancy
C1     C     0.05250   0.15987   0.25876   0.00000  Uiso   1.00
C2     C     0.19958   0.12918   0.45901   0.00000  Uiso   1.00
C3     C     0.22414   0.11390   0.47866   0.00000  Uiso   1.00
C4     C     0.28107   0.17355   0.24121   0.00000  Uiso   1.00
C5     C     0.21418   0.11951   0.01967   0.00000  Uiso   1.00
C6     C     0.17602   0.13779   0.04143   0.00000  Uiso   1.00
C7     C     0.24219   0.10830   0.03943   0.00000  Uiso   1.00
C8     C     0.23322   0.11662   0.08022   0.00000  Uiso   1.00
C9     C     0.16950   0.14768   0.08234   0.00000  Uiso   1.00
C10    C     0.32703   0.17618   0.23762   0.00000  Uiso   1.00
C11    C     0.00712   0.15741   0.26218   0.00000  Uiso   1.00
C12    C     0.09239   0.20544   0.42091   0.00000  Uiso   1.00
C13    C     0.18096   0.32217   0.23806   0.00000  Uiso   1.00
C14    C     0.15169   0.01206   0.26213   0.00000  Uiso   1.00
C15    C     0.15599   0.05608   0.25888   0.00000  Uiso   1.00
C16    C     0.17689   0.27767   0.24133   0.00000  Uiso   1.00
C17    C     0.18806   0.14543   0.14400   0.00000  Uiso   1.00
C18    C     0.14524   0.18740   0.35626   0.00000  Uiso   1.00
C19    C     0.13146   0.19048   0.39961   0.00000  Uiso   1.00
C20    C     0.19718   0.13641   0.10146   0.00000  Uiso   1.00
C21    C     0.07652   0.20178   0.46116   0.00000  Uiso   1.00
C22    C     0.15536   0.17363   0.41935   0.00000  Uiso   1.00
C23    C     0.13931   0.16801   0.45976   0.00000  Uiso   1.00
C24    C     0.09915   0.18251   0.48088   0.00000  Uiso   1.00
C25    C     0.16248   0.14896   0.47962   0.00000  Uiso   1.00
C26    C     0.14761   0.14865   0.02123   0.00000  Uiso   1.00
C27    C     0.10467   0.15790   0.04067   0.00000  Uiso   1.00
C28    C     0.08136   0.17619   0.02081   0.00000  Uiso   1.00
H29    H     0.01671   0.19344   0.21490   0.00000  Uiso   1.00
H30    H     0.18657   0.16516   0.40219   0.00000  Uiso   1.00
H31    H     0.21000   0.12381   0.42735   0.00000  Uiso   1.00
H32    H     0.04150   0.20979   0.06512   0.00000  Uiso   1.00
H33    H     0.01860   0.16169   0.05134   0.00000  Uiso   1.00
H34    H     0.05672   0.12200   0.07616   0.00000  Uiso   1.00
H35    H     0.07110   0.16966   0.09812   0.00000  Uiso   1.00
H36    H     0.31811   0.14011   0.28518   0.00000  Uiso   1.00
H37    H     0.20800   0.00282   0.21592   0.00000  Uiso   1.00
H38    H     0.12428   0.33217   0.28435   0.00000  Uiso   1.00
H39    H     0.14478   0.16655   0.09981   0.00000  Uiso   1.00
H40    H     0.25468   0.10811   0.09536   0.00000  Uiso   1.00
H41    H     0.25210   0.09915   0.46105   0.00000  Uiso   1.00
H42    H     0.04580   0.21315   0.47647   0.00000  Uiso   1.00
H43    H     0.07329   0.21860   0.40624   0.00000  Uiso   1.00
I44    I     0.29960   0.08007   0.01044   0.00000  Uiso   1.00
N45    N     0.03912   0.18806   0.04108   0.00000  Uiso   1.00
N46    N     0.08280   0.14415   0.07873   0.00000  Uiso   1.00
O47    O     0.16667   0.16667   0.25000   0.00000  Uiso   1.00
O48    O     0.15693   0.12393   0.16625   0.00000  Uiso   1.00
O49    O     0.12687   0.20646   0.33749   0.00000  Uiso   1.00
O50    O     0.21088   0.17493   0.15877   0.00000  Uiso   1.00
O51    O     0.17198   0.16135   0.33749   0.00000  Uiso   1.00
O52    O     0.17849   0.08101   0.27820   0.00000  Uiso   1.00
O53    O     0.14581   0.26136   0.26767   0.00000  Uiso   1.00
O54    O     0.07452   0.13251   0.23607   0.00000  Uiso   1.00
O55    O     0.26785   0.19179   0.21805   0.00000  Uiso   1.00
O56    O     0.06990   0.18960   0.27820   0.00000  Uiso   1.00
O57    O     0.25440   0.15277   0.26767   0.00000  Uiso   1.00
O58    O     0.13800   0.06903   0.23607   0.00000  Uiso   1.00
O59    O     0.20437   0.25527   0.21805   0.00000  Uiso   1.00
Zn60   Zn    0.19244   0.14090   0.28277   0.00000  Uiso   1.00
Zn61   Zn    0.13459   0.12378   0.22257   0.00000  Uiso   1.00
Zn62   Zn    0.21166   0.19664   0.21188   0.00000  Uiso   1.00
Zn63   Zn    0.12798   0.20535   0.28277   0.00000  Uiso   1.00
C64    C     0.38583   0.15987   0.25876   0.00000  Uiso   1.00
C65    C     0.53291   0.12918   0.45901   0.00000  Uiso   1.00
C66    C     0.55748   0.11390   0.47866   0.00000  Uiso   1.00
C67    C     0.61440   0.17355   0.24121   0.00000  Uiso   1.00
C68    C     0.54751   0.11951   0.01967   0.00000  Uiso   1.00
C69    C     0.50935   0.13779   0.04143   0.00000  Uiso   1.00
C70    C     0.57552   0.10830   0.03943   0.00000  Uiso   1.00
C71    C     0.56655   0.11662   0.08022   0.00000  Uiso   1.00
C72    C     0.50283   0.14768   0.08234   0.00000  Uiso   1.00
C73    C     0.66036   0.17618   0.23762   0.00000  Uiso   1.00
C74    C     0.34046   0.15741   0.26218   0.00000  Uiso   1.00
C75    C     0.42572   0.20544   0.42091   0.00000  Uiso   1.00
C76    C     0.51429   0.32217   0.23806   0.00000  Uiso   1.00
C77    C     0.48502   0.01206   0.26213   0.00000  Uiso   1.00
C78    C     0.48932   0.05608   0.25888   0.00000  Uiso   1.00
C79    C     0.51022   0.27767   0.24133   0.00000  Uiso   1.00
C80    C     0.52139   0.14543   0.14400   0.00000  Uiso   1.00
C81    C     0.47857   0.18740   0.35626   0.00000  Uiso   1.00
C82    C     0.46479   0.19048   0.39961   0.00000  Uiso   1.00
C83    C     0.53052   0.13641   0.10146   0.00000  Uiso   1.00
C84    C     0.40985   0.20178   0.46116   0.00000  Uiso   1.00
C85    C     0.48869   0.17363   0.41935   0.00000  Uiso   1.00
C86    C     0.47264   0.16801   0.45976   0.00000  Uiso   1.00
C87    C     0.43249   0.18251   0.48088   0.00000  Uiso   1.00
C88    C     0.49582   0.14896   0.47962   0.00000  Uiso   1.00
C89    C     0.48095   0.14865   0.02123   0.00000  Uiso   1.00
C90    C     0.43801   0.15790   0.04067   0.00000  Uiso   1.00
C91    C     0.41469   0.17619   0.02081   0.00000  Uiso   1.00
H92    H     0.35004   0.19344   0.21490   0.00000  Uiso   1.00
H93    H     0.51990   0.16516   0.40219   0.00000  Uiso   1.00
H94    H     0.54334   0.12381   0.42735   0.00000  Uiso   1.00
H95    H     0.37484   0.20979   0.06512   0.00000  Uiso   1.00
H96    H     0.35194   0.16169   0.05134   0.00000  Uiso   1.00
H97    H     0.39005   0.12200   0.07616   0.00000  Uiso   1.00
H98    H     0.40443   0.16966   0.09812   0.00000  Uiso   1.00
H99    H     0.65144   0.14011   0.28518   0.00000  Uiso   1.00
H100   H     0.54133   0.00282   0.21592   0.00000  Uiso   1.00
H101   H     0.45761   0.33217   0.28435   0.00000  Uiso   1.00
H102   H     0.47811   0.16655   0.09981   0.00000  Uiso   1.00
H103   H     0.58801   0.10811   0.09536   0.00000  Uiso   1.00
H104   H     0.58544   0.09915   0.46105   0.00000  Uiso   1.00
H105   H     0.37913   0.21315   0.47647   0.00000  Uiso   1.00
H106   H     0.40663   0.21860   0.40624   0.00000  Uiso   1.00
I107   I     0.63294   0.08007   0.01044   0.00000  Uiso   1.00
N108   N     0.37246   0.18806   0.04108   0.00000  Uiso   1.00
N109   N     0.41613   0.14415   0.07873   0.00000  Uiso   1.00
O110   O     0.50000   0.16667   0.25000   0.00000  Uiso   1.00
O111   O     0.49027   0.12393   0.16625   0.00000  Uiso   1.00
O112   O     0.46020   0.20646   0.33749   0.00000  Uiso   1.00
O113   O     0.54421   0.17493   0.15877   0.00000  Uiso   1.00
O114   O     0.50532   0.16135   0.33749   0.00000  Uiso   1.00
O115   O     0.51182   0.08101   0.27820   0.00000  Uiso   1.00
O116   O     0.47914   0.26136   0.26767   0.00000  Uiso   1.00
O117   O     0.40785   0.13251   0.23607   0.00000  Uiso   1.00
O118   O     0.60119   0.19179   0.21805   0.00000  Uiso   1.00
O119   O     0.40323   0.18960   0.27820   0.00000  Uiso   1.00
O120   O     0.58773   0.15277   0.26767   0.00000  Uiso   1.00
O121   O     0.47133   0.06903   0.23607   0.00000  Uiso   1.00
O122   O     0.53771   0.25527   0.21805   0.00000  Uiso   1.00
Zn123  Zn    0.52577   0.14090   0.28277   0.00000  Uiso   1.00
Zn124  Zn    0.46792   0.12378   0.22257   0.00000  Uiso   1.00
Zn125  Zn    0.54500   0.19664   0.21188   0.00000  Uiso   1.00
Zn126  Zn    0.46131   0.20535   0.28277   0.00000  Uiso   1.00
C127   C     0.71916   0.15987   0.25876   0.00000  Uiso   1.00
C128   C     0.86624   0.12918   0.45901   0.00000  Uiso   1.00
C129   C     0.89081   0.11390   0.47866   0.00000  Uiso   1.00
C130   C     0.94774   0.17355   0.24121   0.00000  Uiso   1.00
C131   C     0.88085   0.11951   0.01967   0.00000  Uiso   1.00
C132   C     0.84269   0.13779   0.04143   0.00000  Uiso   1.00
C133   C     0.90886   0.10830   0.03943   0.00000  Uiso   1.00
C134   C     0.89988   0.11662   0.08022   0.00000  Uiso   1.00
C135   C     0.83617   0.14768   0.08234   0.00000  Uiso   1.00
C136   C     0.99369   0.17618   0.23762   0.00000  Uiso   1.00
C137   C     0.67379   0.15741   0.26218   0.00000  Uiso   1.00
C138   C     0.75905   0.20544   0.42091   0.00000  Uiso   1.00
C139   C     0.84762   0.32217   0.23806   0.00000  Uiso   1.00
C140   C     0.81836   0.01206   0.26213   0.00000  Uiso   1.00
C141   C     0.82266   0.05608   0.25888   0.00000  Uiso   1.00
C142   C     0.84356   0.27767   0.24133   0.00000  Uiso   1.00
C143   C     0.85473   0.14543   0.14400   0.00000  Uiso   1.00
C144   C     0.81190   0.18740   0.35626   0.00000  Uiso   1.00
C145   C     0.79812   0.19048   0.39961   0.00000  Uiso   1.00
C146   C     0.86385   0.13641   0.10146   0.00000  Uiso   1.00
C147   C     0.74319   0.20178   0.46116   0.00000  Uiso   1.00
C148   C     0.82203   0.17363   0.41935   0.00000  Uiso   1.00
C149   C     0.80598   0.16801   0.45976   0.00000  Uiso   1.00
C150   C     0.76582   0.18251   0.48088   0.00000  Uiso   1.00
C151   C     0.82915   0.14896   0.47962   0.00000  Uiso   1.00
C152   C     0.81428   0.14865   0.02123   0.00000  Uiso   1.00
C153   C     0.77134   0.15790   0.04067   0.00000  Uiso   1.00
C154   C     0.74802   0.17619   0.02081   0.00000  Uiso   1.00
H155   H     0.68338   0.19344   0.21490   0.00000  Uiso   1.00
H156   H     0.85323   0.16516   0.40219   0.00000  Uiso   1.00
H157   H     0.87667   0.12381   0.42735   0.00000  Uiso   1.00
H158   H     0.70817   0.20979   0.06512   0.00000  Uiso   1.00
H159   H     0.68527   0.16169   0.05134   0.00000  Uiso   1.00
H160   H     0.72339   0.12200   0.07616   0.00000  Uiso   1.00
H161   H     0.73777   0.16966   0.09812   0.00000  Uiso   1.00
H162   H     0.98477   0.14011   0.28518   0.00000  Uiso   1.00
H163   H     0.87467   0.00282   0.21592   0.00000  Uiso   1.00
H164   H     0.79095   0.33217   0.28435   0.00000  Uiso   1.00
H165   H     0.81144   0.16655   0.09981   0.00000  Uiso   1.00
H166   H     0.92135   0.10811   0.09536   0.00000  Uiso   1.00
H167   H     0.91877   0.09915   0.46105   0.00000  Uiso   1.00
H168   H     0.71246   0.21315   0.47647   0.00000  Uiso   1.00
H169   H     0.73996   0.21860   0.40624   0.00000  Uiso   1.00
I170   I     0.96627   0.08007   0.01044   0.00000  Uiso   1.00
N171   N     0.70579   0.18806   0.04108   0.00000  Uiso   1.00
N172   N     0.74947   0.14415   0.07873   0.00000  Uiso   1.00
O173   O     0.83333   0.16667   0.25000   0.00000  Uiso   1.00
O174   O     0.82360   0.12393   0.16625   0.00000  Uiso   1.00
O175   O     0.79354   0.20646   0.33749   0.00000  Uiso   1.00
O176   O     0.87755   0.17493   0.15877   0.00000  Uiso   1.00
O177   O     0.83865   0.16135   0.33749   0.00000  Uiso   1.00
O178   O     0.84515   0.08101   0.27820   0.00000  Uiso   1.00
O179   O     0.81247   0.26136   0.26767   0.00000  Uiso   1.00
O180   O     0.74119   0.13251   0.23607   0.00000  Uiso   1.00
O181   O     0.93452   0.19179   0.21805   0.00000  Uiso   1.00
O182   O     0.73656   0.18960   0.27820   0.00000  Uiso   1.00
O183   O     0.92106   0.15277   0.26767   0.00000  Uiso   1.00
O184   O     0.80467   0.06903   0.23607   0.00000  Uiso   1.00
O185   O     0.87104   0.25527   0.21805   0.00000  Uiso   1.00
Zn186  Zn    0.85910   0.14090   0.28277   0.00000  Uiso   1.00
Zn187  Zn    0.80125   0.12378   0.22257   0.00000  Uiso   1.00
Zn188  Zn    0.87833   0.19664   0.21188   0.00000  Uiso   1.00
Zn189  Zn    0.79465   0.20535   0.28277   0.00000  Uiso   1.00
C190   C     0.05250   0.49320   0.25876   0.00000  Uiso   1.00
C191   C     0.19958   0.46251   0.45901   0.00000  Uiso   1.00
C192   C     0.22414   0.44723   0.47866   0.00000  Uiso   1.00
C193   C     0.28107   0.50688   0.24121   0.00000  Uiso   1.00
C194   C     0.21418   0.45285   0.01967   0.00000  Uiso   1.00
C195   C     0.17602   0.47113   0.04143   0.00000  Uiso   1.00
C196   C     0.24219   0.44163   0.03943   0.00000  Uiso   1.00
C197   C     0.23322   0.44995   0.08022   0.00000  Uiso   1.00
C198   C     0.16950   0.48101   0.08234   0.00000  Uiso   1.00
C199   C     0.32703   0.50951   0.23762   0.00000  Uiso   1.00
C200   C     0.00712   0.49074   0.26218   0.00000  Uiso   1.00
C201   C     0.09239   0.53877   0.42091   0.00000  Uiso   1.00
C202   C     0.18096   0.65550   0.23806   0.00000  Uiso   1.00
C203   C     0.15169   0.34539   0.26213   0.00000  Uiso   1.00
C204   C     0.15599   0.38942   0.25888   0.00000  Uiso   1.00
C205   C     0.17689   0.61101   0.24133   0.00000  Uiso   1.00
C206   C     0.18806   0.47877   0.14400   0.00000  Uiso   1.00
C207   C     0.14524   0.52073   0.35626   0.00000  Uiso   1.00
C208   C     0.13146   0.52382   0.39961   0.00000  Uiso   1.00
C209   C     0.19718   0.46974   0.10146   0.00000  Uiso   1.00
C210   C     0.07652   0.53511   0.46116   0.00000  Uiso   1.00
C211   C     0.15536   0.50697   0.41935   0.00000  Uiso   1.00
C212   C     0.13931   0.50134   0.45976   0.00000  Uiso   1.00
C213   C     0.09915   0.51584   0.48088   0.00000  Uiso   1.00
C214   C     0.16248   0.48229   0.47962   0.00000  Uiso   1.00
C215   C     0.14761   0.48198   0.02123   0.00000  Uiso   1.00
C216   C     0.10467   0.49124   0.04067   0.00000  Uiso   1.00
C217   C     0.08136   0.50952   0.02081   0.00000  Uiso   1.00
H218   H     0.01671   0.52677   0.21490   0.00000  Uiso   1.00
H219   H     0.18657   0.49849   0.40219   0.00000  Uiso   1.00
H220   H     0.21000   0.45714   0.42735   0.00000  Uiso   1.00
H221   H     0.04150   0.54312   0.06512   0.00000  Uiso   1.00
H222   H     0.01860   0.49502   0.05134   0.00000  Uiso   1.00
H223   H     0.05672   0.45533   0.07616   0.00000  Uiso   1.00
H224   H     0.07110   0.50299   0.09812   0.00000  Uiso   1.00
H225   H     0.31811   0.47344   0.28518   0.00000  Uiso   1.00
H226   H     0.20800   0.33615   0.21592   0.00000  Uiso   1.00
H227   H     0.12428   0.66550   0.28435   0.00000  Uiso   1.00
H228   H     0.14478   0.49988   0.09981   0.00000  Uiso   1.00
H229   H     0.25468   0.44144   0.09536   0.00000  Uiso   1.00
H230   H     0.25210   0.43248   0.46105   0.00000  Uiso   1.00
H231   H     0.04580   0.54648   0.47647   0.00000  Uiso   1.00
H232   H     0.07329   0.55194   0.40624   0.00000  Uiso   1.00
I233   I     0.29960   0.41340   0.01044   0.00000  Uiso   1.00
N234   N     0.03912   0.52139   0.04108   0.00000  Uiso   1.00
N235   N     0.08280   0.47749   0.07873   0.00000  Uiso   1.00
O236   O     0.16667   0.50000   0.25000   0.00000  Uiso   1.00
O237   O     0.15693   0.45726   0.16625   0.00000  Uiso   1.00
O238   O     0.12687   0.53979   0.33749   0.00000  Uiso   1.00
O239   O     0.21088   0.50826   0.15877   0.00000  Uiso   1.00
O240   O     0.17198   0.49468   0.33749   0.00000  Uiso   1.00
O241   O     0.17849   0.41434   0.27820   0.00000  Uiso   1.00
O242   O     0.14581   0.59469   0.26767   0.00000  Uiso   1.00
O243   O     0.07452   0.46584   0.23607   0.00000  Uiso   1.00
O244   O     0.26785   0.52512   0.21805   0.00000  Uiso   1.00
O245   O     0.06990   0.52293   0.27820   0.00000  Uiso   1.00
O246   O     0.25440   0.48610   0.26767   0.00000  Uiso   1.00
O247   O     0.13800   0.40236   0.23607   0.00000  Uiso   1.00
O248   O     0.20437   0.58860   0.21805   0.00000  Uiso   1.00
Zn249  Zn    0.19244   0.47423   0.28277   0.00000  Uiso   1.00
Zn250  Zn    0.13459   0.45711   0.22257   0.00000  Uiso   1.00
Zn251  Zn    0.21166   0.52997   0.21188   0.00000  Uiso   1.00
Zn252  Zn    0.12798   0.53868   0.28277   0.00000  Uiso   1.00
C253   C     0.38583   0.49320   0.25876   0.00000  Uiso   1.00
C254   C     0.53291   0.46251   0.45901   0.00000  Uiso   1.00
C255   C     0.55748   0.44723   0.47866   0.00000  Uiso   1.00
C256   C     0.61440   0.50688   0.24121   0.00000  Uiso   1.00
C257   C     0.54751   0.45285   0.01967   0.00000  Uiso   1.00
C258   C     0.50935   0.47113   0.04143   0.00000  Uiso   1.00
C259   C     0.57552   0.44163   0.03943   0.00000  Uiso   1.00
C260   C     0.56655   0.44995   0.08022   0.00000  Uiso   1.00
C261   C     0.50283   0.48101   0.08234   0.00000  Uiso   1.00
C262   C     0.66036   0.50951   0.23762   0.00000  Uiso   1.00
C263   C     0.34046   0.49074   0.26218   0.00000  Uiso   1.00
C264   C     0.42572   0.53877   0.42091   0.00000  Uiso   1.00
C265   C     0.51429   0.65550   0.23806   0.00000  Uiso   1.00
C266   C     0.48502   0.34539   0.26213   0.00000  Uiso   1.00
C267   C     0.48932   0.38942   0.25888   0.00000  Uiso   1.00
C268   C     0.51022   0.61101   0.24133   0.00000  Uiso   1.00
C269   C     0.52139   0.47877   0.14400   0.00000  Uiso   1.00
C270   C     0.47857   0.52073   0.35626   0.00000  Uiso   1.00
C271   C     0.46479   0.52382   0.39961   0.00000  Uiso   1.00
C272   C     0.53052   0.46974   0.10146   0.00000  Uiso   1.00
C273   C     0.40985   0.53511   0.46116   0.00000  Uiso   1.00
C274   C     0.48869   0.50697   0.41935   0.00000  Uiso   1.00
C275   C     0.47264   0.50134   0.45976   0.00000  Uiso   1.00
C276   C     0.43249   0.51584   0.48088   0.00000  Uiso   1.00
C277   C     0.49582   0.48229   0.47962   0.00000  Uiso   1.00
C278   C     0.48095   0.48198   0.02123   0.00000  Uiso   1.00
C279   C     0.43801   0.49124   0.04067   0.00000  Uiso   1.00
C280   C     0.41469   0.50952   0.02081   0.00000  Uiso   1.00
H281   H     0.35004   0.52677   0.21490   0.00000  Uiso   1.00
H282   H     0.51990   0.49849   0.40219   0.00000  Uiso   1.00
H283   H     0.54334   0.45714   0.42735   0.00000  Uiso   1.00
H284   H     0.37484   0.54312   0.06512   0.00000  Uiso   1.00
H285   H     0.35194   0.49502   0.05134   0.00000  Uiso   1.00
H286   H     0.39005   0.45533   0.07616   0.00000  Uiso   1.00
H287   H     0.40443   0.50299   0.09812   0.00000  Uiso   1.00
H288   H     0.65144   0.47344   0.28518   0.00000  Uiso   1.00
H289   H     0.54133   0.33615   0.21592   0.00000  Uiso   1.00
H290   H     0.45761   0.66550   0.28435   0.00000  Uiso   1.00
H291   H     0.47811   0.49988   0.09981   0.00000  Uiso   1.00
H292   H     0.58801   0.44144   0.09536   0.00000  Uiso   1.00
H293   H     0.58544   0.43248   0.46105   0.00000  Uiso   1.00
H294   H     0.37913   0.54648   0.47647   0.00000  Uiso   1.00
H295   H     0.40663   0.55194   0.40624   0.00000  Uiso   1.00
I296   I     0.63294   0.41340   0.01044   0.00000  Uiso   1.00
N297   N     0.37246   0.52139   0.04108   0.00000  Uiso   1.00
N298   N     0.41613   0.47749   0.07873   0.00000  Uiso   1.00
O299   O     0.50000   0.50000   0.25000   0.00000  Uiso   1.00
O300   O     0.49027   0.45726   0.16625   0.00000  Uiso   1.00
O301   O     0.46020   0.53979   0.33749   0.00000  Uiso   1.00
O302   O     0.54421   0.50826   0.15877   0.00000  Uiso   1.00
O303   O     0.50532   0.49468   0.33749   0.00000  Uiso   1.00
O304   O     0.51182   0.41434   0.27820   0.00000  Uiso   1.00
O305   O     0.47914   0.59469   0.26767   0.00000  Uiso   1.00
O306   O     0.40785   0.46584   0.23607   0.00000  Uiso   1.00
O307   O     0.60119   0.52512   0.21805   0.00000  Uiso   1.00
O308   O     0.40323   0.52293   0.27820   0.00000  Uiso   1.00
O309   O     0.58773   0.48610   0.26767   0.00000  Uiso   1.00
O310   O     0.47133   0.40236   0.23607   0.00000  Uiso   1.00
O311   O     0.53771   0.58860   0.21805   0.00000  Uiso   1.00
Zn312  Zn    0.52577   0.47423   0.28277   0.00000  Uiso   1.00
Zn313  Zn    0.46792   0.45711   0.22257   0.00000  Uiso   1.00
Zn314  Zn    0.54500   0.52997   0.21188   0.00000  Uiso   1.00
Zn315  Zn    0.46131   0.53868   0.28277   0.00000  Uiso   1.00
C316   C     0.71916   0.49320   0.25876   0.00000  Uiso   1.00
C317   C     0.86624   0.46251   0.45901   0.00000  Uiso   1.00
C318   C     0.89081   0.44723   0.47866   0.00000  Uiso   1.00
C319   C     0.94774   0.50688   0.24121   0.00000  Uiso   1.00
C320   C     0.88085   0.45285   0.01967   0.00000  Uiso   1.00
C321   C     0.84269   0.47113   0.04143   0.00000  Uiso   1.00
C322   C     0.90886   0.44163   0.03943   0.00000  Uiso   1.00
C323   C     0.89988   0.44995   0.08022   0.00000  Uiso   1.00
C324   C     0.83617   0.48101   0.08234   0.00000  Uiso   1.00
C325   C     0.99369   0.50951   0.23762   0.00000  Uiso   1.00
C326   C     0.67379   0.49074   0.26218   0.00000  Uiso   1.00
C327   C     0.75905   0.53877   0.42091   0.00000  Uiso   1.00
C328   C     0.84762   0.65550   0.23806   0.00000  Uiso   1.00
C329   C     0.81836   0.34539   0.26213   0.00000  Uiso   1.00
C330   C     0.82266   0.38942   0.25888   0.00000  Uiso   1.00
C331   C     0.84356   0.61101   0.24133   0.00000  Uiso   1.00
C332   C     0.85473   0.47877   0.14400   0.00000  Uiso   1.00
C333   C     0.81190   0.52073   0.35626   0.00000  Uiso   1.00
C334   C     0.79812   0.52382   0.39961   0.00000  Uiso   1.00
C335   C     0.86385   0.46974   0.10146   0.00000  Uiso   1.00
C336   C     0.74319   0.53511   0.46116   0.00000  Uiso   1.00
C337   C     0.82203   0.50697   0.41935   0.00000  Uiso   1.00
C338   C     0.80598   0.50134   0.45976   0.00000  Uiso   1.00
C339   C     0.76582   0.51584   0.48088   0.00000  Uiso   1.00
C340   C     0.82915   0.48229   0.47962   0.00000  Uiso   1.00
C341   C     0.81428   0.48198   0.02123   0.00000  Uiso   1.00
C342   C     0.77134   0.49124   0.04067   0.00000  Uiso   1.00
C343   C     0.74802   0.50952   0.02081   0.00000  Uiso   1.00
H344   H     0.68338   0.52677   0.21490   0.00000  Uiso   1.00
H345   H     0.85323   0.49849   0.40219   0.00000  Uiso   1.00
H346   H     0.87667   0.45714   0.42735   0.00000  Uiso   1.00
H347   H     0.70817   0.54312   0.06512   0.00000  Uiso   1.00
H348   H     0.68527   0.49502   0.05134   0.00000  Uiso   1.00
H349   H     0.72339   0.45533   0.07616   0.00000  Uiso   1.00
H350   H     0.73777   0.50299   0.09812   0.00000  Uiso   1.00
H351   H     0.98477   0.47344   0.28518   0.00000  Uiso   1.00
H352   H     0.87467   0.33615   0.21592   0.00000  Uiso   1.00
H353   H     0.79095   0.66550   0.28435   0.00000  Uiso   1.00
H354   H     0.81144   0.49988   0.09981   0.00000  Uiso   1.00
H355   H     0.92135   0.44144   0.09536   0.00000  Uiso   1.00
H356   H     0.91877   0.43248   0.46105   0.00000  Uiso   1.00
H357   H     0.71246   0.54648   0.47647   0.00000  Uiso   1.00
H358   H     0.73996   0.55194   0.40624   0.00000  Uiso   1.00
I359   I     0.96627   0.41340   0.01044   0.00000  Uiso   1.00
N360   N     0.70579   0.52139   0.04108   0.00000  Uiso   1.00
N361   N     0.74947   0.47749   0.07873   0.00000  Uiso   1.00
O362   O     0.83333   0.50000   0.25000   0.00000  Uiso   1.00
O363   O     0.82360   0.45726   0.16625   0.00000  Uiso   1.00
O364   O     0.79354   0.53979   0.33749   0.00000  Uiso   1.00
O365   O     0.87755   0.50826   0.15877   0.00000  Uiso   1.00
O366   O     0.83865   0.49468   0.33749   0.00000  Uiso   1.00
O367   O     0.84515   0.41434   0.27820   0.00000  Uiso   1.00
O368   O     0.81247   0.59469   0.26767   0.00000  Uiso   1.00
O369   O     0.74119   0.46584   0.23607   0.00000  Uiso   1.00
O370   O     0.93452   0.52512   0.21805   0.00000  Uiso   1.00
O371   O     0.73656   0.52293   0.27820   0.00000  Uiso   1.00
O372   O     0.92106   0.48610   0.26767   0.00000  Uiso   1.00
O373   O     0.80467   0.40236   0.23607   0.00000  Uiso   1.00
O374   O     0.87104   0.58860   0.21805   0.00000  Uiso   1.00
Zn375  Zn    0.85910   0.47423   0.28277   0.00000  Uiso   1.00
Zn376  Zn    0.80125   0.45711   0.22257   0.00000  Uiso   1.00
Zn377  Zn    0.87833   0.52997   0.21188   0.00000  Uiso   1.00
Zn378  Zn    0.79465   0.53868   0.28277   0.00000  Uiso   1.00
C379   C     0.05250   0.82653   0.25876   0.00000  Uiso   1.00
C380   C     0.19958   0.79585   0.45901   0.00000  Uiso   1.00
C381   C     0.22414   0.78056   0.47866   0.00000  Uiso   1.00
C382   C     0.28107   0.84021   0.24121   0.00000  Uiso   1.00
C383   C     0.21418   0.78618   0.01967   0.00000  Uiso   1.00
C384   C     0.17602   0.80446   0.04143   0.00000  Uiso   1.00
C385   C     0.24219   0.77497   0.03943   0.00000  Uiso   1.00
C386   C     0.23322   0.78329   0.08022   0.00000  Uiso   1.00
C387   C     0.16950   0.81434   0.08234   0.00000  Uiso   1.00
C388   C     0.32703   0.84284   0.23762   0.00000  Uiso   1.00
C389   C     0.00712   0.82408   0.26218   0.00000  Uiso   1.00
C390   C     0.09239   0.87211   0.42091   0.00000  Uiso   1.00
C391   C     0.18096   0.98884   0.23806   0.00000  Uiso   1.00
C392   C     0.15169   0.67872   0.26213   0.00000  Uiso   1.00
C393   C     0.15599   0.72275   0.25888   0.00000  Uiso   1.00
C394   C     0.17689   0.94434   0.24133   0.00000  Uiso   1.00
C395   C     0.18806   0.81210   0.14400   0.00000  Uiso   1.00
C396   C     0.14524   0.85406   0.35626   0.00000  Uiso   1.00
C397   C     0.13146   0.85715   0.39961   0.00000  Uiso   1.00
C398   C     0.19718   0.80308   0.10146   0.00000  Uiso   1.00
C399   C     0.07652   0.86845   0.46116   0.00000  Uiso   1.00
C400   C     0.15536   0.84030   0.41935   0.00000  Uiso   1.00
C401   C     0.13931   0.83467   0.45976   0.00000  Uiso   1.00
C402   C     0.09915   0.84917   0.48088   0.00000  Uiso   1.00
C403   C     0.16248   0.81563   0.47962   0.00000  Uiso   1.00
C404   C     0.14761   0.81532   0.02123   0.00000  Uiso   1.00
C405   C     0.10467   0.82457   0.04067   0.00000  Uiso   1.00
C406   C     0.08136   0.84285   0.02081   0.00000  Uiso   1.00
H407   H     0.01671   0.86010   0.21490   0.00000  Uiso   1.00
H408   H     0.18657   0.83182   0.40219   0.00000  Uiso   1.00
H409   H     0.21000   0.79048   0.42735   0.00000  Uiso   1.00
H410   H     0.04150   0.87645   0.06512   0.00000  Uiso   1.00
H411   H     0.01860   0.82836   0.05134   0.00000  Uiso   1.00
H412   H     0.05672   0.78866   0.07616   0.00000  Uiso   1.00
H413   H     0.07110   0.83632   0.09812   0.00000  Uiso   1.00
H414   H     0.31811   0.80677   0.28518   0.00000  Uiso   1.00
H415   H     0.20800   0.66948   0.21592   0.00000  Uiso   1.00
H416   H     0.12428   0.99884   0.28435   0.00000  Uiso   1.00
H417   H     0.14478   0.83322   0.09981   0.00000  Uiso   1.00
H418   H     0.25468   0.77477   0.09536   0.00000  Uiso   1.00
H419   H     0.25210   0.76581   0.46105   0.00000  Uiso   1.00
H420   H     0.04580   0.87981   0.47647   0.00000  Uiso   1.00
H421   H     0.07329   0.88527   0.40624   0.00000  Uiso   1.00
I422   I     0.29960   0.74674   0.01044   0.00000  Uiso   1.00
N423   N     0.03912   0.85473   0.04108   0.00000  Uiso   1.00
N424   N     0.08280   0.81082   0.07873   0.00000  Uiso   1.00
O425   O     0.16667   0.83333   0.25000   0.00000  Uiso   1.00
O426   O     0.15693   0.79060   0.16625   0.00000  Uiso   1.00
O427   O     0.12687   0.87313   0.33749   0.00000  Uiso   1.00
O428   O     0.21088   0.84159   0.15877   0.00000  Uiso   1.00
O429   O     0.17198   0.82802   0.33749   0.00000  Uiso   1.00
O430   O     0.17849   0.74768   0.27820   0.00000  Uiso   1.00
O431   O     0.14581   0.92803   0.26767   0.00000  Uiso   1.00
O432   O     0.07452   0.79917   0.23607   0.00000  Uiso   1.00
O433   O     0.26785   0.85845   0.21805   0.00000  Uiso   1.00
O434   O     0.06990   0.85627   0.27820   0.00000  Uiso   1.00
O435   O     0.25440   0.81944   0.26767   0.00000  Uiso   1.00
O436   O     0.13800   0.73570   0.23607   0.00000  Uiso   1.00
O437   O     0.20437   0.92193   0.21805   0.00000  Uiso   1.00
Zn438  Zn    0.19244   0.80756   0.28277   0.00000  Uiso   1.00
Zn439  Zn    0.13459   0.79044   0.22257   0.00000  Uiso   1.00
Zn440  Zn    0.21166   0.86331   0.21188   0.00000  Uiso   1.00
Zn441  Zn    0.12798   0.87202   0.28277   0.00000  Uiso   1.00
C442   C     0.38583   0.82653   0.25876   0.00000  Uiso   1.00
C443   C     0.53291   0.79585   0.45901   0.00000  Uiso   1.00
C444   C     0.55748   0.78056   0.47866   0.00000  Uiso   1.00
C445   C     0.61440   0.84021   0.24121   0.00000  Uiso   1.00
C446   C     0.54751   0.78618   0.01967   0.00000  Uiso   1.00
C447   C     0.50935   0.80446   0.04143   0.00000  Uiso   1.00
C448   C     0.57552   0.77497   0.03943   0.00000  Uiso   1.00
C449   C     0.56655   0.78329   0.08022   0.00000  Uiso   1.00
C450   C     0.50283   0.81434   0.08234   0.00000  Uiso   1.00
C451   C     0.66036   0.84284   0.23762   0.00000  Uiso   1.00
C452   C     0.34046   0.82408   0.26218   0.00000  Uiso   1.00
C453   C     0.42572   0.87211   0.42091   0.00000  Uiso   1.00
C454   C     0.51429   0.98884   0.23806   0.00000  Uiso   1.00
C455   C     0.48502   0.67872   0.26213   0.00000  Uiso   1.00
C456   C     0.48932   0.72275   0.25888   0.00000  Uiso   1.00
C457   C     0.51022   0.94434   0.24133   0.00000  Uiso   1.00
C458   C     0.52139   0.81210   0.14400   0.00000  Uiso   1.00
C459   C     0.47857   0.85406   0.35626   0.00000  Uiso   1.00
C460   C     0.46479   0.85715   0.39961   0.00000  Uiso   1.00
C461   C     0.53052   0.80308   0.10146   0.00000  Uiso   1.00
C462   C     0.40985   0.86845   0.46116   0.00000  Uiso   1.00
C463   C     0.48869   0.84030   0.41935   0.00000  Uiso   1.00
C464   C     0.47264   0.83467   0.45976   0.00000  Uiso   1.00
C465   C     0.43249   0.84917   0.48088   0.00000  Uiso   1.00
C466   C     0.49582   0.81563   0.47962   0.00000  Uiso   1.00
C467   C     0.48095   0.81532   0.02123   0.00000  Uiso   1.00
C468   C     0.43801   0.82457   0.04067   0.00000  Uiso   1.00
C469   C     0.41469   0.84285   0.02081   0.00000  Uiso   1.00
H470   H     0.35004   0.86010   0.21490   0.00000  Uiso   1.00
H471   H     0.51990   0.83182   0.40219   0.00000  Uiso   1.00
H472   H     0.54334   0.79048   0.42735   0.00000  Uiso   1.00
H473   H     0.37484   0.87645   0.06512   0.00000  Uiso   1.00
H474   H     0.35194   0.82836   0.05134   0.00000  Uiso   1.00
H475   H     0.39005   0.78866   0.07616   0.00000  Uiso   1.00
H476   H     0.40443   0.83632   0.09812   0.00000  Uiso   1.00
H477   H     0.65144   0.80677   0.28518   0.00000  Uiso   1.00
H478   H     0.54133   0.66948   0.21592   0.00000  Uiso   1.00
H479   H     0.45761   0.99884   0.28435   0.00000  Uiso   1.00
H480   H     0.47811   0.83322   0.09981   0.00000  Uiso   1.00
H481   H     0.58801   0.77477   0.09536   0.00000  Uiso   1.00
H482   H     0.58544   0.76581   0.46105   0.00000  Uiso   1.00
H483   H     0.37913   0.87981   0.47647   0.00000  Uiso   1.00
H484   H     0.40663   0.88527   0.40624   0.00000  Uiso   1.00
I485   I     0.63294   0.74674   0.01044   0.00000  Uiso   1.00
N486   N     0.37246   0.85473   0.04108   0.00000  Uiso   1.00
N487   N     0.41613   0.81082   0.07873   0.00000  Uiso   1.00
O488   O     0.50000   0.83333   0.25000   0.00000  Uiso   1.00
O489   O     0.49027   0.79060   0.16625   0.00000  Uiso   1.00
O490   O     0.46020   0.87313   0.33749   0.00000  Uiso   1.00
O491   O     0.54421   0.84159   0.15877   0.00000  Uiso   1.00
O492   O     0.50532   0.82802   0.33749   0.00000  Uiso   1.00
O493   O     0.51182   0.74768   0.27820   0.00000  Uiso   1.00
O494   O     0.47914   0.92803   0.26767   0.00000  Uiso   1.00
O495   O     0.40785   0.79917   0.23607   0.00000  Uiso   1.00
O496   O     0.60119   0.85845   0.21805   0.00000  Uiso   1.00
O497   O     0.40323   0.85627   0.27820   0.00000  Uiso   1.00
O498   O     0.58773   0.81944   0.26767   0.00000  Uiso   1.00
O499   O     0.47133   0.73570   0.23607   0.00000  Uiso   1.00
O500   O     0.53771   0.92193   0.21805   0.00000  Uiso   1.00
Zn501  Zn    0.52577   0.80756   0.28277   0.00000  Uiso   1.00
Zn502  Zn    0.46792   0.79044   0.22257   0.00000  Uiso   1.00
Zn503  Zn    0.54500   0.86331   0.21188   0.00000  Uiso   1.00
Zn504  Zn    0.46131   0.87202   0.28277   0.00000  Uiso   1.00
C505   C     0.71916   0.82653   0.25876   0.00000  Uiso   1.00
C506   C     0.86624   0.79585   0.45901   0.00000  Uiso   1.00
C507   C     0.89081   0.78056   0.47866   0.00000  Uiso   1.00
C508   C     0.94774   0.84021   0.24121   0.00000  Uiso   1.00
C509   C     0.88085   0.78618   0.01967   0.00000  Uiso   1.00
C510   C     0.84269   0.80446   0.04143   0.00000  Uiso   1.00
C511   C     0.90886   0.77497   0.03943   0.00000  Uiso   1.00
C512   C     0.89988   0.78329   0.08022   0.00000  Uiso   1.00
C513   C     0.83617   0.81434   0.08234   0.00000  Uiso   1.00
C514   C     0.99369   0.84284   0.23762   0.00000  Uiso   1.00
C515   C     0.67379   0.82408   0.26218   0.00000  Uiso   1.00
C516   C     0.75905   0.87211   0.42091   0.00000  Uiso   1.00
C517   C     0.84762   0.98884   0.23806   0.00000  Uiso   1.00
C518   C     0.81836   0.67872   0.26213   0.00000  Uiso   1.00
C519   C     0.82266   0.72275   0.25888   0.00000  Uiso   1.00
C520   C     0.84356   0.94434   0.24133   0.00000  Uiso   1.00
C521   C     0.85473   0.81210   0.14400   0.00000  Uiso   1.00
C522   C     0.81190   0.85406   0.35626   0.00000  Uiso   1.00
C523   C     0.79812   0.85715   0.39961   0.00000  Uiso   1.00
C524   C     0.86385   0.80308   0.10146   0.00000  Uiso   1.00
C525   C     0.74319   0.86845   0.46116   0.00000  Uiso   1.00
C526   C     0.82203   0.84030   0.41935   0.00000  Uiso   1.00
C527   C     0.80598   0.83467   0.45976   0.00000  Uiso   1.00
C528   C     0.76582   0.84917   0.48088   0.00000  Uiso   1.00
C529   C     0.82915   0.81563   0.47962   0.00000  Uiso   1.00
C530   C     0.81428   0.81532   0.02123   0.00000  Uiso   1.00
C531   C     0.77134   0.82457   0.04067   0.00000  Uiso   1.00
C532   C     0.74802   0.84285   0.02081   0.00000  Uiso   1.00
H533   H     0.68338   0.86010   0.21490   0.00000  Uiso   1.00
H534   H     0.85323   0.83182   0.40219   0.00000  Uiso   1.00
H535   H     0.87667   0.79048   0.42735   0.00000  Uiso   1.00
H536   H     0.70817   0.87645   0.06512   0.00000  Uiso   1.00
H537   H     0.68527   0.82836   0.05134   0.00000  Uiso   1.00
H538   H     0.72339   0.78866   0.07616   0.00000  Uiso   1.00
H539   H     0.73777   0.83632   0.09812   0.00000  Uiso   1.00
H540   H     0.98477   0.80677   0.28518   0.00000  Uiso   1.00
H541   H     0.87467   0.66948   0.21592   0.00000  Uiso   1.00
H542   H     0.79095   0.99884   0.28435   0.00000  Uiso   1.00
H543   H     0.81144   0.83322   0.09981   0.00000  Uiso   1.00
H544   H     0.92135   0.77477   0.09536   0.00000  Uiso   1.00
H545   H     0.91877   0.76581   0.46105   0.00000  Uiso   1.00
H546   H     0.71246   0.87981   0.47647   0.00000  Uiso   1.00
H547   H     0.73996   0.88527   0.40624   0.00000  Uiso   1.00
I548   I     0.96627   0.74674   0.01044   0.00000  Uiso   1.00
N549   N     0.70579   0.85473   0.04108   0.00000  Uiso   1.00
N550   N     0.74947   0.81082   0.07873   0.00000  Uiso   1.00
O551   O     0.83333   0.83333   0.25000   0.00000  Uiso   1.00
O552   O     0.82360   0.79060   0.16625   0.00000  Uiso   1.00
O553   O     0.79354   0.87313   0.33749   0.00000  Uiso   1.00
O554   O     0.87755   0.84159   0.15877   0.00000  Uiso   1.00
O555   O     0.83865   0.82802   0.33749   0.00000  Uiso   1.00
O556   O     0.84515   0.74768   0.27820   0.00000  Uiso   1.00
O557   O     0.81247   0.92803   0.26767   0.00000  Uiso   1.00
O558   O     0.74119   0.79917   0.23607   0.00000  Uiso   1.00
O559   O     0.93452   0.85845   0.21805   0.00000  Uiso   1.00
O560   O     0.73656   0.85627   0.27820   0.00000  Uiso   1.00
O561   O     0.92106   0.81944   0.26767   0.00000  Uiso   1.00
O562   O     0.80467   0.73570   0.23607   0.00000  Uiso   1.00
O563   O     0.87104   0.92193   0.21805   0.00000  Uiso   1.00
Zn564  Zn    0.85910   0.80756   0.28277   0.00000  Uiso   1.00
Zn565  Zn    0.80125   0.79044   0.22257   0.00000  Uiso   1.00
Zn566  Zn    0.87833   0.86331   0.21188   0.00000  Uiso   1.00
Zn567  Zn    0.79465   0.87202   0.28277   0.00000  Uiso   1.00
C568   C     0.05250   0.15987   0.75876   0.00000  Uiso   1.00
C569   C     0.19958   0.12918   0.95901   0.00000  Uiso   1.00
C570   C     0.22414   0.11390   0.97866   0.00000  Uiso   1.00
C571   C     0.28107   0.17355   0.74121   0.00000  Uiso   1.00
C572   C     0.21418   0.11951   0.51967   0.00000  Uiso   1.00
C573   C     0.17602   0.13779   0.54143   0.00000  Uiso   1.00
C574   C     0.24219   0.10830   0.53943   0.00000  Uiso   1.00
C575   C     0.23322   0.11662   0.58022   0.00000  Uiso   1.00
C576   C     0.16950   0.14768   0.58234   0.00000  Uiso   1.00
C577   C     0.32703   0.17618   0.73762   0.00000  Uiso   1.00
C578   C     0.00712   0.15741   0.76218   0.00000  Uiso   1.00
C579   C     0.09239   0.20544   0.92091   0.00000  Uiso   1.00
C580   C     0.18096   0.32217   0.73806   0.00000  Uiso   1.00
C581   C     0.15169   0.01206   0.76213   0.00000  Uiso   1.00
C582   C     0.15599   0.05608   0.75888   0.00000  Uiso   1.00
C583   C     0.17689   0.27767   0.74133   0.00000  Uiso   1.00
C584   C     0.18806   0.14543   0.64400   0.00000  Uiso   1.00
C585   C     0.14524   0.18740   0.85626   0.00000  Uiso   1.00
C586   C     0.13146   0.19048   0.89961   0.00000  Uiso   1.00
C587   C     0.19718   0.13641   0.60146   0.00000  Uiso   1.00
C588   C     0.07652   0.20178   0.96116   0.00000  Uiso   1.00
C589   C     0.15536   0.17363   0.91935   0.00000  Uiso   1.00
C590   C     0.13931   0.16801   0.95976   0.00000  Uiso   1.00
C591   C     0.09915   0.18251   0.98088   0.00000  Uiso   1.00
C592   C     0.16248   0.14896   0.97962   0.00000  Uiso   1.00
C593   C     0.14761   0.14865   0.52123   0.00000  Uiso   1.00
C594   C     0.10467   0.15790   0.54067   0.00000  Uiso   1.00
C595   C     0.08136   0.17619   0.52081   0.00000  Uiso   1.00
H596   H     0.01671   0.19344   0.71490   0.00000  Uiso   1.00
H597   H     0.18657   0.16516   0.90219   0.00000  Uiso   1.00
H598   H     0.21000   0.12381   0.92735   0.00000  Uiso   1.00
H599   H     0.04150   0.20979   0.56512   0.00000  Uiso   1.00
H600   H     0.01860   0.16169   0.55134   0.00000  Uiso   1.00
H601   H     0.05672   0.12200   0.57616   0.00000  Uiso   1.00
H602   H     0.07110   0.16966   0.59812   0.00000  Uiso   1.00
H603   H     0.31811   0.14011   0.78518   0.00000  Uiso   1.00
H604   H     0.20800   0.00282   0.71592   0.00000  Uiso   1.00
H605   H     0.12428   0.33217   0.78435   0.00000  Uiso   1.00
H606   H     0.14478   0.16655   0.59981   0.00000  Uiso   1.00
H607   H     0.25468   0.10811   0.59536   0.00000  Uiso   1.00
H608   H     0.25210   0.09915   0.96105   0.00000  Uiso   1.00
H609   H     0.04580   0.21315   0.97647   0.00000  Uiso   1.00
H610   H     0.07329   0.21860   0.90624   0.00000  Uiso   1.00
I611   I     0.29960   0.08007   0.51044   0.00000  Uiso   1.00
N612   N     0.03912   0.18806   0.54108   0.00000  Uiso   1.00
N613   N     0.08280   0.14415   0.57873   0.00000  Uiso   1.00
O614   O     0.16667   0.16667   0.75000   0.00000  Uiso   1.00
O615   O     0.15693   0.12393   0.66625   0.00000  Uiso   1.00
O616   O     0.12687   0.20646   0.83749   0.00000  Uiso   1.00
O617   O     0.21088   0.17493   0.65877   0.00000  Uiso   1.00
O618   O     0.17198   0.16135   0.83749   0.00000  Uiso   1.00
O619   O     0.17849   0.08101   0.77820   0.00000  Uiso   1.00
O620   O     0.14581   0.26136   0.76767   0.00000  Uiso   1.00
O621   O     0.07452   0.13251   0.73607   0.00000  Uiso   1.00
O622   O     0.26785   0.19179   0.71805   0.00000  Uiso   1.00
O623   O     0.06990   0.18960   0.77820   0.00000  Uiso   1.00
O624   O     0.25440   0.15277   0.76767   0.00000  Uiso   1.00
O625   O     0.13800   0.06903   0.73607   0.00000  Uiso   1.00
O626   O     0.20437   0.25527   0.71805   0.00000  Uiso   1.00
Zn627  Zn    0.19244   0.14090   0.78277   0.00000  Uiso   1.00
Zn628  Zn    0.13459   0.12378   0.72257   0.00000  Uiso   1.00
Zn629  Zn    0.21166   0.19664   0.71188   0.00000  Uiso   1.00
Zn630  Zn    0.12798   0.20535   0.78277   0.00000  Uiso   1.00
C631   C     0.38583   0.15987   0.75876   0.00000  Uiso   1.00
C632   C     0.53291   0.12918   0.95901   0.00000  Uiso   1.00
C633   C     0.55748   0.11390   0.97866   0.00000  Uiso   1.00
C634   C     0.61440   0.17355   0.74121   0.00000  Uiso   1.00
C635   C     0.54751   0.11951   0.51967   0.00000  Uiso   1.00
C636   C     0.50935   0.13779   0.54143   0.00000  Uiso   1.00
C637   C     0.57552   0.10830   0.53943   0.00000  Uiso   1.00
C638   C     0.56655   0.11662   0.58022   0.00000  Uiso   1.00
C639   C     0.50283   0.14768   0.58234   0.00000  Uiso   1.00
C640   C     0.66036   0.17618   0.73762   0.00000  Uiso   1.00
C641   C     0.34046   0.15741   0.76218   0.00000  Uiso   1.00
C642   C     0.42572   0.20544   0.92091   0.00000  Uiso   1.00
C643   C     0.51429   0.32217   0.73806   0.00000  Uiso   1.00
C644   C     0.48502   0.01206   0.76213   0.00000  Uiso   1.00
C645   C     0.48932   0.05608   0.75888   0.00000  Uiso   1.00
C646   C     0.51022   0.27767   0.74133   0.00000  Uiso   1.00
C647   C     0.52139   0.14543   0.64400   0.00000  Uiso   1.00
C648   C     0.47857   0.18740   0.85626   0.00000  Uiso   1.00
C649   C     0.46479   0.19048   0.89961   0.00000  Uiso   1.00
C650   C     0.53052   0.13641   0.60146   0.00000  Uiso   1.00
C651   C     0.40985   0.20178   0.96116   0.00000  Uiso   1.00
C652   C     0.48869   0.17363   0.91935   0.00000  Uiso   1.00
C653   C     0.47264   0.16801   0.95976   0.00000  Uiso   1.00
C654   C     0.43249   0.18251   0.98088   0.00000  Uiso   1.00
C655   C     0.49582   0.14896   0.97962   0.00000  Uiso   1.00
C656   C     0.48095   0.14865   0.52123   0.00000  Uiso   1.00
C657   C     0.43801   0.15790   0.54067   0.00000  Uiso   1.00
C658   C     0.41469   0.17619   0.52081   0.00000  Uiso   1.00
H659   H     0.35004   0.19344   0.71490   0.00000  Uiso   1.00
H660   H     0.51990   0.16516   0.90219   0.00000  Uiso   1.00
H661   H     0.54334   0.12381   0.92735   0.00000  Uiso   1.00
H662   H     0.37484   0.20979   0.56512   0.00000  Uiso   1.00
H663   H     0.35194   0.16169   0.55134   0.00000  Uiso   1.00
H664   H     0.39005   0.12200   0.57616   0.00000  Uiso   1.00
H665   H     0.40443   0.16966   0.59812   0.00000  Uiso   1.00
H666   H     0.65144   0.14011   0.78518   0.00000  Uiso   1.00
H667   H     0.54133   0.00282   0.71592   0.00000  Uiso   1.00
H668   H     0.45761   0.33217   0.78435   0.00000  Uiso   1.00
H669   H     0.47811   0.16655   0.59981   0.00000  Uiso   1.00
H670   H     0.58801   0.10811   0.59536   0.00000  Uiso   1.00
H671   H     0.58544   0.09915   0.96105   0.00000  Uiso   1.00
H672   H     0.37913   0.21315   0.97647   0.00000  Uiso   1.00
H673   H     0.40663   0.21860   0.90624   0.00000  Uiso   1.00
I674   I     0.63294   0.08007   0.51044   0.00000  Uiso   1.00
N675   N     0.37246   0.18806   0.54108   0.00000  Uiso   1.00
N676   N     0.41613   0.14415   0.57873   0.00000  Uiso   1.00
O677   O     0.50000   0.16667   0.75000   0.00000  Uiso   1.00
O678   O     0.49027   0.12393   0.66625   0.00000  Uiso   1.00
O679   O     0.46020   0.20646   0.83749   0.00000  Uiso   1.00
O680   O     0.54421   0.17493   0.65877   0.00000  Uiso   1.00
O681   O     0.50532   0.16135   0.83749   0.00000  Uiso   1.00
O682   O     0.51182   0.08101   0.77820   0.00000  Uiso   1.00
O683   O     0.47914   0.26136   0.76767   0.00000  Uiso   1.00
O684   O     0.40785   0.13251   0.73607   0.00000  Uiso   1.00
O685   O     0.60119   0.19179   0.71805   0.00000  Uiso   1.00
O686   O     0.40323   0.18960   0.77820   0.00000  Uiso   1.00
O687   O     0.58773   0.15277   0.76767   0.00000  Uiso   1.00
O688   O     0.47133   0.06903   0.73607   0.00000  Uiso   1.00
O689   O     0.53771   0.25527   0.71805   0.00000  Uiso   1.00
Zn690  Zn    0.52577   0.14090   0.78277   0.00000  Uiso   1.00
Zn691  Zn    0.46792   0.12378   0.72257   0.00000  Uiso   1.00
Zn692  Zn    0.54500   0.19664   0.71188   0.00000  Uiso   1.00
Zn693  Zn    0.46131   0.20535   0.78277   0.00000  Uiso   1.00
C694   C     0.71916   0.15987   0.75876   0.00000  Uiso   1.00
C695   C     0.86624   0.12918   0.95901   0.00000  Uiso   1.00
C696   C     0.89081   0.11390   0.97866   0.00000  Uiso   1.00
C697   C     0.94774   0.17355   0.74121   0.00000  Uiso   1.00
C698   C     0.88085   0.11951   0.51967   0.00000  Uiso   1.00
C699   C     0.84269   0.13779   0.54143   0.00000  Uiso   1.00
C700   C     0.90886   0.10830   0.53943   0.00000  Uiso   1.00
C701   C     0.89988   0.11662   0.58022   0.00000  Uiso   1.00
C702   C     0.83617   0.14768   0.58234   0.00000  Uiso   1.00
C703   C     0.99369   0.17618   0.73762   0.00000  Uiso   1.00
C704   C     0.67379   0.15741   0.76218   0.00000  Uiso   1.00
C705   C     0.75905   0.20544   0.92091   0.00000  Uiso   1.00
C706   C     0.84762   0.32217   0.73806   0.00000  Uiso   1.00
C707   C     0.81836   0.01206   0.76213   0.00000  Uiso   1.00
C708   C     0.82266   0.05608   0.75888   0.00000  Uiso   1.00
C709   C     0.84356   0.27767   0.74133   0.00000  Uiso   1.00
C710   C     0.85473   0.14543   0.64400   0.00000  Uiso   1.00
C711   C     0.81190   0.18740   0.85626   0.00000  Uiso   1.00
C712   C     0.79812   0.19048   0.89961   0.00000  Uiso   1.00
C713   C     0.86385   0.13641   0.60146   0.00000  Uiso   1.00
C714   C     0.74319   0.20178   0.96116   0.00000  Uiso   1.00
C715   C     0.82203   0.17363   0.91935   0.00000  Uiso   1.00
C716   C     0.80598   0.16801   0.95976   0.00000  Uiso   1.00
C717   C     0.76582   0.18251   0.98088   0.00000  Uiso   1.00
C718   C     0.82915   0.14896   0.97962   0.00000  Uiso   1.00
C719   C     0.81428   0.14865   0.52123   0.00000  Uiso   1.00
C720   C     0.77134   0.15790   0.54067   0.00000  Uiso   1.00
C721   C     0.74802   0.17619   0.52081   0.00000  Uiso   1.00
H722   H     0.68338   0.19344   0.71490   0.00000  Uiso   1.00
H723   H     0.85323   0.16516   0.90219   0.00000  Uiso   1.00
H724   H     0.87667   0.12381   0.92735   0.00000  Uiso   1.00
H725   H     0.70817   0.20979   0.56512   0.00000  Uiso   1.00
H726   H     0.68527   0.16169   0.55134   0.00000  Uiso   1.00
H727   H     0.72339   0.12200   0.57616   0.00000  Uiso   1.00
H728   H     0.73777   0.16966   0.59812   0.00000  Uiso   1.00
H729   H     0.98477   0.14011   0.78518   0.00000  Uiso   1.00
H730   H     0.87467   0.00282   0.71592   0.00000  Uiso   1.00
H731   H     0.79095   0.33217   0.78435   0.00000  Uiso   1.00
H732   H     0.81144   0.16655   0.59981   0.00000  Uiso   1.00
H733   H     0.92135   0.10811   0.59536   0.00000  Uiso   1.00
H734   H     0.91877   0.09915   0.96105   0.00000  Uiso   1.00
H735   H     0.71246   0.21315   0.97647   0.00000  Uiso   1.00
H736   H     0.73996   0.21860   0.90624   0.00000  Uiso   1.00
I737   I     0.96627   0.08007   0.51044   0.00000  Uiso   1.00
N738   N     0.70579   0.18806   0.54108   0.00000  Uiso   1.00
N739   N     0.74947   0.14415   0.57873   0.00000  Uiso   1.00
O740   O     0.83333   0.16667   0.75000   0.00000  Uiso   1.00
O741   O     0.82360   0.12393   0.66625   0.00000  Uiso   1.00
O742   O     0.79354   0.20646   0.83749   0.00000  Uiso   1.00
O743   O     0.87755   0.17493   0.65877   0.00000  Uiso   1.00
O744   O     0.83865   0.16135   0.83749   0.00000  Uiso   1.00
O745   O     0.84515   0.08101   0.77820   0.00000  Uiso   1.00
O746   O     0.81247   0.26136   0.76767   0.00000  Uiso   1.00
O747   O     0.74119   0.13251   0.73607   0.00000  Uiso   1.00
O748   O     0.93452   0.19179   0.71805   0.00000  Uiso   1.00
O749   O     0.73656   0.18960   0.77820   0.00000  Uiso   1.00
O750   O     0.92106   0.15277   0.76767   0.00000  Uiso   1.00
O751   O     0.80467   0.06903   0.73607   0.00000  Uiso   1.00
O752   O     0.87104   0.25527   0.71805   0.00000  Uiso   1.00
Zn753  Zn    0.85910   0.14090   0.78277   0.00000  Uiso   1.00
Zn754  Zn    0.80125   0.12378   0.72257   0.00000  Uiso   1.00
Zn755  Zn    0.87833   0.19664   0.71188   0.00000  Uiso   1.00
Zn756  Zn    0.79465   0.20535   0.78277   0.00000  Uiso   1.00
C757   C     0.05250   0.49320   0.75876   0.00000  Uiso   1.00
C758   C     0.19958   0.46251   0.95901   0.00000  Uiso   1.00
C759   C     0.22414   0.44723   0.97866   0.00000  Uiso   1.00
C760   C     0.28107   0.50688   0.74121   0.00000  Uiso   1.00
C761   C     0.21418   0.45285   0.51967   0.00000  Uiso   1.00
C762   C     0.17602   0.47113   0.54143   0.00000  Uiso   1.00
C763   C     0.24219   0.44163   0.53943   0.00000  Uiso   1.00
C764   C     0.23322   0.44995   0.58022   0.00000  Uiso   1.00
C765   C     0.16950   0.48101   0.58234   0.00000  Uiso   1.00
C766   C     0.32703   0.50951   0.73762   0.00000  Uiso   1.00
C767   C     0.00712   0.49074   0.76218   0.00000  Uiso   1.00
C768   C     0.09239   0.53877   0.92091   0.00000  Uiso   1.00
C769   C     0.18096   0.65550   0.73806   0.00000  Uiso   1.00
C770   C     0.15169   0.34539   0.76213   0.00000  Uiso   1.00
C771   C     0.15599   0.38942   0.75888   0.00000  Uiso   1.00
C772   C     0.17689   0.61101   0.74133   0.00000  Uiso   1.00
C773   C     0.18806   0.47877   0.64400   0.00000  Uiso   1.00
C774   C     0.14524   0.52073   0.85626   0.00000  Uiso   1.00
C775   C     0.13146   0.52382   0.89961   0.00000  Uiso   1.00
C776   C     0.19718   0.46974   0.60146   0.00000  Uiso   1.00
C777   C     0.07652   0.53511   0.96116   0.00000  Uiso   1.00
C778   C     0.15536   0.50697   0.91935   0.00000  Uiso   1.00
C779   C     0.13931   0.50134   0.95976   0.00000  Uiso   1.00
C780   C     0.09915   0.51584   0.98088   0.00000  Uiso   1.00
C781   C     0.16248   0.48229   0.97962   0.00000  Uiso   1.00
C782   C     0.14761   0.48198   0.52123   0.00000  Uiso   1.00
C783   C     0.10467   0.49124   0.54067   0.00000  Uiso   1.00
C784   C     0.08136   0.50952   0.52081   0.00000  Uiso   1.00
H785   H     0.01671   0.52677   0.71490   0.00000  Uiso   1.00
H786   H     0.18657   0.49849   0.90219   0.00000  Uiso   1.00
H787   H     0.21000   0.45714   0.92735   0.00000  Uiso   1.00
H788   H     0.04150   0.54312   0.56512   0.00000  Uiso   1.00
H789   H     0.01860   0.49502   0.55134   0.00000  Uiso   1.00
H790   H     0.05672   0.45533   0.57616   0.00000  Uiso   1.00
H791   H     0.07110   0.50299   0.59812   0.00000  Uiso   1.00
H792   H     0.31811   0.47344   0.78518   0.00000  Uiso   1.00
H793   H     0.20800   0.33615   0.71592   0.00000  Uiso   1.00
H794   H     0.12428   0.66550   0.78435   0.00000  Uiso   1.00
H795   H     0.14478   0.49988   0.59981   0.00000  Uiso   1.00
H796   H     0.25468   0.44144   0.59536   0.00000  Uiso   1.00
H797   H     0.25210   0.43248   0.96105   0.00000  Uiso   1.00
H798   H     0.04580   0.54648   0.97647   0.00000  Uiso   1.00
H799   H     0.07329   0.55194   0.90624   0.00000  Uiso   1.00
I800   I     0.29960   0.41340   0.51044   0.00000  Uiso   1.00
N801   N     0.03912   0.52139   0.54108   0.00000  Uiso   1.00
N802   N     0.08280   0.47749   0.57873   0.00000  Uiso   1.00
O803   O     0.16667   0.50000   0.75000   0.00000  Uiso   1.00
O804   O     0.15693   0.45726   0.66625   0.00000  Uiso   1.00
O805   O     0.12687   0.53979   0.83749   0.00000  Uiso   1.00
O806   O     0.21088   0.50826   0.65877   0.00000  Uiso   1.00
O807   O     0.17198   0.49468   0.83749   0.00000  Uiso   1.00
O808   O     0.17849   0.41434   0.77820   0.00000  Uiso   1.00
O809   O     0.14581   0.59469   0.76767   0.00000  Uiso   1.00
O810   O     0.07452   0.46584   0.73607   0.00000  Uiso   1.00
O811   O     0.26785   0.52512   0.71805   0.00000  Uiso   1.00
O812   O     0.06990   0.52293   0.77820   0.00000  Uiso   1.00
O813   O     0.25440   0.48610   0.76767   0.00000  Uiso   1.00
O814   O     0.13800   0.40236   0.73607   0.00000  Uiso   1.00
O815   O     0.20437   0.58860   0.71805   0.00000  Uiso   1.00
Zn816  Zn    0.19244   0.47423   0.78277   0.00000  Uiso   1.00
Zn817  Zn    0.13459   0.45711   0.72257   0.00000  Uiso   1.00
Zn818  Zn    0.21166   0.52997   0.71188   0.00000  Uiso   1.00
Zn819  Zn    0.12798   0.53868   0.78277   0.00000  Uiso   1.00
C820   C     0.38583   0.49320   0.75876   0.00000  Uiso   1.00
C821   C     0.53291   0.46251   0.95901   0.00000  Uiso   1.00
C822   C     0.55748   0.44723   0.97866   0.00000  Uiso   1.00
C823   C     0.61440   0.50688   0.74121   0.00000  Uiso   1.00
C824   C     0.54751   0.45285   0.51967   0.00000  Uiso   1.00
C825   C     0.50935   0.47113   0.54143   0.00000  Uiso   1.00
C826   C     0.57552   0.44163   0.53943   0.00000  Uiso   1.00
C827   C     0.56655   0.44995   0.58022   0.00000  Uiso   1.00
C828   C     0.50283   0.48101   0.58234   0.00000  Uiso   1.00
C829   C     0.66036   0.50951   0.73762   0.00000  Uiso   1.00
C830   C     0.34046   0.49074   0.76218   0.00000  Uiso   1.00
C831   C     0.42572   0.53877   0.92091   0.00000  Uiso   1.00
C832   C     0.51429   0.65550   0.73806   0.00000  Uiso   1.00
C833   C     0.48502   0.34539   0.76213   0.00000  Uiso   1.00
C834   C     0.48932   0.38942   0.75888   0.00000  Uiso   1.00
C835   C     0.51022   0.61101   0.74133   0.00000  Uiso   1.00
C836   C     0.52139   0.47877   0.64400   0.00000  Uiso   1.00
C837   C     0.47857   0.52073   0.85626   0.00000  Uiso   1.00
C838   C     0.46479   0.52382   0.89961   0.00000  Uiso   1.00
C839   C     0.53052   0.46974   0.60146   0.00000  Uiso   1.00
C840   C     0.40985   0.53511   0.96116   0.00000  Uiso   1.00
C841   C     0.48869   0.50697   0.91935   0.00000  Uiso   1.00
C842   C     0.47264   0.50134   0.95976   0.00000  Uiso   1.00
C843   C     0.43249   0.51584   0.98088   0.00000  Uiso   1.00
C844   C     0.49582   0.48229   0.97962   0.00000  Uiso   1.00
C845   C     0.48095   0.48198   0.52123   0.00000  Uiso   1.00
C846   C     0.43801   0.49124   0.54067   0.00000  Uiso   1.00
C847   C     0.41469   0.50952   0.52081   0.00000  Uiso   1.00
H848   H     0.35004   0.52677   0.71490   0.00000  Uiso   1.00
H849   H     0.51990   0.49849   0.90219   0.00000  Uiso   1.00
H850   H     0.54334   0.45714   0.92735   0.00000  Uiso   1.00
H851   H     0.37484   0.54312   0.56512   0.00000  Uiso   1.00
H852   H     0.35194   0.49502   0.55134   0.00000  Uiso   1.00
H853   H     0.39005   0.45533   0.57616   0.00000  Uiso   1.00
H854   H     0.40443   0.50299   0.59812   0.00000  Uiso   1.00
H855   H     0.65144   0.47344   0.78518   0.00000  Uiso   1.00
H856   H     0.54133   0.33615   0.71592   0.00000  Uiso   1.00
H857   H     0.45761   0.66550   0.78435   0.00000  Uiso   1.00
H858   H     0.47811   0.49988   0.59981   0.00000  Uiso   1.00
H859   H     0.58801   0.44144   0.59536   0.00000  Uiso   1.00
H860   H     0.58544   0.43248   0.96105   0.00000  Uiso   1.00
H861   H     0.37913   0.54648   0.97647   0.00000  Uiso   1.00
H862   H     0.40663   0.55194   0.90624   0.00000  Uiso   1.00
I863   I     0.63294   0.41340   0.51044   0.00000  Uiso   1.00
N864   N     0.37246   0.52139   0.54108   0.00000  Uiso   1.00
N865   N     0.41613   0.47749   0.57873   0.00000  Uiso   1.00
O866   O     0.50000   0.50000   0.75000   0.00000  Uiso   1.00
O867   O     0.49027   0.45726   0.66625   0.00000  Uiso   1.00
O868   O     0.46020   0.53979   0.83749   0.00000  Uiso   1.00
O869   O     0.54421   0.50826   0.65877   0.00000  Uiso   1.00
O870   O     0.50532   0.49468   0.83749   0.00000  Uiso   1.00
O871   O     0.51182   0.41434   0.77820   0.00000  Uiso   1.00
O872   O     0.47914   0.59469   0.76767   0.00000  Uiso   1.00
O873   O     0.40785   0.46584   0.73607   0.00000  Uiso   1.00
O874   O     0.60119   0.52512   0.71805   0.00000  Uiso   1.00
O875   O     0.40323   0.52293   0.77820   0.00000  Uiso   1.00
O876   O     0.58773   0.48610   0.76767   0.00000  Uiso   1.00
O877   O     0.47133   0.40236   0.73607   0.00000  Uiso   1.00
O878   O     0.53771   0.58860   0.71805   0.00000  Uiso   1.00
Zn879  Zn    0.52577   0.47423   0.78277   0.00000  Uiso   1.00
Zn880  Zn    0.46792   0.45711   0.72257   0.00000  Uiso   1.00
Zn881  Zn    0.54500   0.52997   0.71188   0.00000  Uiso   1.00
Zn882  Zn    0.46131   0.53868   0.78277   0.00000  Uiso   1.00
C883   C     0.71916   0.49320   0.75876   0.00000  Uiso   1.00
C884   C     0.86624   0.46251   0.95901   0.00000  Uiso   1.00
C885   C     0.89081   0.44723   0.97866   0.00000  Uiso   1.00
C886   C     0.94774   0.50688   0.74121   0.00000  Uiso   1.00
C887   C     0.88085   0.45285   0.51967   0.00000  Uiso   1.00
C888   C     0.84269   0.47113   0.54143   0.00000  Uiso   1.00
C889   C     0.90886   0.44163   0.53943   0.00000  Uiso   1.00
C890   C     0.89988   0.44995   0.58022   0.00000  Uiso   1.00
C891   C     0.83617   0.48101   0.58234   0.00000  Uiso   1.00
C892   C     0.99369   0.50951   0.73762   0.00000  Uiso   1.00
C893   C     0.67379   0.49074   0.76218   0.00000  Uiso   1.00
C894   C     0.75905   0.53877   0.92091   0.00000  Uiso   1.00
C895   C     0.84762   0.65550   0.73806   0.00000  Uiso   1.00
C896   C     0.81836   0.34539   0.76213   0.00000  Uiso   1.00
C897   C     0.82266   0.38942   0.75888   0.00000  Uiso   1.00
C898   C     0.84356   0.61101   0.74133   0.00000  Uiso   1.00
C899   C     0.85473   0.47877   0.64400   0.00000  Uiso   1.00
C900   C     0.81190   0.52073   0.85626   0.00000  Uiso   1.00
C901   C     0.79812   0.52382   0.89961   0.00000  Uiso   1.00
C902   C     0.86385   0.46974   0.60146   0.00000  Uiso   1.00
C903   C     0.74319   0.53511   0.96116   0.00000  Uiso   1.00
C904   C     0.82203   0.50697   0.91935   0.00000  Uiso   1.00
C905   C     0.80598   0.50134   0.95976   0.00000  Uiso   1.00
C906   C     0.76582   0.51584   0.98088   0.00000  Uiso   1.00
C907   C     0.82915   0.48229   0.97962   0.00000  Uiso   1.00
C908   C     0.81428   0.48198   0.52123   0.00000  Uiso   1.00
C909   C     0.77134   0.49124   0.54067   0.00000  Uiso   1.00
C910   C     0.74802   0.50952   0.52081   0.00000  Uiso   1.00
H911   H     0.68338   0.52677   0.71490   0.00000  Uiso   1.00
H912   H     0.85323   0.49849   0.90219   0.00000  Uiso   1.00
H913   H     0.87667   0.45714   0.92735   0.00000  Uiso   1.00
H914   H     0.70817   0.54312   0.56512   0.00000  Uiso   1.00
H915   H     0.68527   0.49502   0.55134   0.00000  Uiso   1.00
H916   H     0.72339   0.45533   0.57616   0.00000  Uiso   1.00
H917   H     0.73777   0.50299   0.59812   0.00000  Uiso   1.00
H918   H     0.98477   0.47344   0.78518   0.00000  Uiso   1.00
H919   H     0.87467   0.33615   0.71592   0.00000  Uiso   1.00
H920   H     0.79095   0.66550   0.78435   0.00000  Uiso   1.00
H921   H     0.81144   0.49988   0.59981   0.00000  Uiso   1.00
H922   H     0.92135   0.44144   0.59536   0.00000  Uiso   1.00
H923   H     0.91877   0.43248   0.96105   0.00000  Uiso   1.00
H924   H     0.71246   0.54648   0.97647   0.00000  Uiso   1.00
H925   H     0.73996   0.55194   0.90624   0.00000  Uiso   1.00
I926   I     0.96627   0.41340   0.51044   0.00000  Uiso   1.00
N927   N     0.70579   0.52139   0.54108   0.00000  Uiso   1.00
N928   N     0.74947   0.47749   0.57873   0.00000  Uiso   1.00
O929   O     0.83333   0.50000   0.75000   0.00000  Uiso   1.00
O930   O     0.82360   0.45726   0.66625   0.00000  Uiso   1.00
O931   O     0.79354   0.53979   0.83749   0.00000  Uiso   1.00
O932   O     0.87755   0.50826   0.65877   0.00000  Uiso   1.00
O933   O     0.83865   0.49468   0.83749   0.00000  Uiso   1.00
O934   O     0.84515   0.41434   0.77820   0.00000  Uiso   1.00
O935   O     0.81247   0.59469   0.76767   0.00000  Uiso   1.00
O936   O     0.74119   0.46584   0.73607   0.00000  Uiso   1.00
O937   O     0.93452   0.52512   0.71805   0.00000  Uiso   1.00
O938   O     0.73656   0.52293   0.77820   0.00000  Uiso   1.00
O939   O     0.92106   0.48610   0.76767   0.00000  Uiso   1.00
O940   O     0.80467   0.40236   0.73607   0.00000  Uiso   1.00
O941   O     0.87104   0.58860   0.71805   0.00000  Uiso   1.00
Zn942  Zn    0.85910   0.47423   0.78277   0.00000  Uiso   1.00
Zn943  Zn    0.80125   0.45711   0.72257   0.00000  Uiso   1.00
Zn944  Zn    0.87833   0.52997   0.71188   0.00000  Uiso   1.00
Zn945  Zn    0.79465   0.53868   0.78277   0.00000  Uiso   1.00
C946   C     0.05250   0.82653   0.75876   0.00000  Uiso   1.00
C947   C     0.19958   0.79585   0.95901   0.00000  Uiso   1.00
C948   C     0.22414   0.78056   0.97866   0.00000  Uiso   1.00
C949   C     0.28107   0.84021   0.74121   0.00000  Uiso   1.00
C950   C     0.21418   0.78618   0.51967   0.00000  Uiso   1.00
C951   C     0.17602   0.80446   0.54143   0.00000  Uiso   1.00
C952   C     0.24219   0.77497   0.53943   0.00000  Uiso   1.00
C953   C     0.23322   0.78329   0.58022   0.00000  Uiso   1.00
C954   C     0.16950   0.81434   0.58234   0.00000  Uiso   1.00
C955   C     0.32703   0.84284   0.73762   0.00000  Uiso   1.00
C956   C     0.00712   0.82408   0.76218   0.00000  Uiso   1.00
C957   C     0.09239   0.87211   0.92091   0.00000  Uiso   1.00
C958   C     0.18096   0.98884   0.73806   0.00000  Uiso   1.00
C959   C     0.15169   0.67872   0.76213   0.00000  Uiso   1.00
C960   C     0.15599   0.72275   0.75888   0.00000  Uiso   1.00
C961   C     0.17689   0.94434   0.74133   0.00000  Uiso   1.00
C962   C     0.18806   0.81210   0.64400   0.00000  Uiso   1.00
C963   C     0.14524   0.85406   0.85626   0.00000  Uiso   1.00
C964   C     0.13146   0.85715   0.89961   0.00000  Uiso   1.00
C965   C     0.19718   0.80308   0.60146   0.00000  Uiso   1.00
C966   C     0.07652   0.86845   0.96116   0.00000  Uiso   1.00
C967   C     0.15536   0.84030   0.91935   0.00000  Uiso   1.00
C968   C     0.13931   0.83467   0.95976   0.00000  Uiso   1.00
C969   C     0.09915   0.84917   0.98088   0.00000  Uiso   1.00
C970   C     0.16248   0.81563   0.97962   0.00000  Uiso   1.00
C971   C     0.14761   0.81532   0.52123   0.00000  Uiso   1.00
C972   C     0.10467   0.82457   0.54067   0.00000  Uiso   1.00
C973   C     0.08136   0.84285   0.52081   0.00000  Uiso   1.00
H974   H     0.01671   0.86010   0.71490   0.00000  Uiso   1.00
H975   H     0.18657   0.83182   0.90219   0.00000  Uiso   1.00
H976   H     0.21000   0.79048   0.92735   0.00000  Uiso   1.00
H977   H     0.04150   0.87645   0.56512   0.00000  Uiso   1.00
H978   H     0.01860   0.82836   0.55134   0.00000  Uiso   1.00
H979   H     0.05672   0.78866   0.57616   0.00000  Uiso   1.00
H980   H     0.07110   0.83632   0.59812   0.00000  Uiso   1.00
H981   H     0.31811   0.80677   0.78518   0.00000  Uiso   1.00
H982   H     0.20800   0.66948   0.71592   0.00000  Uiso   1.00
H983   H     0.12428   0.99884   0.78435   0.00000  Uiso   1.00
H984   H     0.14478   0.83322   0.59981   0.00000  Uiso   1.00
H985   H     0.25468   0.77477   0.59536   0.00000  Uiso   1.00
H986   H     0.25210   0.76581   0.96105   0.00000  Uiso   1.00
H987   H     0.04580   0.87981   0.97647   0.00000  Uiso   1.00
H988   H     0.07329   0.88527   0.90624   0.00000  Uiso   1.00
I989   I     0.29960   0.74674   0.51044   0.00000  Uiso   1.00
N990   N     0.03912   0.85473   0.54108   0.00000  Uiso   1.00
N991   N     0.08280   0.81082   0.57873   0.00000  Uiso   1.00
O992   O     0.16667   0.83333   0.75000   0.00000  Uiso   1.00
O993   O     0.15693   0.79060   0.66625   0.00000  Uiso   1.00
O994   O     0.12687   0.87313   0.83749   0.00000  Uiso   1.00
O995   O     0.21088   0.84159   0.65877   0.00000  Uiso   1.00
O996   O     0.17198   0.82802   0.83749   0.00000  Uiso   1.00
O997   O     0.17849   0.74768   0.77820   0.00000  Uiso   1.00
O998   O     0.14581   0.92803   0.76767   0.00000  Uiso   1.00
O999   O     0.07452   0.79917   0.73607   0.00000  Uiso   1.00
O1000  O     0.26785   0.85845   0.71805   0.00000  Uiso   1.00
O1001  O     0.06990   0.85627   0.77820   0.00000  Uiso   1.00
O1002  O     0.25440   0.81944   0.76767   0.00000  Uiso   1.00
O1003  O     0.13800   0.73570   0.73607   0.00000  Uiso   1.00
O1004  O     0.20437   0.92193   0.71805   0.00000  Uiso   1.00
Zn1005 Zn    0.19244   0.80756   0.78277   0.00000  Uiso   1.00
Zn1006 Zn    0.13459   0.79044   0.72257   0.00000  Uiso   1.00
Zn1007 Zn    0.21166   0.86331   0.71188   0.00000  Uiso   1.00
Zn1008 Zn    0.12798   0.87202   0.78277   0.00000  Uiso   1.00
C1009  C     0.38583   0.82653   0.75876   0.00000  Uiso   1.00
C1010  C     0.53291   0.79585   0.95901   0.00000  Uiso   1.00
C1011  C     0.55748   0.78056   0.97866   0.00000  Uiso   1.00
C1012  C     0.61440   0.84021   0.74121   0.00000  Uiso   1.00
C1013  C     0.54751   0.78618   0.51967   0.00000  Uiso   1.00
C1014  C     0.50935   0.80446   0.54143   0.00000  Uiso   1.00
C1015  C     0.57552   0.77497   0.53943   0.00000  Uiso   1.00
C1016  C     0.56655   0.78329   0.58022   0.00000  Uiso   1.00
C1017  C     0.50283   0.81434   0.58234   0.00000  Uiso   1.00
C1018  C     0.66036   0.84284   0.73762   0.00000  Uiso   1.00
C1019  C     0.34046   0.82408   0.76218   0.00000  Uiso   1.00
C1020  C     0.42572   0.87211   0.92091   0.00000  Uiso   1.00
C1021  C     0.51429   0.98884   0.73806   0.00000  Uiso   1.00
C1022  C     0.48502   0.67872   0.76213   0.00000  Uiso   1.00
C1023  C     0.48932   0.72275   0.75888   0.00000  Uiso   1.00
C1024  C     0.51022   0.94434   0.74133   0.00000  Uiso   1.00
C1025  C     0.52139   0.81210   0.64400   0.00000  Uiso   1.00
C1026  C     0.47857   0.85406   0.85626   0.00000  Uiso   1.00
C1027  C     0.46479   0.85715   0.89961   0.00000  Uiso   1.00
C1028  C     0.53052   0.80308   0.60146   0.00000  Uiso   1.00
C1029  C     0.40985   0.86845   0.96116   0.00000  Uiso   1.00
C1030  C     0.48869   0.84030   0.91935   0.00000  Uiso   1.00
C1031  C     0.47264   0.83467   0.95976   0.00000  Uiso   1.00
C1032  C     0.43249   0.84917   0.98088   0.00000  Uiso   1.00
C1033  C     0.49582   0.81563   0.97962   0.00000  Uiso   1.00
C1034  C     0.48095   0.81532   0.52123   0.00000  Uiso   1.00
C1035  C     0.43801   0.82457   0.54067   0.00000  Uiso   1.00
C1036  C     0.41469   0.84285   0.52081   0.00000  Uiso   1.00
H1037  H     0.35004   0.86010   0.71490   0.00000  Uiso   1.00
H1038  H     0.51990   0.83182   0.90219   0.00000  Uiso   1.00
H1039  H     0.54334   0.79048   0.92735   0.00000  Uiso   1.00
H1040  H     0.37484   0.87645   0.56512   0.00000  Uiso   1.00
H1041  H     0.35194   0.82836   0.55134   0.00000  Uiso   1.00
H1042  H     0.39005   0.78866   0.57616   0.00000  Uiso   1.00
H1043  H     0.40443   0.83632   0.59812   0.00000  Uiso   1.00
H1044  H     0.65144   0.80677   0.78518   0.00000  Uiso   1.00
H1045  H     0.54133   0.66948   0.71592   0.00000  Uiso   1.00
H1046  H     0.45761   0.99884   0.78435   0.00000  Uiso   1.00
H1047  H     0.47811   0.83322   0.59981   0.00000  Uiso   1.00
H1048  H     0.58801   0.77477   0.59536   0.00000  Uiso   1.00
H1049  H     0.58544   0.76581   0.96105   0.00000  Uiso   1.00
H1050  H     0.37913   0.87981   0.97647   0.00000  Uiso   1.00
H1051  H     0.40663   0.88527   0.90624   0.00000  Uiso   1.00
I1052  I     0.63294   0.74674   0.51044   0.00000  Uiso   1.00
N1053  N     0.37246   0.85473   0.54108   0.00000  Uiso   1.00
N1054  N     0.41613   0.81082   0.57873   0.00000  Uiso   1.00
O1055  O     0.50000   0.83333   0.75000   0.00000  Uiso   1.00
O1056  O     0.49027   0.79060   0.66625   0.00000  Uiso   1.00
O1057  O     0.46020   0.87313   0.83749   0.00000  Uiso   1.00
O1058  O     0.54421   0.84159   0.65877   0.00000  Uiso   1.00
O1059  O     0.50532   0.82802   0.83749   0.00000  Uiso   1.00
O1060  O     0.51182   0.74768   0.77820   0.00000  Uiso   1.00
O1061  O     0.47914   0.92803   0.76767   0.00000  Uiso   1.00
O1062  O     0.40785   0.79917   0.73607   0.00000  Uiso   1.00
O1063  O     0.60119   0.85845   0.71805   0.00000  Uiso   1.00
O1064  O     0.40323   0.85627   0.77820   0.00000  Uiso   1.00
O1065  O     0.58773   0.81944   0.76767   0.00000  Uiso   1.00
O1066  O     0.47133   0.73570   0.73607   0.00000  Uiso   1.00
O1067  O     0.53771   0.92193   0.71805   0.00000  Uiso   1.00
Zn1068 Zn    0.52577   0.80756   0.78277   0.00000  Uiso   1.00
Zn1069 Zn    0.46792   0.79044   0.72257   0.00000  Uiso   1.00
Zn1070 Zn    0.54500   0.86331   0.71188   0.00000  Uiso   1.00
Zn1071 Zn    0.46131   0.87202   0.78277   0.00000  Uiso   1.00
C1072  C     0.71916   0.82653   0.75876   0.00000  Uiso   1.00
C1073  C     0.86624   0.79585   0.95901   0.00000  Uiso   1.00
C1074  C     0.89081   0.78056   0.97866   0.00000  Uiso   1.00
C1075  C     0.94774   0.84021   0.74121   0.00000  Uiso   1.00
C1076  C     0.88085   0.78618   0.51967   0.00000  Uiso   1.00
C1077  C     0.84269   0.80446   0.54143   0.00000  Uiso   1.00
C1078  C     0.90886   0.77497   0.53943   0.00000  Uiso   1.00
C1079  C     0.89988   0.78329   0.58022   0.00000  Uiso   1.00
C1080  C     0.83617   0.81434   0.58234   0.00000  Uiso   1.00
C1081  C     0.99369   0.84284   0.73762   0.00000  Uiso   1.00
C1082  C     0.67379   0.82408   0.76218   0.00000  Uiso   1.00
C1083  C     0.75905   0.87211   0.92091   0.00000  Uiso   1.00
C1084  C     0.84762   0.98884   0.73806   0.00000  Uiso   1.00
C1085  C     0.81836   0.67872   0.76213   0.00000  Uiso   1.00
C1086  C     0.82266   0.72275   0.75888   0.00000  Uiso   1.00
C1087  C     0.84356   0.94434   0.74133   0.00000  Uiso   1.00
C1088  C     0.85473   0.81210   0.64400   0.00000  Uiso   1.00
C1089  C     0.81190   0.85406   0.85626   0.00000  Uiso   1.00
C1090  C     0.79812   0.85715   0.89961   0.00000  Uiso   1.00
C1091  C     0.86385   0.80308   0.60146   0.00000  Uiso   1.00
C1092  C     0.74319   0.86845   0.96116   0.00000  Uiso   1.00
C1093  C     0.82203   0.84030   0.91935   0.00000  Uiso   1.00
C1094  C     0.80598   0.83467   0.95976   0.00000  Uiso   1.00
C1095  C     0.76582   0.84917   0.98088   0.00000  Uiso   1.00
C1096  C     0.82915   0.81563   0.97962   0.00000  Uiso   1.00
C1097  C     0.81428   0.81532   0.52123   0.00000  Uiso   1.00
C1098  C     0.77134   0.82457   0.54067   0.00000  Uiso   1.00
C1099  C     0.74802   0.84285   0.52081   0.00000  Uiso   1.00
H1100  H     0.68338   0.86010   0.71490   0.00000  Uiso   1.00
H1101  H     0.85323   0.83182   0.90219   0.00000  Uiso   1.00
H1102  H     0.87667   0.79048   0.92735   0.00000  Uiso   1.00
H1103  H     0.70817   0.87645   0.56512   0.00000  Uiso   1.00
H1104  H     0.68527   0.82836   0.55134   0.00000  Uiso   1.00
H1105  H     0.72339   0.78866   0.57616   0.00000  Uiso   1.00
H1106  H     0.73777   0.83632   0.59812   0.00000  Uiso   1.00
H1107  H     0.98477   0.80677   0.78518   0.00000  Uiso   1.00
H1108  H     0.87467   0.66948   0.71592   0.00000  Uiso   1.00
H1109  H     0.79095   0.99884   0.78435   0.00000  Uiso   1.00
H1110  H     0.81144   0.83322   0.59981   0.00000  Uiso   1.00
H1111  H     0.92135   0.77477   0.59536   0.00000  Uiso   1.00
H1112  H     0.91877   0.76581   0.96105   0.00000  Uiso   1.00
H1113  H     0.71246   0.87981   0.97647   0.00000  Uiso   1.00
H1114  H     0.73996   0.88527   0.90624   0.00000  Uiso   1.00
I1115  I     0.96627   0.74674   0.51044   0.00000  Uiso   1.00
N1116  N     0.70579   0.85473   0.54108   0.00000  Uiso   1.00
N1117  N     0.74947   0.81082   0.57873   0.00000  Uiso   1.00
O1118  O     0.83333   0.83333   0.75000   0.00000  Uiso   1.00
O1119  O     0.82360   0.79060   0.66625   0.00000  Uiso   1.00
O1120  O     0.79354   0.87313   0.83749   0.00000  Uiso   1.00
O1121  O     0.87755   0.84159   0.65877   0.00000  Uiso   1.00
O1122  O     0.83865   0.82802   0.83749   0.00000  Uiso   1.00
O1123  O     0.84515   0.74768   0.77820   0.00000  Uiso   1.00
O1124  O     0.81247   0.92803   0.76767   0.00000  Uiso   1.00
O1125  O     0.74119   0.79917   0.73607   0.00000  Uiso   1.00
O1126  O     0.93452   0.85845   0.71805   0.00000  Uiso   1.00
O1127  O     0.73656   0.85627   0.77820   0.00000  Uiso   1.00
O1128  O     0.92106   0.81944   0.76767   0.00000  Uiso   1.00
O1129  O     0.80467   0.73570   0.73607   0.00000  Uiso   1.00
O1130  O     0.87104   0.92193   0.71805   0.00000  Uiso   1.00
Zn1131 Zn    0.85910   0.80756   0.78277   0.00000  Uiso   1.00
Zn1132 Zn    0.80125   0.79044   0.72257   0.00000  Uiso   1.00
Zn1133 Zn    0.87833   0.86331   0.71188   0.00000  Uiso   1.00
Zn1134 Zn    0.79465   0.87202   0.78277   0.00000  Uiso   1.00
loop_
_geom_bond_atom_site_label_1
_geom_bond_atom_site_label_2
_geom_bond_distance
_geom_bond_site_symmetry_2
_ccdc_geom_bond_type
C1     O54     1.270   .     A
C1     C11     1.437   .     S
C1     O56     1.270   .     A
C2     C3      1.384   .     A
C2     C25     1.413   .     A
C2     H31     1.077   .     S
C3     H41     1.081   .     S
C3     C572    1.394   .     S
C4     O55     1.279   .     A
C4     C10     1.454   .     S
C4     O57     1.276   .     A
C5     C6      1.425   .     A
C5     C7      1.415   .     A
C5     C570    1.394   1_554 S
C6     C26     1.432   .     A
C6     C9      1.409   .     A
C7     C8      1.393   .     A
C7     I44     2.129   .     S
C8     C20     1.392   .     A
C8     H40     1.084   .     S
C9     C20     1.391   .     A
C9     H39     1.078   .     S
C10    C74     1.334   .     S
C10    H92     1.088   .     S
C11    C136    1.334   1_455 S
C11    H162    1.086   1_455 S
C12    C19     1.397   .     A
C12    H43     1.083   .     S
C12    C21     1.393   .     A
C13    C16     1.452   .     S
C13    C203    1.332   .     S
C13    H226    1.088   .     S
C14    C15     1.436   .     S
C14    C391    1.332   1_545 S
C14    H416    1.086   1_545 S
C15    O52     1.275   .     A
C15    O58     1.275   .     A
C16    O53     1.271   .     A
C16    O59     1.271   .     A
C17    O50     1.273   .     A
C17    O48     1.274   .     A
C17    C20     1.454   .     S
C18    O51     1.284   .     A
C18    C19     1.472   .     S
C18    O49     1.283   .     A
C19    C22     1.397   .     A
C21    C24     1.411   .     A
C21    H42     1.083   .     S
C22    H30     1.076   .     S
C22    C23     1.411   .     A
C23    C24     1.419   .     A
C23    C25     1.423   .     A
C24    C595    1.405   .     S
C25    C593    1.422   .     S
C26    C27     1.425   .     A
C26    C592    1.422   1_554 S
C27    N46     1.436   .     S
C27    C28     1.412   .     A
C28    N45     1.437   .     S
C28    C591    1.405   1_554 S
H29    C136    1.088   1_455 S
H32    N45     1.045   .     S
H33    N45     1.045   .     S
H34    N46     1.045   .     S
H35    N46     1.045   .     S
H36    C74     1.086   .     S
H37    C391    1.088   1_545 S
H38    C203    1.086   .     S
O47    Zn61    1.941   .     S
O47    Zn62    1.932   .     S
O47    Zn60    1.955   .     S
O47    Zn63    1.935   .     S
O48    Zn61    1.928   .     S
O49    Zn63    1.935   .     S
O50    Zn62    1.932   .     S
O51    Zn60    1.925   .     S
O52    Zn60    1.928   .     S
O53    Zn63    1.930   .     S
O54    Zn61    1.928   .     S
O55    Zn62    1.936   .     S
O56    Zn63    1.931   .     S
O57    Zn60    1.925   .     S
O58    Zn61    1.935   .     S
O59    Zn62    1.931   .     S
C64    O117    1.270   .     A
C64    C74     1.437   .     S
C64    O119    1.270   .     A
C65    C66     1.384   .     A
C65    C88     1.413   .     A
C65    H94     1.077   .     S
C66    H104    1.081   .     S
C66    C635    1.394   .     S
C67    O118    1.279   .     A
C67    C73     1.454   .     S
C67    O120    1.276   .     A
C68    C69     1.425   .     A
C68    C70     1.415   .     A
C68    C633    1.394   1_554 S
C69    C89     1.432   .     A
C69    C72     1.409   .     A
C70    C71     1.393   .     A
C70    I107    2.129   .     S
C71    C83     1.392   .     A
C71    H103    1.084   .     S
C72    C83     1.391   .     A
C72    H102    1.078   .     S
C73    C137    1.334   .     S
C73    H155    1.088   .     S
C75    C82     1.397   .     A
C75    H106    1.083   .     S
C75    C84     1.393   .     A
C76    C79     1.452   .     S
C76    C266    1.332   .     S
C76    H289    1.088   .     S
C77    C78     1.436   .     S
C77    C454    1.332   1_545 S
C77    H479    1.086   1_545 S
C78    O115    1.275   .     A
C78    O121    1.275   .     A
C79    O116    1.271   .     A
C79    O122    1.271   .     A
C80    O113    1.273   .     A
C80    O111    1.274   .     A
C80    C83     1.454   .     S
C81    O114    1.284   .     A
C81    C82     1.472   .     S
C81    O112    1.283   .     A
C82    C85     1.397   .     A
C84    C87     1.411   .     A
C84    H105    1.083   .     S
C85    H93     1.076   .     S
C85    C86     1.411   .     A
C86    C87     1.419   .     A
C86    C88     1.423   .     A
C87    C658    1.405   .     S
C88    C656    1.422   .     S
C89    C90     1.425   .     A
C89    C655    1.422   1_554 S
C90    N109    1.436   .     S
C90    C91     1.412   .     A
C91    N108    1.437   .     S
C91    C654    1.405   1_554 S
H95    N108    1.045   .     S
H96    N108    1.045   .     S
H97    N109    1.045   .     S
H98    N109    1.045   .     S
H99    C137    1.086   .     S
H100   C454    1.088   1_545 S
H101   C266    1.086   .     S
O110   Zn124   1.941   .     S
O110   Zn125   1.932   .     S
O110   Zn123   1.955   .     S
O110   Zn126   1.935   .     S
O111   Zn124   1.928   .     S
O112   Zn126   1.935   .     S
O113   Zn125   1.932   .     S
O114   Zn123   1.925   .     S
O115   Zn123   1.928   .     S
O116   Zn126   1.930   .     S
O117   Zn124   1.928   .     S
O118   Zn125   1.936   .     S
O119   Zn126   1.931   .     S
O120   Zn123   1.925   .     S
O121   Zn124   1.935   .     S
O122   Zn125   1.931   .     S
C127   O180    1.270   .     A
C127   C137    1.437   .     S
C127   O182    1.270   .     A
C128   C129    1.384   .     A
C128   C151    1.413   .     A
C128   H157    1.077   .     S
C129   H167    1.081   .     S
C129   C698    1.394   .     S
C130   O181    1.279   .     A
C130   C136    1.454   .     S
C130   O183    1.276   .     A
C131   C132    1.425   .     A
C131   C133    1.415   .     A
C131   C696    1.394   1_554 S
C132   C152    1.432   .     A
C132   C135    1.409   .     A
C133   C134    1.393   .     A
C133   I170    2.129   .     S
C134   C146    1.392   .     A
C134   H166    1.084   .     S
C135   C146    1.391   .     A
C135   H165    1.078   .     S
C136   C11     1.334   1_655 S
C136   H29     1.088   1_655 S
C138   C145    1.397   .     A
C138   H169    1.083   .     S
C138   C147    1.393   .     A
C139   C142    1.452   .     S
C139   C329    1.332   .     S
C139   H352    1.088   .     S
C140   C141    1.436   .     S
C140   C517    1.332   1_545 S
C140   H542    1.086   1_545 S
C141   O178    1.275   .     A
C141   O184    1.275   .     A
C142   O179    1.271   .     A
C142   O185    1.271   .     A
C143   O176    1.273   .     A
C143   O174    1.274   .     A
C143   C146    1.454   .     S
C144   O177    1.284   .     A
C144   C145    1.472   .     S
C144   O175    1.283   .     A
C145   C148    1.397   .     A
C147   C150    1.411   .     A
C147   H168    1.083   .     S
C148   H156    1.076   .     S
C148   C149    1.411   .     A
C149   C150    1.419   .     A
C149   C151    1.423   .     A
C150   C721    1.405   .     S
C151   C719    1.422   .     S
C152   C153    1.425   .     A
C152   C718    1.422   1_554 S
C153   N172    1.436   .     S
C153   C154    1.412   .     A
C154   N171    1.437   .     S
C154   C717    1.405   1_554 S
H158   N171    1.045   .     S
H159   N171    1.045   .     S
H160   N172    1.045   .     S
H161   N172    1.045   .     S
H162   C11     1.086   1_655 S
H163   C517    1.088   1_545 S
H164   C329    1.086   .     S
O173   Zn187   1.941   .     S
O173   Zn188   1.932   .     S
O173   Zn186   1.955   .     S
O173   Zn189   1.935   .     S
O174   Zn187   1.928   .     S
O175   Zn189   1.935   .     S
O176   Zn188   1.932   .     S
O177   Zn186   1.925   .     S
O178   Zn186   1.928   .     S
O179   Zn189   1.930   .     S
O180   Zn187   1.928   .     S
O181   Zn188   1.936   .     S
O182   Zn189   1.931   .     S
O183   Zn186   1.925   .     S
O184   Zn187   1.935   .     S
O185   Zn188   1.931   .     S
C190   O243    1.270   .     A
C190   C200    1.437   .     S
C190   O245    1.270   .     A
C191   C192    1.384   .     A
C191   C214    1.413   .     A
C191   H220    1.077   .     S
C192   H230    1.081   .     S
C192   C761    1.394   .     S
C193   O244    1.279   .     A
C193   C199    1.454   .     S
C193   O246    1.276   .     A
C194   C195    1.425   .     A
C194   C196    1.415   .     A
C194   C759    1.394   1_554 S
C195   C215    1.432   .     A
C195   C198    1.409   .     A
C196   C197    1.393   .     A
C196   I233    2.129   .     S
C197   C209    1.392   .     A
C197   H229    1.084   .     S
C198   C209    1.391   .     A
C198   H228    1.078   .     S
C199   C263    1.334   .     S
C199   H281    1.088   .     S
C200   C325    1.334   1_455 S
C200   H351    1.086   1_455 S
C201   C208    1.397   .     A
C201   H232    1.083   .     S
C201   C210    1.393   .     A
C202   C205    1.452   .     S
C202   C392    1.332   .     S
C202   H415    1.088   .     S
C203   C204    1.436   .     S
C204   O241    1.275   .     A
C204   O247    1.275   .     A
C205   O242    1.271   .     A
C205   O248    1.271   .     A
C206   O239    1.273   .     A
C206   O237    1.274   .     A
C206   C209    1.454   .     S
C207   O240    1.284   .     A
C207   C208    1.472   .     S
C207   O238    1.283   .     A
C208   C211    1.397   .     A
C210   C213    1.411   .     A
C210   H231    1.083   .     S
C211   H219    1.076   .     S
C211   C212    1.411   .     A
C212   C213    1.419   .     A
C212   C214    1.423   .     A
C213   C784    1.405   .     S
C214   C782    1.422   .     S
C215   C216    1.425   .     A
C215   C781    1.422   1_554 S
C216   N235    1.436   .     S
C216   C217    1.412   .     A
C217   N234    1.437   .     S
C217   C780    1.405   1_554 S
H218   C325    1.088   1_455 S
H221   N234    1.045   .     S
H222   N234    1.045   .     S
H223   N235    1.045   .     S
H224   N235    1.045   .     S
H225   C263    1.086   .     S
H227   C392    1.086   .     S
O236   Zn250   1.941   .     S
O236   Zn251   1.932   .     S
O236   Zn249   1.955   .     S
O236   Zn252   1.935   .     S
O237   Zn250   1.928   .     S
O238   Zn252   1.935   .     S
O239   Zn251   1.932   .     S
O240   Zn249   1.925   .     S
O241   Zn249   1.928   .     S
O242   Zn252   1.930   .     S
O243   Zn250   1.928   .     S
O244   Zn251   1.936   .     S
O245   Zn252   1.931   .     S
O246   Zn249   1.925   .     S
O247   Zn250   1.935   .     S
O248   Zn251   1.931   .     S
C253   O306    1.270   .     A
C253   C263    1.437   .     S
C253   O308    1.270   .     A
C254   C255    1.384   .     A
C254   C277    1.413   .     A
C254   H283    1.077   .     S
C255   H293    1.081   .     S
C255   C824    1.394   .     S
C256   O307    1.279   .     A
C256   C262    1.454   .     S
C256   O309    1.276   .     A
C257   C258    1.425   .     A
C257   C259    1.415   .     A
C257   C822    1.394   1_554 S
C258   C278    1.432   .     A
C258   C261    1.409   .     A
C259   C260    1.393   .     A
C259   I296    2.129   .     S
C260   C272    1.392   .     A
C260   H292    1.084   .     S
C261   C272    1.391   .     A
C261   H291    1.078   .     S
C262   C326    1.334   .     S
C262   H344    1.088   .     S
C264   C271    1.397   .     A
C264   H295    1.083   .     S
C264   C273    1.393   .     A
C265   C268    1.452   .     S
C265   C455    1.332   .     S
C265   H478    1.088   .     S
C266   C267    1.436   .     S
C267   O304    1.275   .     A
C267   O310    1.275   .     A
C268   O305    1.271   .     A
C268   O311    1.271   .     A
C269   O302    1.273   .     A
C269   O300    1.274   .     A
C269   C272    1.454   .     S
C270   O303    1.284   .     A
C270   C271    1.472   .     S
C270   O301    1.283   .     A
C271   C274    1.397   .     A
C273   C276    1.411   .     A
C273   H294    1.083   .     S
C274   H282    1.076   .     S
C274   C275    1.411   .     A
C275   C276    1.419   .     A
C275   C277    1.423   .     A
C276   C847    1.405   .     S
C277   C845    1.422   .     S
C278   C279    1.425   .     A
C278   C844    1.422   1_554 S
C279   N298    1.436   .     S
C279   C280    1.412   .     A
C280   N297    1.437   .     S
C280   C843    1.405   1_554 S
H284   N297    1.045   .     S
H285   N297    1.045   .     S
H286   N298    1.045   .     S
H287   N298    1.045   .     S
H288   C326    1.086   .     S
H290   C455    1.086   .     S
O299   Zn313   1.941   .     S
O299   Zn314   1.932   .     S
O299   Zn312   1.955   .     S
O299   Zn315   1.935   .     S
O300   Zn313   1.928   .     S
O301   Zn315   1.935   .     S
O302   Zn314   1.932   .     S
O303   Zn312   1.925   .     S
O304   Zn312   1.928   .     S
O305   Zn315   1.930   .     S
O306   Zn313   1.928   .     S
O307   Zn314   1.936   .     S
O308   Zn315   1.931   .     S
O309   Zn312   1.925   .     S
O310   Zn313   1.935   .     S
O311   Zn314   1.931   .     S
C316   O369    1.270   .     A
C316   C326    1.437   .     S
C316   O371    1.270   .     A
C317   C318    1.384   .     A
C317   C340    1.413   .     A
C317   H346    1.077   .     S
C318   H356    1.081   .     S
C318   C887    1.394   .     S
C319   O370    1.279   .     A
C319   C325    1.454   .     S
C319   O372    1.276   .     A
C320   C321    1.425   .     A
C320   C322    1.415   .     A
C320   C885    1.394   1_554 S
C321   C341    1.432   .     A
C321   C324    1.409   .     A
C322   C323    1.393   .     A
C322   I359    2.129   .     S
C323   C335    1.392   .     A
C323   H355    1.084   .     S
C324   C335    1.391   .     A
C324   H354    1.078   .     S
C325   C200    1.334   1_655 S
C325   H218    1.088   1_655 S
C327   C334    1.397   .     A
C327   H358    1.083   .     S
C327   C336    1.393   .     A
C328   C331    1.452   .     S
C328   C518    1.332   .     S
C328   H541    1.088   .     S
C329   C330    1.436   .     S
C330   O367    1.275   .     A
C330   O373    1.275   .     A
C331   O368    1.271   .     A
C331   O374    1.271   .     A
C332   O365    1.273   .     A
C332   O363    1.274   .     A
C332   C335    1.454   .     S
C333   O366    1.284   .     A
C333   C334    1.472   .     S
C333   O364    1.283   .     A
C334   C337    1.397   .     A
C336   C339    1.411   .     A
C336   H357    1.083   .     S
C337   H345    1.076   .     S
C337   C338    1.411   .     A
C338   C339    1.419   .     A
C338   C340    1.423   .     A
C339   C910    1.405   .     S
C340   C908    1.422   .     S
C341   C342    1.425   .     A
C341   C907    1.422   1_554 S
C342   N361    1.436   .     S
C342   C343    1.412   .     A
C343   N360    1.437   .     S
C343   C906    1.405   1_554 S
H347   N360    1.045   .     S
H348   N360    1.045   .     S
H349   N361    1.045   .     S
H350   N361    1.045   .     S
H351   C200    1.086   1_655 S
H353   C518    1.086   .     S
O362   Zn376   1.941   .     S
O362   Zn377   1.932   .     S
O362   Zn375   1.955   .     S
O362   Zn378   1.935   .     S
O363   Zn376   1.928   .     S
O364   Zn378   1.935   .     S
O365   Zn377   1.932   .     S
O366   Zn375   1.925   .     S
O367   Zn375   1.928   .     S
O368   Zn378   1.930   .     S
O369   Zn376   1.928   .     S
O370   Zn377   1.936   .     S
O371   Zn378   1.931   .     S
O372   Zn375   1.925   .     S
O373   Zn376   1.935   .     S
O374   Zn377   1.931   .     S
C379   O432    1.270   .     A
C379   C389    1.437   .     S
C379   O434    1.270   .     A
C380   C381    1.384   .     A
C380   C403    1.413   .     A
C380   H409    1.077   .     S
C381   H419    1.081   .     S
C381   C950    1.394   .     S
C382   O433    1.279   .     A
C382   C388    1.454   .     S
C382   O435    1.276   .     A
C383   C384    1.425   .     A
C383   C385    1.415   .     A
C383   C948    1.394   1_554 S
C384   C404    1.432   .     A
C384   C387    1.409   .     A
C385   C386    1.393   .     A
C385   I422    2.129   .     S
C386   C398    1.392   .     A
C386   H418    1.084   .     S
C387   C398    1.391   .     A
C387   H417    1.078   .     S
C388   C452    1.334   .     S
C388   H470    1.088   .     S
C389   C514    1.334   1_455 S
C389   H540    1.086   1_455 S
C390   C397    1.397   .     A
C390   H421    1.083   .     S
C390   C399    1.393   .     A
C391   C394    1.452   .     S
C391   C14     1.332   1_565 S
C391   H37     1.088   1_565 S
C392   C393    1.436   .     S
C393   O430    1.275   .     A
C393   O436    1.275   .     A
C394   O431    1.271   .     A
C394   O437    1.271   .     A
C395   O428    1.273   .     A
C395   O426    1.274   .     A
C395   C398    1.454   .     S
C396   O429    1.284   .     A
C396   C397    1.472   .     S
C396   O427    1.283   .     A
C397   C400    1.397   .     A
C399   C402    1.411   .     A
C399   H420    1.083   .     S
C400   H408    1.076   .     S
C400   C401    1.411   .     A
C401   C402    1.419   .     A
C401   C403    1.423   .     A
C402   C973    1.405   .     S
C403   C971    1.422   .     S
C404   C405    1.425   .     A
C404   C970    1.422   1_554 S
C405   N424    1.436   .     S
C405   C406    1.412   .     A
C406   N423    1.437   .     S
C406   C969    1.405   1_554 S
H407   C514    1.088   1_455 S
H410   N423    1.045   .     S
H411   N423    1.045   .     S
H412   N424    1.045   .     S
H413   N424    1.045   .     S
H414   C452    1.086   .     S
H416   C14     1.086   1_565 S
O425   Zn439   1.941   .     S
O425   Zn440   1.932   .     S
O425   Zn438   1.955   .     S
O425   Zn441   1.935   .     S
O426   Zn439   1.928   .     S
O427   Zn441   1.935   .     S
O428   Zn440   1.932   .     S
O429   Zn438   1.925   .     S
O430   Zn438   1.928   .     S
O431   Zn441   1.930   .     S
O432   Zn439   1.928   .     S
O433   Zn440   1.936   .     S
O434   Zn441   1.931   .     S
O435   Zn438   1.925   .     S
O436   Zn439   1.935   .     S
O437   Zn440   1.931   .     S
C442   O495    1.270   .     A
C442   C452    1.437   .     S
C442   O497    1.270   .     A
C443   C444    1.384   .     A
C443   C466    1.413   .     A
C443   H472    1.077   .     S
C444   H482    1.081   .     S
C444   C1013   1.394   .     S
C445   O496    1.279   .     A
C445   C451    1.454   .     S
C445   O498    1.276   .     A
C446   C447    1.425   .     A
C446   C448    1.415   .     A
C446   C1011   1.394   1_554 S
C447   C467    1.432   .     A
C447   C450    1.409   .     A
C448   C449    1.393   .     A
C448   I485    2.129   .     S
C449   C461    1.392   .     A
C449   H481    1.084   .     S
C450   C461    1.391   .     A
C450   H480    1.078   .     S
C451   C515    1.334   .     S
C451   H533    1.088   .     S
C453   C460    1.397   .     A
C453   H484    1.083   .     S
C453   C462    1.393   .     A
C454   C457    1.452   .     S
C454   C77     1.332   1_565 S
C454   H100    1.088   1_565 S
C455   C456    1.436   .     S
C456   O493    1.275   .     A
C456   O499    1.275   .     A
C457   O494    1.271   .     A
C457   O500    1.271   .     A
C458   O491    1.273   .     A
C458   O489    1.274   .     A
C458   C461    1.454   .     S
C459   O492    1.284   .     A
C459   C460    1.472   .     S
C459   O490    1.283   .     A
C460   C463    1.397   .     A
C462   C465    1.411   .     A
C462   H483    1.083   .     S
C463   H471    1.076   .     S
C463   C464    1.411   .     A
C464   C465    1.419   .     A
C464   C466    1.423   .     A
C465   C1036   1.405   .     S
C466   C1034   1.422   .     S
C467   C468    1.425   .     A
C467   C1033   1.422   1_554 S
C468   N487    1.436   .     S
C468   C469    1.412   .     A
C469   N486    1.437   .     S
C469   C1032   1.405   1_554 S
H473   N486    1.045   .     S
H474   N486    1.045   .     S
H475   N487    1.045   .     S
H476   N487    1.045   .     S
H477   C515    1.086   .     S
H479   C77     1.086   1_565 S
O488   Zn502   1.941   .     S
O488   Zn503   1.932   .     S
O488   Zn501   1.955   .     S
O488   Zn504   1.935   .     S
O489   Zn502   1.928   .     S
O490   Zn504   1.935   .     S
O491   Zn503   1.932   .     S
O492   Zn501   1.925   .     S
O493   Zn501   1.928   .     S
O494   Zn504   1.930   .     S
O495   Zn502   1.928   .     S
O496   Zn503   1.936   .     S
O497   Zn504   1.931   .     S
O498   Zn501   1.925   .     S
O499   Zn502   1.935   .     S
O500   Zn503   1.931   .     S
C505   O558    1.270   .     A
C505   C515    1.437   .     S
C505   O560    1.270   .     A
C506   C507    1.384   .     A
C506   C529    1.413   .     A
C506   H535    1.077   .     S
C507   H545    1.081   .     S
C507   C1076   1.394   .     S
C508   O559    1.279   .     A
C508   C514    1.454   .     S
C508   O561    1.276   .     A
C509   C510    1.425   .     A
C509   C511    1.415   .     A
C509   C1074   1.394   1_554 S
C510   C530    1.432   .     A
C510   C513    1.409   .     A
C511   C512    1.393   .     A
C511   I548    2.129   .     S
C512   C524    1.392   .     A
C512   H544    1.084   .     S
C513   C524    1.391   .     A
C513   H543    1.078   .     S
C514   C389    1.334   1_655 S
C514   H407    1.088   1_655 S
C516   C523    1.397   .     A
C516   H547    1.083   .     S
C516   C525    1.393   .     A
C517   C520    1.452   .     S
C517   C140    1.332   1_565 S
C517   H163    1.088   1_565 S
C518   C519    1.436   .     S
C519   O556    1.275   .     A
C519   O562    1.275   .     A
C520   O557    1.271   .     A
C520   O563    1.271   .     A
C521   O554    1.273   .     A
C521   O552    1.274   .     A
C521   C524    1.454   .     S
C522   O555    1.284   .     A
C522   C523    1.472   .     S
C522   O553    1.283   .     A
C523   C526    1.397   .     A
C525   C528    1.411   .     A
C525   H546    1.083   .     S
C526   H534    1.076   .     S
C526   C527    1.411   .     A
C527   C528    1.419   .     A
C527   C529    1.423   .     A
C528   C1099   1.405   .     S
C529   C1097   1.422   .     S
C530   C531    1.425   .     A
C530   C1096   1.422   1_554 S
C531   N550    1.436   .     S
C531   C532    1.412   .     A
C532   N549    1.437   .     S
C532   C1095   1.405   1_554 S
H536   N549    1.045   .     S
H537   N549    1.045   .     S
H538   N550    1.045   .     S
H539   N550    1.045   .     S
H540   C389    1.086   1_655 S
H542   C140    1.086   1_565 S
O551   Zn565   1.941   .     S
O551   Zn566   1.932   .     S
O551   Zn564   1.955   .     S
O551   Zn567   1.935   .     S
O552   Zn565   1.928   .     S
O553   Zn567   1.935   .     S
O554   Zn566   1.932   .     S
O555   Zn564   1.925   .     S
O556   Zn564   1.928   .     S
O557   Zn567   1.930   .     S
O558   Zn565   1.928   .     S
O559   Zn566   1.936   .     S
O560   Zn567   1.931   .     S
O561   Zn564   1.925   .     S
O562   Zn565   1.935   .     S
O563   Zn566   1.931   .     S
C568   O621    1.270   .     A
C568   C578    1.437   .     S
C568   O623    1.270   .     A
C569   C570    1.384   .     A
C569   C592    1.413   .     A
C569   H598    1.077   .     S
C570   H608    1.081   .     S
C570   C5      1.394   1_556 S
C571   O622    1.279   .     A
C571   C577    1.454   .     S
C571   O624    1.276   .     A
C572   C573    1.425   .     A
C572   C574    1.415   .     A
C573   C593    1.432   .     A
C573   C576    1.409   .     A
C574   C575    1.393   .     A
C574   I611    2.129   .     S
C575   C587    1.392   .     A
C575   H607    1.084   .     S
C576   C587    1.391   .     A
C576   H606    1.078   .     S
C577   C641    1.334   .     S
C577   H659    1.088   .     S
C578   C703    1.334   1_455 S
C578   H729    1.086   1_455 S
C579   C586    1.397   .     A
C579   H610    1.083   .     S
C579   C588    1.393   .     A
C580   C583    1.452   .     S
C580   C770    1.332   .     S
C580   H793    1.088   .     S
C581   C582    1.436   .     S
C581   C958    1.332   1_545 S
C581   H983    1.086   1_545 S
C582   O619    1.275   .     A
C582   O625    1.275   .     A
C583   O620    1.271   .     A
C583   O626    1.271   .     A
C584   O617    1.273   .     A
C584   O615    1.274   .     A
C584   C587    1.454   .     S
C585   O618    1.284   .     A
C585   C586    1.472   .     S
C585   O616    1.283   .     A
C586   C589    1.397   .     A
C588   C591    1.411   .     A
C588   H609    1.083   .     S
C589   H597    1.076   .     S
C589   C590    1.411   .     A
C590   C591    1.419   .     A
C590   C592    1.423   .     A
C591   C28     1.405   1_556 S
C592   C26     1.422   1_556 S
C593   C594    1.425   .     A
C594   N613    1.436   .     S
C594   C595    1.412   .     A
C595   N612    1.437   .     S
H596   C703    1.088   1_455 S
H599   N612    1.045   .     S
H600   N612    1.045   .     S
H601   N613    1.045   .     S
H602   N613    1.045   .     S
H603   C641    1.086   .     S
H604   C958    1.088   1_545 S
H605   C770    1.086   .     S
O614   Zn628   1.941   .     S
O614   Zn629   1.932   .     S
O614   Zn627   1.955   .     S
O614   Zn630   1.935   .     S
O615   Zn628   1.928   .     S
O616   Zn630   1.935   .     S
O617   Zn629   1.932   .     S
O618   Zn627   1.925   .     S
O619   Zn627   1.928   .     S
O620   Zn630   1.930   .     S
O621   Zn628   1.928   .     S
O622   Zn629   1.936   .     S
O623   Zn630   1.931   .     S
O624   Zn627   1.925   .     S
O625   Zn628   1.935   .     S
O626   Zn629   1.931   .     S
C631   O684    1.270   .     A
C631   C641    1.437   .     S
C631   O686    1.270   .     A
C632   C633    1.384   .     A
C632   C655    1.413   .     A
C632   H661    1.077   .     S
C633   H671    1.081   .     S
C633   C68     1.394   1_556 S
C634   O685    1.279   .     A
C634   C640    1.454   .     S
C634   O687    1.276   .     A
C635   C636    1.425   .     A
C635   C637    1.415   .     A
C636   C656    1.432   .     A
C636   C639    1.409   .     A
C637   C638    1.393   .     A
C637   I674    2.129   .     S
C638   C650    1.392   .     A
C638   H670    1.084   .     S
C639   C650    1.391   .     A
C639   H669    1.078   .     S
C640   C704    1.334   .     S
C640   H722    1.088   .     S
C642   C649    1.397   .     A
C642   H673    1.083   .     S
C642   C651    1.393   .     A
C643   C646    1.452   .     S
C643   C833    1.332   .     S
C643   H856    1.088   .     S
C644   C645    1.436   .     S
C644   C1021   1.332   1_545 S
C644   H1046   1.086   1_545 S
C645   O682    1.275   .     A
C645   O688    1.275   .     A
C646   O683    1.271   .     A
C646   O689    1.271   .     A
C647   O680    1.273   .     A
C647   O678    1.274   .     A
C647   C650    1.454   .     S
C648   O681    1.284   .     A
C648   C649    1.472   .     S
C648   O679    1.283   .     A
C649   C652    1.397   .     A
C651   C654    1.411   .     A
C651   H672    1.083   .     S
C652   H660    1.076   .     S
C652   C653    1.411   .     A
C653   C654    1.419   .     A
C653   C655    1.423   .     A
C654   C91     1.405   1_556 S
C655   C89     1.422   1_556 S
C656   C657    1.425   .     A
C657   N676    1.436   .     S
C657   C658    1.412   .     A
C658   N675    1.437   .     S
H662   N675    1.045   .     S
H663   N675    1.045   .     S
H664   N676    1.045   .     S
H665   N676    1.045   .     S
H666   C704    1.086   .     S
H667   C1021   1.088   1_545 S
H668   C833    1.086   .     S
O677   Zn691   1.941   .     S
O677   Zn692   1.932   .     S
O677   Zn690   1.955   .     S
O677   Zn693   1.935   .     S
O678   Zn691   1.928   .     S
O679   Zn693   1.935   .     S
O680   Zn692   1.932   .     S
O681   Zn690   1.925   .     S
O682   Zn690   1.928   .     S
O683   Zn693   1.930   .     S
O684   Zn691   1.928   .     S
O685   Zn692   1.936   .     S
O686   Zn693   1.931   .     S
O687   Zn690   1.925   .     S
O688   Zn691   1.935   .     S
O689   Zn692   1.931   .     S
C694   O747    1.270   .     A
C694   C704    1.437   .     S
C694   O749    1.270   .     A
C695   C696    1.384   .     A
C695   C718    1.413   .     A
C695   H724    1.077   .     S
C696   H734    1.081   .     S
C696   C131    1.394   1_556 S
C697   O748    1.279   .     A
C697   C703    1.454   .     S
C697   O750    1.276   .     A
C698   C699    1.425   .     A
C698   C700    1.415   .     A
C699   C719    1.432   .     A
C699   C702    1.409   .     A
C700   C701    1.393   .     A
C700   I737    2.129   .     S
C701   C713    1.392   .     A
C701   H733    1.084   .     S
C702   C713    1.391   .     A
C702   H732    1.078   .     S
C703   C578    1.334   1_655 S
C703   H596    1.088   1_655 S
C705   C712    1.397   .     A
C705   H736    1.083   .     S
C705   C714    1.393   .     A
C706   C709    1.452   .     S
C706   C896    1.332   .     S
C706   H919    1.088   .     S
C707   C708    1.436   .     S
C707   C1084   1.332   1_545 S
C707   H1109   1.086   1_545 S
C708   O745    1.275   .     A
C708   O751    1.275   .     A
C709   O746    1.271   .     A
C709   O752    1.271   .     A
C710   O743    1.273   .     A
C710   O741    1.274   .     A
C710   C713    1.454   .     S
C711   O744    1.284   .     A
C711   C712    1.472   .     S
C711   O742    1.283   .     A
C712   C715    1.397   .     A
C714   C717    1.411   .     A
C714   H735    1.083   .     S
C715   H723    1.076   .     S
C715   C716    1.411   .     A
C716   C717    1.419   .     A
C716   C718    1.423   .     A
C717   C154    1.405   1_556 S
C718   C152    1.422   1_556 S
C719   C720    1.425   .     A
C720   N739    1.436   .     S
C720   C721    1.412   .     A
C721   N738    1.437   .     S
H725   N738    1.045   .     S
H726   N738    1.045   .     S
H727   N739    1.045   .     S
H728   N739    1.045   .     S
H729   C578    1.086   1_655 S
H730   C1084   1.088   1_545 S
H731   C896    1.086   .     S
O740   Zn754   1.941   .     S
O740   Zn755   1.932   .     S
O740   Zn753   1.955   .     S
O740   Zn756   1.935   .     S
O741   Zn754   1.928   .     S
O742   Zn756   1.935   .     S
O743   Zn755   1.932   .     S
O744   Zn753   1.925   .     S
O745   Zn753   1.928   .     S
O746   Zn756   1.930   .     S
O747   Zn754   1.928   .     S
O748   Zn755   1.936   .     S
O749   Zn756   1.931   .     S
O750   Zn753   1.925   .     S
O751   Zn754   1.935   .     S
O752   Zn755   1.931   .     S
C757   O810    1.270   .     A
C757   C767    1.437   .     S
C757   O812    1.270   .     A
C758   C759    1.384   .     A
C758   C781    1.413   .     A
C758   H787    1.077   .     S
C759   H797    1.081   .     S
C759   C194    1.394   1_556 S
C760   O811    1.279   .     A
C760   C766    1.454   .     S
C760   O813    1.276   .     A
C761   C762    1.425   .     A
C761   C763    1.415   .     A
C762   C782    1.432   .     A
C762   C765    1.409   .     A
C763   C764    1.393   .     A
C763   I800    2.129   .     S
C764   C776    1.392   .     A
C764   H796    1.084   .     S
C765   C776    1.391   .     A
C765   H795    1.078   .     S
C766   C830    1.334   .     S
C766   H848    1.088   .     S
C767   C892    1.334   1_455 S
C767   H918    1.086   1_455 S
C768   C775    1.397   .     A
C768   H799    1.083   .     S
C768   C777    1.393   .     A
C769   C772    1.452   .     S
C769   C959    1.332   .     S
C769   H982    1.088   .     S
C770   C771    1.436   .     S
C771   O808    1.275   .     A
C771   O814    1.275   .     A
C772   O809    1.271   .     A
C772   O815    1.271   .     A
C773   O806    1.273   .     A
C773   O804    1.274   .     A
C773   C776    1.454   .     S
C774   O807    1.284   .     A
C774   C775    1.472   .     S
C774   O805    1.283   .     A
C775   C778    1.397   .     A
C777   C780    1.411   .     A
C777   H798    1.083   .     S
C778   H786    1.076   .     S
C778   C779    1.411   .     A
C779   C780    1.419   .     A
C779   C781    1.423   .     A
C780   C217    1.405   1_556 S
C781   C215    1.422   1_556 S
C782   C783    1.425   .     A
C783   N802    1.436   .     S
C783   C784    1.412   .     A
C784   N801    1.437   .     S
H785   C892    1.088   1_455 S
H788   N801    1.045   .     S
H789   N801    1.045   .     S
H790   N802    1.045   .     S
H791   N802    1.045   .     S
H792   C830    1.086   .     S
H794   C959    1.086   .     S
O803   Zn817   1.941   .     S
O803   Zn818   1.932   .     S
O803   Zn816   1.955   .     S
O803   Zn819   1.935   .     S
O804   Zn817   1.928   .     S
O805   Zn819   1.935   .     S
O806   Zn818   1.932   .     S
O807   Zn816   1.925   .     S
O808   Zn816   1.928   .     S
O809   Zn819   1.930   .     S
O810   Zn817   1.928   .     S
O811   Zn818   1.936   .     S
O812   Zn819   1.931   .     S
O813   Zn816   1.925   .     S
O814   Zn817   1.935   .     S
O815   Zn818   1.931   .     S
C820   O873    1.270   .     A
C820   C830    1.437   .     S
C820   O875    1.270   .     A
C821   C822    1.384   .     A
C821   C844    1.413   .     A
C821   H850    1.077   .     S
C822   H860    1.081   .     S
C822   C257    1.394   1_556 S
C823   O874    1.279   .     A
C823   C829    1.454   .     S
C823   O876    1.276   .     A
C824   C825    1.425   .     A
C824   C826    1.415   .     A
C825   C845    1.432   .     A
C825   C828    1.409   .     A
C826   C827    1.393   .     A
C826   I863    2.129   .     S
C827   C839    1.392   .     A
C827   H859    1.084   .     S
C828   C839    1.391   .     A
C828   H858    1.078   .     S
C829   C893    1.334   .     S
C829   H911    1.088   .     S
C831   C838    1.397   .     A
C831   H862    1.083   .     S
C831   C840    1.393   .     A
C832   C835    1.452   .     S
C832   C1022   1.332   .     S
C832   H1045   1.088   .     S
C833   C834    1.436   .     S
C834   O871    1.275   .     A
C834   O877    1.275   .     A
C835   O872    1.271   .     A
C835   O878    1.271   .     A
C836   O869    1.273   .     A
C836   O867    1.274   .     A
C836   C839    1.454   .     S
C837   O870    1.284   .     A
C837   C838    1.472   .     S
C837   O868    1.283   .     A
C838   C841    1.397   .     A
C840   C843    1.411   .     A
C840   H861    1.083   .     S
C841   H849    1.076   .     S
C841   C842    1.411   .     A
C842   C843    1.419   .     A
C842   C844    1.423   .     A
C843   C280    1.405   1_556 S
C844   C278    1.422   1_556 S
C845   C846    1.425   .     A
C846   N865    1.436   .     S
C846   C847    1.412   .     A
C847   N864    1.437   .     S
H851   N864    1.045   .     S
H852   N864    1.045   .     S
H853   N865    1.045   .     S
H854   N865    1.045   .     S
H855   C893    1.086   .     S
H857   C1022   1.086   .     S
O866   Zn880   1.941   .     S
O866   Zn881   1.932   .     S
O866   Zn879   1.955   .     S
O866   Zn882   1.935   .     S
O867   Zn880   1.928   .     S
O868   Zn882   1.935   .     S
O869   Zn881   1.932   .     S
O870   Zn879   1.925   .     S
O871   Zn879   1.928   .     S
O872   Zn882   1.930   .     S
O873   Zn880   1.928   .     S
O874   Zn881   1.936   .     S
O875   Zn882   1.931   .     S
O876   Zn879   1.925   .     S
O877   Zn880   1.935   .     S
O878   Zn881   1.931   .     S
C883   O936    1.270   .     A
C883   C893    1.437   .     S
C883   O938    1.270   .     A
C884   C885    1.384   .     A
C884   C907    1.413   .     A
C884   H913    1.077   .     S
C885   H923    1.081   .     S
C885   C320    1.394   1_556 S
C886   O937    1.279   .     A
C886   C892    1.454   .     S
C886   O939    1.276   .     A
C887   C888    1.425   .     A
C887   C889    1.415   .     A
C888   C908    1.432   .     A
C888   C891    1.409   .     A
C889   C890    1.393   .     A
C889   I926    2.129   .     S
C890   C902    1.392   .     A
C890   H922    1.084   .     S
C891   C902    1.391   .     A
C891   H921    1.078   .     S
C892   C767    1.334   1_655 S
C892   H785    1.088   1_655 S
C894   C901    1.397   .     A
C894   H925    1.083   .     S
C894   C903    1.393   .     A
C895   C898    1.452   .     S
C895   C1085   1.332   .     S
C895   H1108   1.088   .     S
C896   C897    1.436   .     S
C897   O934    1.275   .     A
C897   O940    1.275   .     A
C898   O935    1.271   .     A
C898   O941    1.271   .     A
C899   O932    1.273   .     A
C899   O930    1.274   .     A
C899   C902    1.454   .     S
C900   O933    1.284   .     A
C900   C901    1.472   .     S
C900   O931    1.283   .     A
C901   C904    1.397   .     A
C903   C906    1.411   .     A
C903   H924    1.083   .     S
C904   H912    1.076   .     S
C904   C905    1.411   .     A
C905   C906    1.419   .     A
C905   C907    1.423   .     A
C906   C343    1.405   1_556 S
C907   C341    1.422   1_556 S
C908   C909    1.425   .     A
C909   N928    1.436   .     S
C909   C910    1.412   .     A
C910   N927    1.437   .     S
H914   N927    1.045   .     S
H915   N927    1.045   .     S
H916   N928    1.045   .     S
H917   N928    1.045   .     S
H918   C767    1.086   1_655 S
H920   C1085   1.086   .     S
O929   Zn943   1.941   .     S
O929   Zn944   1.932   .     S
O929   Zn942   1.955   .     S
O929   Zn945   1.935   .     S
O930   Zn943   1.928   .     S
O931   Zn945   1.935   .     S
O932   Zn944   1.932   .     S
O933   Zn942   1.925   .     S
O934   Zn942   1.928   .     S
O935   Zn945   1.930   .     S
O936   Zn943   1.928   .     S
O937   Zn944   1.936   .     S
O938   Zn945   1.931   .     S
O939   Zn942   1.925   .     S
O940   Zn943   1.935   .     S
O941   Zn944   1.931   .     S
C946   O999    1.270   .     A
C946   C956    1.437   .     S
C946   O1001   1.270   .     A
C947   C948    1.384   .     A
C947   C970    1.413   .     A
C947   H976    1.077   .     S
C948   H986    1.081   .     S
C948   C383    1.394   1_556 S
C949   O1000   1.279   .     A
C949   C955    1.454   .     S
C949   O1002   1.276   .     A
C950   C951    1.425   .     A
C950   C952    1.415   .     A
C951   C971    1.432   .     A
C951   C954    1.409   .     A
C952   C953    1.393   .     A
C952   I989    2.129   .     S
C953   C965    1.392   .     A
C953   H985    1.084   .     S
C954   C965    1.391   .     A
C954   H984    1.078   .     S
C955   C1019   1.334   .     S
C955   H1037   1.088   .     S
C956   C1081   1.334   1_455 S
C956   H1107   1.086   1_455 S
C957   C964    1.397   .     A
C957   H988    1.083   .     S
C957   C966    1.393   .     A
C958   C961    1.452   .     S
C958   C581    1.332   1_565 S
C958   H604    1.088   1_565 S
C959   C960    1.436   .     S
C960   O997    1.275   .     A
C960   O1003   1.275   .     A
C961   O998    1.271   .     A
C961   O1004   1.271   .     A
C962   O995    1.273   .     A
C962   O993    1.274   .     A
C962   C965    1.454   .     S
C963   O996    1.284   .     A
C963   C964    1.472   .     S
C963   O994    1.283   .     A
C964   C967    1.397   .     A
C966   C969    1.411   .     A
C966   H987    1.083   .     S
C967   H975    1.076   .     S
C967   C968    1.411   .     A
C968   C969    1.419   .     A
C968   C970    1.423   .     A
C969   C406    1.405   1_556 S
C970   C404    1.422   1_556 S
C971   C972    1.425   .     A
C972   N991    1.436   .     S
C972   C973    1.412   .     A
C973   N990    1.437   .     S
H974   C1081   1.088   1_455 S
H977   N990    1.045   .     S
H978   N990    1.045   .     S
H979   N991    1.045   .     S
H980   N991    1.045   .     S
H981   C1019   1.086   .     S
H983   C581    1.086   1_565 S
O992   Zn1006  1.941   .     S
O992   Zn1007  1.932   .     S
O992   Zn1005  1.955   .     S
O992   Zn1008  1.935   .     S
O993   Zn1006  1.928   .     S
O994   Zn1008  1.935   .     S
O995   Zn1007  1.932   .     S
O996   Zn1005  1.925   .     S
O997   Zn1005  1.928   .     S
O998   Zn1008  1.930   .     S
O999   Zn1006  1.928   .     S
O1000  Zn1007  1.936   .     S
O1001  Zn1008  1.931   .     S
O1002  Zn1005  1.925   .     S
O1003  Zn1006  1.935   .     S
O1004  Zn1007  1.931   .     S
C1009  O1062   1.270   .     A
C1009  C1019   1.437   .     S
C1009  O1064   1.270   .     A
C1010  C1011   1.384   .     A
C1010  C1033   1.413   .     A
C1010  H1039   1.077   .     S
C1011  H1049   1.081   .     S
C1011  C446    1.394   1_556 S
C1012  O1063   1.279   .     A
C1012  C1018   1.454   .     S
C1012  O1065   1.276   .     A
C1013  C1014   1.425   .     A
C1013  C1015   1.415   .     A
C1014  C1034   1.432   .     A
C1014  C1017   1.409   .     A
C1015  C1016   1.393   .     A
C1015  I1052   2.129   .     S
C1016  C1028   1.392   .     A
C1016  H1048   1.084   .     S
C1017  C1028   1.391   .     A
C1017  H1047   1.078   .     S
C1018  C1082   1.334   .     S
C1018  H1100   1.088   .     S
C1020  C1027   1.397   .     A
C1020  H1051   1.083   .     S
C1020  C1029   1.393   .     A
C1021  C1024   1.452   .     S
C1021  C644    1.332   1_565 S
C1021  H667    1.088   1_565 S
C1022  C1023   1.436   .     S
C1023  O1060   1.275   .     A
C1023  O1066   1.275   .     A
C1024  O1061   1.271   .     A
C1024  O1067   1.271   .     A
C1025  O1058   1.273   .     A
C1025  O1056   1.274   .     A
C1025  C1028   1.454   .     S
C1026  O1059   1.284   .     A
C1026  C1027   1.472   .     S
C1026  O1057   1.283   .     A
C1027  C1030   1.397   .     A
C1029  C1032   1.411   .     A
C1029  H1050   1.083   .     S
C1030  H1038   1.076   .     S
C1030  C1031   1.411   .     A
C1031  C1032   1.419   .     A
C1031  C1033   1.423   .     A
C1032  C469    1.405   1_556 S
C1033  C467    1.422   1_556 S
C1034  C1035   1.425   .     A
C1035  N1054   1.436   .     S
C1035  C1036   1.412   .     A
C1036  N1053   1.437   .     S
H1040  N1053   1.045   .     S
H1041  N1053   1.045   .     S
H1042  N1054   1.045   .     S
H1043  N1054   1.045   .     S
H1044  C1082   1.086   .     S
H1046  C644    1.086   1_565 S
O1055  Zn1069  1.941   .     S
O1055  Zn1070  1.932   .     S
O1055  Zn1068  1.955   .     S
O1055  Zn1071  1.935   .     S
O1056  Zn1069  1.928   .     S
O1057  Zn1071  1.935   .     S
O1058  Zn1070  1.932   .     S
O1059  Zn1068  1.925   .     S
O1060  Zn1068  1.928   .     S
O1061  Zn1071  1.930   .     S
O1062  Zn1069  1.928   .     S
O1063  Zn1070  1.936   .     S
O1064  Zn1071  1.931   .     S
O1065  Zn1068  1.925   .     S
O1066  Zn1069  1.935   .     S
O1067  Zn1070  1.931   .     S
C1072  O1125   1.270   .     A
C1072  C1082   1.437   .     S
C1072  O1127   1.270   .     A
C1073  C1074   1.384   .     A
C1073  C1096   1.413   .     A
C1073  H1102   1.077   .     S
C1074  H1112   1.081   .     S
C1074  C509    1.394   1_556 S
C1075  O1126   1.279   .     A
C1075  C1081   1.454   .     S
C1075  O1128   1.276   .     A
C1076  C1077   1.425   .     A
C1076  C1078   1.415   .     A
C1077  C1097   1.432   .     A
C1077  C1080   1.409   .     A
C1078  C1079   1.393   .     A
C1078  I1115   2.129   .     S
C1079  C1091   1.392   .     A
C1079  H1111   1.084   .     S
C1080  C1091   1.391   .     A
C1080  H1110   1.078   .     S
C1081  C956    1.334   1_655 S
C1081  H974    1.088   1_655 S
C1083  C1090   1.397   .     A
C1083  H1114   1.083   .     S
C1083  C1092   1.393   .     A
C1084  C1087   1.452   .     S
C1084  C707    1.332   1_565 S
C1084  H730    1.088   1_565 S
C1085  C1086   1.436   .     S
C1086  O1123   1.275   .     A
C1086  O1129   1.275   .     A
C1087  O1124   1.271   .     A
C1087  O1130   1.271   .     A
C1088  O1121   1.273   .     A
C1088  O1119   1.274   .     A
C1088  C1091   1.454   .     S
C1089  O1122   1.284   .     A
C1089  C1090   1.472   .     S
C1089  O1120   1.283   .     A
C1090  C1093   1.397   .     A
C1092  C1095   1.411   .     A
C1092  H1113   1.083   .     S
C1093  H1101   1.076   .     S
C1093  C1094   1.411   .     A
C1094  C1095   1.419   .     A
C1094  C1096   1.423   .     A
C1095  C532    1.405   1_556 S
C1096  C530    1.422   1_556 S
C1097  C1098   1.425   .     A
C1098  N1117   1.436   .     S
C1098  C1099   1.412   .     A
C1099  N1116   1.437   .     S
H1103  N1116   1.045   .     S
H1104  N1116   1.045   .     S
H1105  N1117   1.045   .     S
H1106  N1117   1.045   .     S
H1107  C956    1.086   1_655 S
H1109  C707    1.086   1_565 S
O1118  Zn1132  1.941   .     S
O1118  Zn1133  1.932   .     S
O1118  Zn1131  1.955   .     S
O1118  Zn1134  1.935   .     S
O1119  Zn1132  1.928   .     S
O1120  Zn1134  1.935   .     S
O1121  Zn1133  1.932   .     S
O1122  Zn1131  1.925   .     S
O1123  Zn1131  1.928   .     S
O1124  Zn1134  1.930   .     S
O1125  Zn1132  1.928   .     S
O1126  Zn1133  1.936   .     S
O1127  Zn1134  1.931   .     S
O1128  Zn1131  1.925   .     S
O1129  Zn1132  1.935   .     S
O1130  Zn1133  1.931   .     S
