data_str_m1_o10_o18_pcu_sym.173
_audit_creation_date              2020-01-03
_audit_creation_method            'Materials Studio'
_symmetry_space_group_name_H-M    'P1'
_symmetry_Int_Tables_number       1
_symmetry_cell_setting            triclinic
loop_
_symmetry_equiv_pos_as_xyz
  x,y,z
_cell_length_a                    32.4995
_cell_length_b                    32.6244
_cell_length_c                    35.8298
_cell_angle_alpha                 98.3012
_cell_angle_beta                  72.9403
_cell_angle_gamma                 98.3097
loop_
_atom_site_label
_atom_site_type_symbol
_atom_site_fract_x
_atom_site_fract_y
_atom_site_fract_z
_atom_site_U_iso_or_equiv
_atom_site_adp_type
_atom_site_occupancy
C1     C     0.05248   0.15999   0.25884   0.00000  Uiso   1.00
C2     C     0.19562   0.12836   0.46081   0.00000  Uiso   1.00
C3     C     0.21755   0.10991   0.48064   0.00000  Uiso   1.00
C4     C     0.28101   0.17361   0.24127   0.00000  Uiso   1.00
C5     C     0.21053   0.11943   0.02097   0.00000  Uiso   1.00
C6     C     0.17908   0.14650   0.04244   0.00000  Uiso   1.00
C7     C     0.23417   0.10139   0.04018   0.00000  Uiso   1.00
C8     C     0.22718   0.11003   0.08057   0.00000  Uiso   1.00
C9     C     0.17309   0.15510   0.08325   0.00000  Uiso   1.00
C10    C     0.32701   0.17629   0.23778   0.00000  Uiso   1.00
C11    C     0.00705   0.15786   0.26239   0.00000  Uiso   1.00
C12    C     0.09689   0.21243   0.42084   0.00000  Uiso   1.00
C13    C     0.17849   0.32184   0.23814   0.00000  Uiso   1.00
C14    C     0.15034   0.01254   0.26389   0.00000  Uiso   1.00
C15    C     0.15635   0.05629   0.25864   0.00000  Uiso   1.00
C16    C     0.17654   0.27766   0.24153   0.00000  Uiso   1.00
C17    C     0.18824   0.14523   0.14418   0.00000  Uiso   1.00
C18    C     0.14566   0.18800   0.35610   0.00000  Uiso   1.00
C19    C     0.13469   0.19471   0.39922   0.00000  Uiso   1.00
C20    C     0.19667   0.13682   0.10192   0.00000  Uiso   1.00
C21    C     0.08496   0.21600   0.46165   0.00000  Uiso   1.00
C22    C     0.08537   0.02005   0.31305   0.00000  Uiso   1.00
C23    C     0.16119   0.18145   0.41894   0.00000  Uiso   1.00
C24    C     0.05170   0.32993   0.34416   0.00000  Uiso   1.00
C25    C     0.23141   0.20943   0.40084   0.00000  Uiso   1.00
C26    C     0.27666   0.20127   0.37565   0.00000  Uiso   1.00
C27    C     0.14590   0.17898   0.46001   0.00000  Uiso   1.00
C28    C     0.10896   0.19929   0.48138   0.00000  Uiso   1.00
C29    C     0.16645   0.15782   0.48054   0.00000  Uiso   1.00
C30    C     0.15524   0.16417   0.02230   0.00000  Uiso   1.00
C31    C     0.11964   0.18665   0.04245   0.00000  Uiso   1.00
C32    C     0.09627   0.20278   0.02225   0.00000  Uiso   1.00
H33    H     0.06828   0.21857   0.03882   0.00000  Uiso   1.00
H34    H     0.07652   0.22356   0.40620   0.00000  Uiso   1.00
H35    H     0.10759   0.19065   0.07399   0.00000  Uiso   1.00
H36    H     0.20051   0.11732   0.43015   0.00000  Uiso   1.00
H37    H     0.07015   0.02397   0.28985   0.00000  Uiso   1.00
H38    H     0.09522   0.05110   0.32720   0.00000  Uiso   1.00
H39    H     0.06566   0.32583   0.36804   0.00000  Uiso   1.00
H40    H     0.02321   0.01439   0.35682   0.00000  Uiso   1.00
H41    H     0.04099   0.29880   0.33088   0.00000  Uiso   1.00
H42    H     0.23253   0.21822   0.43177   0.00000  Uiso   1.00
H43    H     0.22171   0.23594   0.39005   0.00000  Uiso   1.00
H44    H     0.25796   0.08050   0.02395   0.00000  Uiso   1.00
H45    H     0.27666   0.19313   0.34447   0.00000  Uiso   1.00
H46    H     0.29967   0.22959   0.37789   0.00000  Uiso   1.00
H47    H     0.28749   0.17514   0.38580   0.00000  Uiso   1.00
H48    H     0.01678   0.19322   0.21506   0.00000  Uiso   1.00
H49    H     0.31798   0.14089   0.28541   0.00000  Uiso   1.00
H50    H     0.20306   0.00163   0.21375   0.00000  Uiso   1.00
H51    H     0.15100   0.17645   0.10137   0.00000  Uiso   1.00
H52    H     0.24538   0.09576   0.09521   0.00000  Uiso   1.00
H53    H     0.24007   0.08788   0.46425   0.00000  Uiso   1.00
H54    H     0.05620   0.23081   0.47781   0.00000  Uiso   1.00
O55    O     0.16667   0.16667   0.25000   0.00000  Uiso   1.00
O56    O     0.15693   0.12393   0.16625   0.00000  Uiso   1.00
O57    O     0.12687   0.20646   0.33749   0.00000  Uiso   1.00
O58    O     0.21088   0.17493   0.15877   0.00000  Uiso   1.00
O59    O     0.17198   0.16135   0.33749   0.00000  Uiso   1.00
O60    O     0.12139   0.33037   0.29738   0.00000  Uiso   1.00
O61    O     0.20271   0.17303   0.39788   0.00000  Uiso   1.00
O62    O     0.17849   0.08101   0.27821   0.00000  Uiso   1.00
O63    O     0.14581   0.26136   0.26767   0.00000  Uiso   1.00
O64    O     0.07452   0.13251   0.23607   0.00000  Uiso   1.00
O65    O     0.26785   0.19179   0.21806   0.00000  Uiso   1.00
O66    O     0.06990   0.18960   0.27820   0.00000  Uiso   1.00
O67    O     0.25440   0.15277   0.26768   0.00000  Uiso   1.00
O68    O     0.13800   0.06903   0.23607   0.00000  Uiso   1.00
O69    O     0.20437   0.25527   0.21806   0.00000  Uiso   1.00
Zn70   Zn    0.19244   0.14090   0.28278   0.00000  Uiso   1.00
Zn71   Zn    0.13459   0.12378   0.22258   0.00000  Uiso   1.00
Zn72   Zn    0.21166   0.19664   0.21188   0.00000  Uiso   1.00
Zn73   Zn    0.12798   0.20535   0.28277   0.00000  Uiso   1.00
C74    C     0.38581   0.15999   0.25884   0.00000  Uiso   1.00
C75    C     0.52896   0.12836   0.46081   0.00000  Uiso   1.00
C76    C     0.55088   0.10991   0.48064   0.00000  Uiso   1.00
C77    C     0.61434   0.17361   0.24127   0.00000  Uiso   1.00
C78    C     0.54386   0.11943   0.02097   0.00000  Uiso   1.00
C79    C     0.51242   0.14650   0.04244   0.00000  Uiso   1.00
C80    C     0.56750   0.10139   0.04018   0.00000  Uiso   1.00
C81    C     0.56052   0.11003   0.08057   0.00000  Uiso   1.00
C82    C     0.50642   0.15510   0.08325   0.00000  Uiso   1.00
C83    C     0.66035   0.17629   0.23778   0.00000  Uiso   1.00
C84    C     0.34039   0.15786   0.26239   0.00000  Uiso   1.00
C85    C     0.43022   0.21243   0.42084   0.00000  Uiso   1.00
C86    C     0.51183   0.32184   0.23814   0.00000  Uiso   1.00
C87    C     0.48367   0.01254   0.26389   0.00000  Uiso   1.00
C88    C     0.48969   0.05629   0.25864   0.00000  Uiso   1.00
C89    C     0.50987   0.27766   0.24153   0.00000  Uiso   1.00
C90    C     0.52157   0.14523   0.14418   0.00000  Uiso   1.00
C91    C     0.47900   0.18800   0.35610   0.00000  Uiso   1.00
C92    C     0.46802   0.19471   0.39922   0.00000  Uiso   1.00
C93    C     0.53000   0.13682   0.10192   0.00000  Uiso   1.00
C94    C     0.41829   0.21600   0.46165   0.00000  Uiso   1.00
C95    C     0.41870   0.02005   0.31305   0.00000  Uiso   1.00
C96    C     0.49452   0.18145   0.41894   0.00000  Uiso   1.00
C97    C     0.38503   0.32993   0.34416   0.00000  Uiso   1.00
C98    C     0.56474   0.20943   0.40084   0.00000  Uiso   1.00
C99    C     0.61000   0.20127   0.37565   0.00000  Uiso   1.00
C100   C     0.47923   0.17898   0.46001   0.00000  Uiso   1.00
C101   C     0.44230   0.19929   0.48138   0.00000  Uiso   1.00
C102   C     0.49979   0.15782   0.48054   0.00000  Uiso   1.00
C103   C     0.48857   0.16417   0.02230   0.00000  Uiso   1.00
C104   C     0.45298   0.18665   0.04245   0.00000  Uiso   1.00
C105   C     0.42961   0.20278   0.02225   0.00000  Uiso   1.00
H106   H     0.40161   0.21857   0.03882   0.00000  Uiso   1.00
H107   H     0.40985   0.22356   0.40620   0.00000  Uiso   1.00
H108   H     0.44092   0.19065   0.07399   0.00000  Uiso   1.00
H109   H     0.53384   0.11732   0.43015   0.00000  Uiso   1.00
H110   H     0.40348   0.02397   0.28985   0.00000  Uiso   1.00
H111   H     0.42855   0.05110   0.32720   0.00000  Uiso   1.00
H112   H     0.39899   0.32583   0.36804   0.00000  Uiso   1.00
H113   H     0.35654   0.01439   0.35682   0.00000  Uiso   1.00
H114   H     0.37432   0.29880   0.33088   0.00000  Uiso   1.00
H115   H     0.56586   0.21822   0.43177   0.00000  Uiso   1.00
H116   H     0.55504   0.23594   0.39005   0.00000  Uiso   1.00
H117   H     0.59130   0.08050   0.02395   0.00000  Uiso   1.00
H118   H     0.60999   0.19313   0.34447   0.00000  Uiso   1.00
H119   H     0.63300   0.22959   0.37789   0.00000  Uiso   1.00
H120   H     0.62083   0.17514   0.38580   0.00000  Uiso   1.00
H121   H     0.35012   0.19322   0.21506   0.00000  Uiso   1.00
H122   H     0.65131   0.14089   0.28541   0.00000  Uiso   1.00
H123   H     0.53639   0.00163   0.21375   0.00000  Uiso   1.00
H124   H     0.48434   0.17645   0.10137   0.00000  Uiso   1.00
H125   H     0.57872   0.09576   0.09521   0.00000  Uiso   1.00
H126   H     0.57340   0.08788   0.46425   0.00000  Uiso   1.00
H127   H     0.38953   0.23081   0.47781   0.00000  Uiso   1.00
O128   O     0.50000   0.16667   0.25000   0.00000  Uiso   1.00
O129   O     0.49027   0.12393   0.16625   0.00000  Uiso   1.00
O130   O     0.46020   0.20646   0.33749   0.00000  Uiso   1.00
O131   O     0.54421   0.17493   0.15877   0.00000  Uiso   1.00
O132   O     0.50532   0.16135   0.33749   0.00000  Uiso   1.00
O133   O     0.45473   0.33037   0.29738   0.00000  Uiso   1.00
O134   O     0.53604   0.17303   0.39788   0.00000  Uiso   1.00
O135   O     0.51182   0.08101   0.27821   0.00000  Uiso   1.00
O136   O     0.47914   0.26136   0.26767   0.00000  Uiso   1.00
O137   O     0.40785   0.13251   0.23607   0.00000  Uiso   1.00
O138   O     0.60119   0.19179   0.21806   0.00000  Uiso   1.00
O139   O     0.40323   0.18960   0.27820   0.00000  Uiso   1.00
O140   O     0.58773   0.15277   0.26768   0.00000  Uiso   1.00
O141   O     0.47133   0.06903   0.23607   0.00000  Uiso   1.00
O142   O     0.53771   0.25527   0.21806   0.00000  Uiso   1.00
Zn143  Zn    0.52577   0.14090   0.28278   0.00000  Uiso   1.00
Zn144  Zn    0.46792   0.12378   0.22258   0.00000  Uiso   1.00
Zn145  Zn    0.54500   0.19664   0.21188   0.00000  Uiso   1.00
Zn146  Zn    0.46131   0.20535   0.28277   0.00000  Uiso   1.00
C147   C     0.71914   0.15999   0.25884   0.00000  Uiso   1.00
C148   C     0.86229   0.12836   0.46081   0.00000  Uiso   1.00
C149   C     0.88421   0.10991   0.48064   0.00000  Uiso   1.00
C150   C     0.94767   0.17361   0.24127   0.00000  Uiso   1.00
C151   C     0.87720   0.11943   0.02097   0.00000  Uiso   1.00
C152   C     0.84575   0.14650   0.04244   0.00000  Uiso   1.00
C153   C     0.90083   0.10139   0.04018   0.00000  Uiso   1.00
C154   C     0.89385   0.11003   0.08057   0.00000  Uiso   1.00
C155   C     0.83976   0.15510   0.08325   0.00000  Uiso   1.00
C156   C     0.99368   0.17629   0.23778   0.00000  Uiso   1.00
C157   C     0.67372   0.15786   0.26239   0.00000  Uiso   1.00
C158   C     0.76355   0.21243   0.42084   0.00000  Uiso   1.00
C159   C     0.84516   0.32184   0.23814   0.00000  Uiso   1.00
C160   C     0.81701   0.01254   0.26389   0.00000  Uiso   1.00
C161   C     0.82302   0.05629   0.25864   0.00000  Uiso   1.00
C162   C     0.84321   0.27766   0.24153   0.00000  Uiso   1.00
C163   C     0.85491   0.14523   0.14418   0.00000  Uiso   1.00
C164   C     0.81233   0.18800   0.35610   0.00000  Uiso   1.00
C165   C     0.80135   0.19471   0.39922   0.00000  Uiso   1.00
C166   C     0.86334   0.13682   0.10192   0.00000  Uiso   1.00
C167   C     0.75162   0.21600   0.46165   0.00000  Uiso   1.00
C168   C     0.75203   0.02005   0.31305   0.00000  Uiso   1.00
C169   C     0.82786   0.18145   0.41894   0.00000  Uiso   1.00
C170   C     0.71837   0.32993   0.34416   0.00000  Uiso   1.00
C171   C     0.89807   0.20943   0.40084   0.00000  Uiso   1.00
C172   C     0.94333   0.20127   0.37565   0.00000  Uiso   1.00
C173   C     0.81257   0.17898   0.46001   0.00000  Uiso   1.00
C174   C     0.77563   0.19929   0.48138   0.00000  Uiso   1.00
C175   C     0.83312   0.15782   0.48054   0.00000  Uiso   1.00
C176   C     0.82191   0.16417   0.02230   0.00000  Uiso   1.00
C177   C     0.78631   0.18665   0.04245   0.00000  Uiso   1.00
C178   C     0.76294   0.20278   0.02225   0.00000  Uiso   1.00
H179   H     0.73495   0.21857   0.03882   0.00000  Uiso   1.00
H180   H     0.74319   0.22356   0.40620   0.00000  Uiso   1.00
H181   H     0.77426   0.19065   0.07399   0.00000  Uiso   1.00
H182   H     0.86717   0.11732   0.43015   0.00000  Uiso   1.00
H183   H     0.73682   0.02397   0.28985   0.00000  Uiso   1.00
H184   H     0.76188   0.05110   0.32720   0.00000  Uiso   1.00
H185   H     0.73232   0.32583   0.36804   0.00000  Uiso   1.00
H186   H     0.68987   0.01439   0.35682   0.00000  Uiso   1.00
H187   H     0.70766   0.29880   0.33088   0.00000  Uiso   1.00
H188   H     0.89920   0.21822   0.43177   0.00000  Uiso   1.00
H189   H     0.88837   0.23594   0.39005   0.00000  Uiso   1.00
H190   H     0.92463   0.08050   0.02395   0.00000  Uiso   1.00
H191   H     0.94333   0.19313   0.34447   0.00000  Uiso   1.00
H192   H     0.96633   0.22959   0.37789   0.00000  Uiso   1.00
H193   H     0.95416   0.17514   0.38580   0.00000  Uiso   1.00
H194   H     0.68345   0.19322   0.21506   0.00000  Uiso   1.00
H195   H     0.98464   0.14089   0.28541   0.00000  Uiso   1.00
H196   H     0.86973   0.00163   0.21375   0.00000  Uiso   1.00
H197   H     0.81767   0.17645   0.10137   0.00000  Uiso   1.00
H198   H     0.91205   0.09576   0.09521   0.00000  Uiso   1.00
H199   H     0.90674   0.08788   0.46425   0.00000  Uiso   1.00
H200   H     0.72286   0.23081   0.47781   0.00000  Uiso   1.00
O201   O     0.83333   0.16667   0.25000   0.00000  Uiso   1.00
O202   O     0.82360   0.12393   0.16625   0.00000  Uiso   1.00
O203   O     0.79354   0.20646   0.33749   0.00000  Uiso   1.00
O204   O     0.87755   0.17493   0.15877   0.00000  Uiso   1.00
O205   O     0.83865   0.16135   0.33749   0.00000  Uiso   1.00
O206   O     0.78806   0.33037   0.29738   0.00000  Uiso   1.00
O207   O     0.86938   0.17303   0.39788   0.00000  Uiso   1.00
O208   O     0.84515   0.08101   0.27821   0.00000  Uiso   1.00
O209   O     0.81247   0.26136   0.26767   0.00000  Uiso   1.00
O210   O     0.74119   0.13251   0.23607   0.00000  Uiso   1.00
O211   O     0.93452   0.19179   0.21806   0.00000  Uiso   1.00
O212   O     0.73656   0.18960   0.27820   0.00000  Uiso   1.00
O213   O     0.92106   0.15277   0.26768   0.00000  Uiso   1.00
O214   O     0.80467   0.06903   0.23607   0.00000  Uiso   1.00
O215   O     0.87104   0.25527   0.21806   0.00000  Uiso   1.00
Zn216  Zn    0.85910   0.14090   0.28278   0.00000  Uiso   1.00
Zn217  Zn    0.80125   0.12378   0.22258   0.00000  Uiso   1.00
Zn218  Zn    0.87833   0.19664   0.21188   0.00000  Uiso   1.00
Zn219  Zn    0.79465   0.20535   0.28277   0.00000  Uiso   1.00
C220   C     0.05248   0.49332   0.25884   0.00000  Uiso   1.00
C221   C     0.19562   0.46169   0.46081   0.00000  Uiso   1.00
C222   C     0.21755   0.44325   0.48064   0.00000  Uiso   1.00
C223   C     0.28101   0.50694   0.24127   0.00000  Uiso   1.00
C224   C     0.21053   0.45276   0.02097   0.00000  Uiso   1.00
C225   C     0.17908   0.47983   0.04244   0.00000  Uiso   1.00
C226   C     0.23417   0.43472   0.04018   0.00000  Uiso   1.00
C227   C     0.22718   0.44337   0.08057   0.00000  Uiso   1.00
C228   C     0.17309   0.48844   0.08325   0.00000  Uiso   1.00
C229   C     0.32701   0.50962   0.23778   0.00000  Uiso   1.00
C230   C     0.00705   0.49119   0.26239   0.00000  Uiso   1.00
C231   C     0.09689   0.54576   0.42084   0.00000  Uiso   1.00
C232   C     0.17849   0.65518   0.23814   0.00000  Uiso   1.00
C233   C     0.15034   0.34588   0.26389   0.00000  Uiso   1.00
C234   C     0.15635   0.38962   0.25864   0.00000  Uiso   1.00
C235   C     0.17654   0.61099   0.24153   0.00000  Uiso   1.00
C236   C     0.18824   0.47856   0.14418   0.00000  Uiso   1.00
C237   C     0.14566   0.52133   0.35610   0.00000  Uiso   1.00
C238   C     0.13469   0.52804   0.39922   0.00000  Uiso   1.00
C239   C     0.19667   0.47015   0.10192   0.00000  Uiso   1.00
C240   C     0.08496   0.54933   0.46165   0.00000  Uiso   1.00
C241   C     0.08537   0.35338   0.31305   0.00000  Uiso   1.00
C242   C     0.16119   0.51479   0.41894   0.00000  Uiso   1.00
C243   C     0.05170   0.66326   0.34416   0.00000  Uiso   1.00
C244   C     0.23141   0.54277   0.40084   0.00000  Uiso   1.00
C245   C     0.27666   0.53460   0.37565   0.00000  Uiso   1.00
C246   C     0.14590   0.51232   0.46001   0.00000  Uiso   1.00
C247   C     0.10896   0.53263   0.48138   0.00000  Uiso   1.00
C248   C     0.16645   0.49116   0.48054   0.00000  Uiso   1.00
C249   C     0.15524   0.49750   0.02230   0.00000  Uiso   1.00
C250   C     0.11964   0.51998   0.04245   0.00000  Uiso   1.00
C251   C     0.09627   0.53611   0.02225   0.00000  Uiso   1.00
H252   H     0.06828   0.55190   0.03882   0.00000  Uiso   1.00
H253   H     0.07652   0.55689   0.40620   0.00000  Uiso   1.00
H254   H     0.10759   0.52398   0.07399   0.00000  Uiso   1.00
H255   H     0.20051   0.45065   0.43015   0.00000  Uiso   1.00
H256   H     0.07015   0.35731   0.28985   0.00000  Uiso   1.00
H257   H     0.09522   0.38443   0.32720   0.00000  Uiso   1.00
H258   H     0.06566   0.65917   0.36804   0.00000  Uiso   1.00
H259   H     0.02321   0.34773   0.35682   0.00000  Uiso   1.00
H260   H     0.04099   0.63213   0.33088   0.00000  Uiso   1.00
H261   H     0.23253   0.55155   0.43177   0.00000  Uiso   1.00
H262   H     0.22171   0.56927   0.39005   0.00000  Uiso   1.00
H263   H     0.25796   0.41383   0.02395   0.00000  Uiso   1.00
H264   H     0.27666   0.52646   0.34447   0.00000  Uiso   1.00
H265   H     0.29967   0.56293   0.37789   0.00000  Uiso   1.00
H266   H     0.28749   0.50848   0.38580   0.00000  Uiso   1.00
H267   H     0.01678   0.52655   0.21506   0.00000  Uiso   1.00
H268   H     0.31798   0.47423   0.28541   0.00000  Uiso   1.00
H269   H     0.20306   0.33496   0.21375   0.00000  Uiso   1.00
H270   H     0.15100   0.50979   0.10137   0.00000  Uiso   1.00
H271   H     0.24538   0.42909   0.09521   0.00000  Uiso   1.00
H272   H     0.24007   0.42121   0.46425   0.00000  Uiso   1.00
H273   H     0.05620   0.56415   0.47781   0.00000  Uiso   1.00
O274   O     0.16667   0.50000   0.25000   0.00000  Uiso   1.00
O275   O     0.15693   0.45726   0.16625   0.00000  Uiso   1.00
O276   O     0.12687   0.53979   0.33749   0.00000  Uiso   1.00
O277   O     0.21088   0.50826   0.15877   0.00000  Uiso   1.00
O278   O     0.17198   0.49468   0.33749   0.00000  Uiso   1.00
O279   O     0.12139   0.66370   0.29738   0.00000  Uiso   1.00
O280   O     0.20271   0.50636   0.39788   0.00000  Uiso   1.00
O281   O     0.17849   0.41434   0.27821   0.00000  Uiso   1.00
O282   O     0.14581   0.59469   0.26767   0.00000  Uiso   1.00
O283   O     0.07452   0.46584   0.23607   0.00000  Uiso   1.00
O284   O     0.26785   0.52512   0.21806   0.00000  Uiso   1.00
O285   O     0.06990   0.52293   0.27820   0.00000  Uiso   1.00
O286   O     0.25440   0.48610   0.26768   0.00000  Uiso   1.00
O287   O     0.13800   0.40236   0.23607   0.00000  Uiso   1.00
O288   O     0.20437   0.58860   0.21806   0.00000  Uiso   1.00
Zn289  Zn    0.19244   0.47423   0.28278   0.00000  Uiso   1.00
Zn290  Zn    0.13459   0.45711   0.22258   0.00000  Uiso   1.00
Zn291  Zn    0.21166   0.52997   0.21188   0.00000  Uiso   1.00
Zn292  Zn    0.12798   0.53868   0.28277   0.00000  Uiso   1.00
C293   C     0.38581   0.49332   0.25884   0.00000  Uiso   1.00
C294   C     0.52896   0.46169   0.46081   0.00000  Uiso   1.00
C295   C     0.55088   0.44325   0.48064   0.00000  Uiso   1.00
C296   C     0.61434   0.50694   0.24127   0.00000  Uiso   1.00
C297   C     0.54386   0.45276   0.02097   0.00000  Uiso   1.00
C298   C     0.51242   0.47983   0.04244   0.00000  Uiso   1.00
C299   C     0.56750   0.43472   0.04018   0.00000  Uiso   1.00
C300   C     0.56052   0.44337   0.08057   0.00000  Uiso   1.00
C301   C     0.50642   0.48844   0.08325   0.00000  Uiso   1.00
C302   C     0.66035   0.50962   0.23778   0.00000  Uiso   1.00
C303   C     0.34039   0.49119   0.26239   0.00000  Uiso   1.00
C304   C     0.43022   0.54576   0.42084   0.00000  Uiso   1.00
C305   C     0.51183   0.65518   0.23814   0.00000  Uiso   1.00
C306   C     0.48367   0.34588   0.26389   0.00000  Uiso   1.00
C307   C     0.48969   0.38962   0.25864   0.00000  Uiso   1.00
C308   C     0.50987   0.61099   0.24153   0.00000  Uiso   1.00
C309   C     0.52157   0.47856   0.14418   0.00000  Uiso   1.00
C310   C     0.47900   0.52133   0.35610   0.00000  Uiso   1.00
C311   C     0.46802   0.52804   0.39922   0.00000  Uiso   1.00
C312   C     0.53000   0.47015   0.10192   0.00000  Uiso   1.00
C313   C     0.41829   0.54933   0.46165   0.00000  Uiso   1.00
C314   C     0.41870   0.35338   0.31305   0.00000  Uiso   1.00
C315   C     0.49452   0.51479   0.41894   0.00000  Uiso   1.00
C316   C     0.38503   0.66326   0.34416   0.00000  Uiso   1.00
C317   C     0.56474   0.54277   0.40084   0.00000  Uiso   1.00
C318   C     0.61000   0.53460   0.37565   0.00000  Uiso   1.00
C319   C     0.47923   0.51232   0.46001   0.00000  Uiso   1.00
C320   C     0.44230   0.53263   0.48138   0.00000  Uiso   1.00
C321   C     0.49979   0.49116   0.48054   0.00000  Uiso   1.00
C322   C     0.48857   0.49750   0.02230   0.00000  Uiso   1.00
C323   C     0.45298   0.51998   0.04245   0.00000  Uiso   1.00
C324   C     0.42961   0.53611   0.02225   0.00000  Uiso   1.00
H325   H     0.40161   0.55190   0.03882   0.00000  Uiso   1.00
H326   H     0.40985   0.55689   0.40620   0.00000  Uiso   1.00
H327   H     0.44092   0.52398   0.07399   0.00000  Uiso   1.00
H328   H     0.53384   0.45065   0.43015   0.00000  Uiso   1.00
H329   H     0.40348   0.35731   0.28985   0.00000  Uiso   1.00
H330   H     0.42855   0.38443   0.32720   0.00000  Uiso   1.00
H331   H     0.39899   0.65917   0.36804   0.00000  Uiso   1.00
H332   H     0.35654   0.34773   0.35682   0.00000  Uiso   1.00
H333   H     0.37432   0.63213   0.33088   0.00000  Uiso   1.00
H334   H     0.56586   0.55155   0.43177   0.00000  Uiso   1.00
H335   H     0.55504   0.56927   0.39005   0.00000  Uiso   1.00
H336   H     0.59130   0.41383   0.02395   0.00000  Uiso   1.00
H337   H     0.60999   0.52646   0.34447   0.00000  Uiso   1.00
H338   H     0.63300   0.56293   0.37789   0.00000  Uiso   1.00
H339   H     0.62083   0.50848   0.38580   0.00000  Uiso   1.00
H340   H     0.35012   0.52655   0.21506   0.00000  Uiso   1.00
H341   H     0.65131   0.47423   0.28541   0.00000  Uiso   1.00
H342   H     0.53639   0.33496   0.21375   0.00000  Uiso   1.00
H343   H     0.48434   0.50979   0.10137   0.00000  Uiso   1.00
H344   H     0.57872   0.42909   0.09521   0.00000  Uiso   1.00
H345   H     0.57340   0.42121   0.46425   0.00000  Uiso   1.00
H346   H     0.38953   0.56415   0.47781   0.00000  Uiso   1.00
O347   O     0.50000   0.50000   0.25000   0.00000  Uiso   1.00
O348   O     0.49027   0.45726   0.16625   0.00000  Uiso   1.00
O349   O     0.46020   0.53979   0.33749   0.00000  Uiso   1.00
O350   O     0.54421   0.50826   0.15877   0.00000  Uiso   1.00
O351   O     0.50532   0.49468   0.33749   0.00000  Uiso   1.00
O352   O     0.45473   0.66370   0.29738   0.00000  Uiso   1.00
O353   O     0.53604   0.50636   0.39788   0.00000  Uiso   1.00
O354   O     0.51182   0.41434   0.27821   0.00000  Uiso   1.00
O355   O     0.47914   0.59469   0.26767   0.00000  Uiso   1.00
O356   O     0.40785   0.46584   0.23607   0.00000  Uiso   1.00
O357   O     0.60119   0.52512   0.21806   0.00000  Uiso   1.00
O358   O     0.40323   0.52293   0.27820   0.00000  Uiso   1.00
O359   O     0.58773   0.48610   0.26768   0.00000  Uiso   1.00
O360   O     0.47133   0.40236   0.23607   0.00000  Uiso   1.00
O361   O     0.53771   0.58860   0.21806   0.00000  Uiso   1.00
Zn362  Zn    0.52577   0.47423   0.28278   0.00000  Uiso   1.00
Zn363  Zn    0.46792   0.45711   0.22258   0.00000  Uiso   1.00
Zn364  Zn    0.54500   0.52997   0.21188   0.00000  Uiso   1.00
Zn365  Zn    0.46131   0.53868   0.28277   0.00000  Uiso   1.00
C366   C     0.71914   0.49332   0.25884   0.00000  Uiso   1.00
C367   C     0.86229   0.46169   0.46081   0.00000  Uiso   1.00
C368   C     0.88421   0.44325   0.48064   0.00000  Uiso   1.00
C369   C     0.94767   0.50694   0.24127   0.00000  Uiso   1.00
C370   C     0.87720   0.45276   0.02097   0.00000  Uiso   1.00
C371   C     0.84575   0.47983   0.04244   0.00000  Uiso   1.00
C372   C     0.90083   0.43472   0.04018   0.00000  Uiso   1.00
C373   C     0.89385   0.44337   0.08057   0.00000  Uiso   1.00
C374   C     0.83976   0.48844   0.08325   0.00000  Uiso   1.00
C375   C     0.99368   0.50962   0.23778   0.00000  Uiso   1.00
C376   C     0.67372   0.49119   0.26239   0.00000  Uiso   1.00
C377   C     0.76355   0.54576   0.42084   0.00000  Uiso   1.00
C378   C     0.84516   0.65518   0.23814   0.00000  Uiso   1.00
C379   C     0.81701   0.34588   0.26389   0.00000  Uiso   1.00
C380   C     0.82302   0.38962   0.25864   0.00000  Uiso   1.00
C381   C     0.84321   0.61099   0.24153   0.00000  Uiso   1.00
C382   C     0.85491   0.47856   0.14418   0.00000  Uiso   1.00
C383   C     0.81233   0.52133   0.35610   0.00000  Uiso   1.00
C384   C     0.80135   0.52804   0.39922   0.00000  Uiso   1.00
C385   C     0.86334   0.47015   0.10192   0.00000  Uiso   1.00
C386   C     0.75162   0.54933   0.46165   0.00000  Uiso   1.00
C387   C     0.75203   0.35338   0.31305   0.00000  Uiso   1.00
C388   C     0.82786   0.51479   0.41894   0.00000  Uiso   1.00
C389   C     0.71837   0.66326   0.34416   0.00000  Uiso   1.00
C390   C     0.89807   0.54277   0.40084   0.00000  Uiso   1.00
C391   C     0.94333   0.53460   0.37565   0.00000  Uiso   1.00
C392   C     0.81257   0.51232   0.46001   0.00000  Uiso   1.00
C393   C     0.77563   0.53263   0.48138   0.00000  Uiso   1.00
C394   C     0.83312   0.49116   0.48054   0.00000  Uiso   1.00
C395   C     0.82191   0.49750   0.02230   0.00000  Uiso   1.00
C396   C     0.78631   0.51998   0.04245   0.00000  Uiso   1.00
C397   C     0.76294   0.53611   0.02225   0.00000  Uiso   1.00
H398   H     0.73495   0.55190   0.03882   0.00000  Uiso   1.00
H399   H     0.74319   0.55689   0.40620   0.00000  Uiso   1.00
H400   H     0.77426   0.52398   0.07399   0.00000  Uiso   1.00
H401   H     0.86717   0.45065   0.43015   0.00000  Uiso   1.00
H402   H     0.73682   0.35731   0.28985   0.00000  Uiso   1.00
H403   H     0.76188   0.38443   0.32720   0.00000  Uiso   1.00
H404   H     0.73232   0.65917   0.36804   0.00000  Uiso   1.00
H405   H     0.68987   0.34773   0.35682   0.00000  Uiso   1.00
H406   H     0.70766   0.63213   0.33088   0.00000  Uiso   1.00
H407   H     0.89920   0.55155   0.43177   0.00000  Uiso   1.00
H408   H     0.88837   0.56927   0.39005   0.00000  Uiso   1.00
H409   H     0.92463   0.41383   0.02395   0.00000  Uiso   1.00
H410   H     0.94333   0.52646   0.34447   0.00000  Uiso   1.00
H411   H     0.96633   0.56293   0.37789   0.00000  Uiso   1.00
H412   H     0.95416   0.50848   0.38580   0.00000  Uiso   1.00
H413   H     0.68345   0.52655   0.21506   0.00000  Uiso   1.00
H414   H     0.98464   0.47423   0.28541   0.00000  Uiso   1.00
H415   H     0.86973   0.33496   0.21375   0.00000  Uiso   1.00
H416   H     0.81767   0.50979   0.10137   0.00000  Uiso   1.00
H417   H     0.91205   0.42909   0.09521   0.00000  Uiso   1.00
H418   H     0.90674   0.42121   0.46425   0.00000  Uiso   1.00
H419   H     0.72286   0.56415   0.47781   0.00000  Uiso   1.00
O420   O     0.83333   0.50000   0.25000   0.00000  Uiso   1.00
O421   O     0.82360   0.45726   0.16625   0.00000  Uiso   1.00
O422   O     0.79354   0.53979   0.33749   0.00000  Uiso   1.00
O423   O     0.87755   0.50826   0.15877   0.00000  Uiso   1.00
O424   O     0.83865   0.49468   0.33749   0.00000  Uiso   1.00
O425   O     0.78806   0.66370   0.29738   0.00000  Uiso   1.00
O426   O     0.86938   0.50636   0.39788   0.00000  Uiso   1.00
O427   O     0.84515   0.41434   0.27821   0.00000  Uiso   1.00
O428   O     0.81247   0.59469   0.26767   0.00000  Uiso   1.00
O429   O     0.74119   0.46584   0.23607   0.00000  Uiso   1.00
O430   O     0.93452   0.52512   0.21806   0.00000  Uiso   1.00
O431   O     0.73656   0.52293   0.27820   0.00000  Uiso   1.00
O432   O     0.92106   0.48610   0.26768   0.00000  Uiso   1.00
O433   O     0.80467   0.40236   0.23607   0.00000  Uiso   1.00
O434   O     0.87104   0.58860   0.21806   0.00000  Uiso   1.00
Zn435  Zn    0.85910   0.47423   0.28278   0.00000  Uiso   1.00
Zn436  Zn    0.80125   0.45711   0.22258   0.00000  Uiso   1.00
Zn437  Zn    0.87833   0.52997   0.21188   0.00000  Uiso   1.00
Zn438  Zn    0.79465   0.53868   0.28277   0.00000  Uiso   1.00
C439   C     0.05248   0.82666   0.25884   0.00000  Uiso   1.00
C440   C     0.19562   0.79503   0.46081   0.00000  Uiso   1.00
C441   C     0.21755   0.77658   0.48064   0.00000  Uiso   1.00
C442   C     0.28101   0.84027   0.24127   0.00000  Uiso   1.00
C443   C     0.21053   0.78609   0.02097   0.00000  Uiso   1.00
C444   C     0.17908   0.81317   0.04244   0.00000  Uiso   1.00
C445   C     0.23417   0.76805   0.04018   0.00000  Uiso   1.00
C446   C     0.22718   0.77670   0.08057   0.00000  Uiso   1.00
C447   C     0.17309   0.82177   0.08325   0.00000  Uiso   1.00
C448   C     0.32701   0.84295   0.23778   0.00000  Uiso   1.00
C449   C     0.00705   0.82452   0.26239   0.00000  Uiso   1.00
C450   C     0.09689   0.87909   0.42084   0.00000  Uiso   1.00
C451   C     0.17849   0.98851   0.23814   0.00000  Uiso   1.00
C452   C     0.15034   0.67921   0.26389   0.00000  Uiso   1.00
C453   C     0.15635   0.72296   0.25864   0.00000  Uiso   1.00
C454   C     0.17654   0.94433   0.24153   0.00000  Uiso   1.00
C455   C     0.18824   0.81189   0.14418   0.00000  Uiso   1.00
C456   C     0.14566   0.85466   0.35610   0.00000  Uiso   1.00
C457   C     0.13469   0.86138   0.39922   0.00000  Uiso   1.00
C458   C     0.19667   0.80348   0.10192   0.00000  Uiso   1.00
C459   C     0.08496   0.88266   0.46165   0.00000  Uiso   1.00
C460   C     0.08537   0.68672   0.31305   0.00000  Uiso   1.00
C461   C     0.16119   0.84812   0.41894   0.00000  Uiso   1.00
C462   C     0.05170   0.99660   0.34416   0.00000  Uiso   1.00
C463   C     0.23141   0.87610   0.40084   0.00000  Uiso   1.00
C464   C     0.27666   0.86794   0.37565   0.00000  Uiso   1.00
C465   C     0.14590   0.84565   0.46001   0.00000  Uiso   1.00
C466   C     0.10896   0.86596   0.48138   0.00000  Uiso   1.00
C467   C     0.16645   0.82449   0.48054   0.00000  Uiso   1.00
C468   C     0.15524   0.83084   0.02230   0.00000  Uiso   1.00
C469   C     0.11964   0.85332   0.04245   0.00000  Uiso   1.00
C470   C     0.09627   0.86944   0.02225   0.00000  Uiso   1.00
H471   H     0.06828   0.88523   0.03882   0.00000  Uiso   1.00
H472   H     0.07652   0.89023   0.40620   0.00000  Uiso   1.00
H473   H     0.10759   0.85731   0.07399   0.00000  Uiso   1.00
H474   H     0.20051   0.78398   0.43015   0.00000  Uiso   1.00
H475   H     0.07015   0.69064   0.28985   0.00000  Uiso   1.00
H476   H     0.09522   0.71776   0.32720   0.00000  Uiso   1.00
H477   H     0.06566   0.99250   0.36804   0.00000  Uiso   1.00
H478   H     0.02321   0.68106   0.35682   0.00000  Uiso   1.00
H479   H     0.04099   0.96547   0.33088   0.00000  Uiso   1.00
H480   H     0.23253   0.88488   0.43177   0.00000  Uiso   1.00
H481   H     0.22171   0.90261   0.39005   0.00000  Uiso   1.00
H482   H     0.25796   0.74716   0.02395   0.00000  Uiso   1.00
H483   H     0.27666   0.85979   0.34447   0.00000  Uiso   1.00
H484   H     0.29967   0.89626   0.37789   0.00000  Uiso   1.00
H485   H     0.28749   0.84181   0.38580   0.00000  Uiso   1.00
H486   H     0.01678   0.85989   0.21506   0.00000  Uiso   1.00
H487   H     0.31798   0.80756   0.28541   0.00000  Uiso   1.00
H488   H     0.20306   0.66830   0.21375   0.00000  Uiso   1.00
H489   H     0.15100   0.84312   0.10137   0.00000  Uiso   1.00
H490   H     0.24538   0.76242   0.09521   0.00000  Uiso   1.00
H491   H     0.24007   0.75454   0.46425   0.00000  Uiso   1.00
H492   H     0.05620   0.89748   0.47781   0.00000  Uiso   1.00
O493   O     0.16667   0.83333   0.25000   0.00000  Uiso   1.00
O494   O     0.15693   0.79060   0.16625   0.00000  Uiso   1.00
O495   O     0.12687   0.87313   0.33749   0.00000  Uiso   1.00
O496   O     0.21088   0.84159   0.15877   0.00000  Uiso   1.00
O497   O     0.17198   0.82802   0.33749   0.00000  Uiso   1.00
O498   O     0.12139   0.99704   0.29738   0.00000  Uiso   1.00
O499   O     0.20271   0.83970   0.39788   0.00000  Uiso   1.00
O500   O     0.17849   0.74768   0.27821   0.00000  Uiso   1.00
O501   O     0.14581   0.92803   0.26767   0.00000  Uiso   1.00
O502   O     0.07452   0.79917   0.23607   0.00000  Uiso   1.00
O503   O     0.26785   0.85845   0.21806   0.00000  Uiso   1.00
O504   O     0.06990   0.85627   0.27820   0.00000  Uiso   1.00
O505   O     0.25440   0.81944   0.26768   0.00000  Uiso   1.00
O506   O     0.13800   0.73570   0.23607   0.00000  Uiso   1.00
O507   O     0.20437   0.92193   0.21806   0.00000  Uiso   1.00
Zn508  Zn    0.19244   0.80756   0.28278   0.00000  Uiso   1.00
Zn509  Zn    0.13459   0.79044   0.22258   0.00000  Uiso   1.00
Zn510  Zn    0.21166   0.86331   0.21188   0.00000  Uiso   1.00
Zn511  Zn    0.12798   0.87202   0.28277   0.00000  Uiso   1.00
C512   C     0.38581   0.82666   0.25884   0.00000  Uiso   1.00
C513   C     0.52896   0.79503   0.46081   0.00000  Uiso   1.00
C514   C     0.55088   0.77658   0.48064   0.00000  Uiso   1.00
C515   C     0.61434   0.84027   0.24127   0.00000  Uiso   1.00
C516   C     0.54386   0.78609   0.02097   0.00000  Uiso   1.00
C517   C     0.51242   0.81317   0.04244   0.00000  Uiso   1.00
C518   C     0.56750   0.76805   0.04018   0.00000  Uiso   1.00
C519   C     0.56052   0.77670   0.08057   0.00000  Uiso   1.00
C520   C     0.50642   0.82177   0.08325   0.00000  Uiso   1.00
C521   C     0.66035   0.84295   0.23778   0.00000  Uiso   1.00
C522   C     0.34039   0.82452   0.26239   0.00000  Uiso   1.00
C523   C     0.43022   0.87909   0.42084   0.00000  Uiso   1.00
C524   C     0.51183   0.98851   0.23814   0.00000  Uiso   1.00
C525   C     0.48367   0.67921   0.26389   0.00000  Uiso   1.00
C526   C     0.48969   0.72296   0.25864   0.00000  Uiso   1.00
C527   C     0.50987   0.94433   0.24153   0.00000  Uiso   1.00
C528   C     0.52157   0.81189   0.14418   0.00000  Uiso   1.00
C529   C     0.47900   0.85466   0.35610   0.00000  Uiso   1.00
C530   C     0.46802   0.86138   0.39922   0.00000  Uiso   1.00
C531   C     0.53000   0.80348   0.10192   0.00000  Uiso   1.00
C532   C     0.41829   0.88266   0.46165   0.00000  Uiso   1.00
C533   C     0.41870   0.68672   0.31305   0.00000  Uiso   1.00
C534   C     0.49452   0.84812   0.41894   0.00000  Uiso   1.00
C535   C     0.38503   0.99660   0.34416   0.00000  Uiso   1.00
C536   C     0.56474   0.87610   0.40084   0.00000  Uiso   1.00
C537   C     0.61000   0.86794   0.37565   0.00000  Uiso   1.00
C538   C     0.47923   0.84565   0.46001   0.00000  Uiso   1.00
C539   C     0.44230   0.86596   0.48138   0.00000  Uiso   1.00
C540   C     0.49979   0.82449   0.48054   0.00000  Uiso   1.00
C541   C     0.48857   0.83084   0.02230   0.00000  Uiso   1.00
C542   C     0.45298   0.85332   0.04245   0.00000  Uiso   1.00
C543   C     0.42961   0.86944   0.02225   0.00000  Uiso   1.00
H544   H     0.40161   0.88523   0.03882   0.00000  Uiso   1.00
H545   H     0.40985   0.89023   0.40620   0.00000  Uiso   1.00
H546   H     0.44092   0.85731   0.07399   0.00000  Uiso   1.00
H547   H     0.53384   0.78398   0.43015   0.00000  Uiso   1.00
H548   H     0.40348   0.69064   0.28985   0.00000  Uiso   1.00
H549   H     0.42855   0.71776   0.32720   0.00000  Uiso   1.00
H550   H     0.39899   0.99250   0.36804   0.00000  Uiso   1.00
H551   H     0.35654   0.68106   0.35682   0.00000  Uiso   1.00
H552   H     0.37432   0.96547   0.33088   0.00000  Uiso   1.00
H553   H     0.56586   0.88488   0.43177   0.00000  Uiso   1.00
H554   H     0.55504   0.90261   0.39005   0.00000  Uiso   1.00
H555   H     0.59130   0.74716   0.02395   0.00000  Uiso   1.00
H556   H     0.60999   0.85979   0.34447   0.00000  Uiso   1.00
H557   H     0.63300   0.89626   0.37789   0.00000  Uiso   1.00
H558   H     0.62083   0.84181   0.38580   0.00000  Uiso   1.00
H559   H     0.35012   0.85989   0.21506   0.00000  Uiso   1.00
H560   H     0.65131   0.80756   0.28541   0.00000  Uiso   1.00
H561   H     0.53639   0.66830   0.21375   0.00000  Uiso   1.00
H562   H     0.48434   0.84312   0.10137   0.00000  Uiso   1.00
H563   H     0.57872   0.76242   0.09521   0.00000  Uiso   1.00
H564   H     0.57340   0.75454   0.46425   0.00000  Uiso   1.00
H565   H     0.38953   0.89748   0.47781   0.00000  Uiso   1.00
O566   O     0.50000   0.83333   0.25000   0.00000  Uiso   1.00
O567   O     0.49027   0.79060   0.16625   0.00000  Uiso   1.00
O568   O     0.46020   0.87313   0.33749   0.00000  Uiso   1.00
O569   O     0.54421   0.84159   0.15877   0.00000  Uiso   1.00
O570   O     0.50532   0.82802   0.33749   0.00000  Uiso   1.00
O571   O     0.45473   0.99704   0.29738   0.00000  Uiso   1.00
O572   O     0.53604   0.83970   0.39788   0.00000  Uiso   1.00
O573   O     0.51182   0.74768   0.27821   0.00000  Uiso   1.00
O574   O     0.47914   0.92803   0.26767   0.00000  Uiso   1.00
O575   O     0.40785   0.79917   0.23607   0.00000  Uiso   1.00
O576   O     0.60119   0.85845   0.21806   0.00000  Uiso   1.00
O577   O     0.40323   0.85627   0.27820   0.00000  Uiso   1.00
O578   O     0.58773   0.81944   0.26768   0.00000  Uiso   1.00
O579   O     0.47133   0.73570   0.23607   0.00000  Uiso   1.00
O580   O     0.53771   0.92193   0.21806   0.00000  Uiso   1.00
Zn581  Zn    0.52577   0.80756   0.28278   0.00000  Uiso   1.00
Zn582  Zn    0.46792   0.79044   0.22258   0.00000  Uiso   1.00
Zn583  Zn    0.54500   0.86331   0.21188   0.00000  Uiso   1.00
Zn584  Zn    0.46131   0.87202   0.28277   0.00000  Uiso   1.00
C585   C     0.71914   0.82666   0.25884   0.00000  Uiso   1.00
C586   C     0.86229   0.79503   0.46081   0.00000  Uiso   1.00
C587   C     0.88421   0.77658   0.48064   0.00000  Uiso   1.00
C588   C     0.94767   0.84027   0.24127   0.00000  Uiso   1.00
C589   C     0.87720   0.78609   0.02097   0.00000  Uiso   1.00
C590   C     0.84575   0.81317   0.04244   0.00000  Uiso   1.00
C591   C     0.90083   0.76805   0.04018   0.00000  Uiso   1.00
C592   C     0.89385   0.77670   0.08057   0.00000  Uiso   1.00
C593   C     0.83976   0.82177   0.08325   0.00000  Uiso   1.00
C594   C     0.99368   0.84295   0.23778   0.00000  Uiso   1.00
C595   C     0.67372   0.82452   0.26239   0.00000  Uiso   1.00
C596   C     0.76355   0.87909   0.42084   0.00000  Uiso   1.00
C597   C     0.84516   0.98851   0.23814   0.00000  Uiso   1.00
C598   C     0.81701   0.67921   0.26389   0.00000  Uiso   1.00
C599   C     0.82302   0.72296   0.25864   0.00000  Uiso   1.00
C600   C     0.84321   0.94433   0.24153   0.00000  Uiso   1.00
C601   C     0.85491   0.81189   0.14418   0.00000  Uiso   1.00
C602   C     0.81233   0.85466   0.35610   0.00000  Uiso   1.00
C603   C     0.80135   0.86138   0.39922   0.00000  Uiso   1.00
C604   C     0.86334   0.80348   0.10192   0.00000  Uiso   1.00
C605   C     0.75162   0.88266   0.46165   0.00000  Uiso   1.00
C606   C     0.75203   0.68672   0.31305   0.00000  Uiso   1.00
C607   C     0.82786   0.84812   0.41894   0.00000  Uiso   1.00
C608   C     0.71837   0.99660   0.34416   0.00000  Uiso   1.00
C609   C     0.89807   0.87610   0.40084   0.00000  Uiso   1.00
C610   C     0.94333   0.86794   0.37565   0.00000  Uiso   1.00
C611   C     0.81257   0.84565   0.46001   0.00000  Uiso   1.00
C612   C     0.77563   0.86596   0.48138   0.00000  Uiso   1.00
C613   C     0.83312   0.82449   0.48054   0.00000  Uiso   1.00
C614   C     0.82191   0.83084   0.02230   0.00000  Uiso   1.00
C615   C     0.78631   0.85332   0.04245   0.00000  Uiso   1.00
C616   C     0.76294   0.86944   0.02225   0.00000  Uiso   1.00
H617   H     0.73495   0.88523   0.03882   0.00000  Uiso   1.00
H618   H     0.74319   0.89023   0.40620   0.00000  Uiso   1.00
H619   H     0.77426   0.85731   0.07399   0.00000  Uiso   1.00
H620   H     0.86717   0.78398   0.43015   0.00000  Uiso   1.00
H621   H     0.73682   0.69064   0.28985   0.00000  Uiso   1.00
H622   H     0.76188   0.71776   0.32720   0.00000  Uiso   1.00
H623   H     0.73232   0.99250   0.36804   0.00000  Uiso   1.00
H624   H     0.68987   0.68106   0.35682   0.00000  Uiso   1.00
H625   H     0.70766   0.96547   0.33088   0.00000  Uiso   1.00
H626   H     0.89920   0.88488   0.43177   0.00000  Uiso   1.00
H627   H     0.88837   0.90261   0.39005   0.00000  Uiso   1.00
H628   H     0.92463   0.74716   0.02395   0.00000  Uiso   1.00
H629   H     0.94333   0.85979   0.34447   0.00000  Uiso   1.00
H630   H     0.96633   0.89626   0.37789   0.00000  Uiso   1.00
H631   H     0.95416   0.84181   0.38580   0.00000  Uiso   1.00
H632   H     0.68345   0.85989   0.21506   0.00000  Uiso   1.00
H633   H     0.98464   0.80756   0.28541   0.00000  Uiso   1.00
H634   H     0.86973   0.66830   0.21375   0.00000  Uiso   1.00
H635   H     0.81767   0.84312   0.10137   0.00000  Uiso   1.00
H636   H     0.91205   0.76242   0.09521   0.00000  Uiso   1.00
H637   H     0.90674   0.75454   0.46425   0.00000  Uiso   1.00
H638   H     0.72286   0.89748   0.47781   0.00000  Uiso   1.00
O639   O     0.83333   0.83333   0.25000   0.00000  Uiso   1.00
O640   O     0.82360   0.79060   0.16625   0.00000  Uiso   1.00
O641   O     0.79354   0.87313   0.33749   0.00000  Uiso   1.00
O642   O     0.87755   0.84159   0.15877   0.00000  Uiso   1.00
O643   O     0.83865   0.82802   0.33749   0.00000  Uiso   1.00
O644   O     0.78806   0.99704   0.29738   0.00000  Uiso   1.00
O645   O     0.86938   0.83970   0.39788   0.00000  Uiso   1.00
O646   O     0.84515   0.74768   0.27821   0.00000  Uiso   1.00
O647   O     0.81247   0.92803   0.26767   0.00000  Uiso   1.00
O648   O     0.74119   0.79917   0.23607   0.00000  Uiso   1.00
O649   O     0.93452   0.85845   0.21806   0.00000  Uiso   1.00
O650   O     0.73656   0.85627   0.27820   0.00000  Uiso   1.00
O651   O     0.92106   0.81944   0.26768   0.00000  Uiso   1.00
O652   O     0.80467   0.73570   0.23607   0.00000  Uiso   1.00
O653   O     0.87104   0.92193   0.21806   0.00000  Uiso   1.00
Zn654  Zn    0.85910   0.80756   0.28278   0.00000  Uiso   1.00
Zn655  Zn    0.80125   0.79044   0.22258   0.00000  Uiso   1.00
Zn656  Zn    0.87833   0.86331   0.21188   0.00000  Uiso   1.00
Zn657  Zn    0.79465   0.87202   0.28277   0.00000  Uiso   1.00
C658   C     0.05248   0.15999   0.75884   0.00000  Uiso   1.00
C659   C     0.19562   0.12836   0.96081   0.00000  Uiso   1.00
C660   C     0.21755   0.10991   0.98064   0.00000  Uiso   1.00
C661   C     0.28101   0.17361   0.74127   0.00000  Uiso   1.00
C662   C     0.21053   0.11943   0.52097   0.00000  Uiso   1.00
C663   C     0.17908   0.14650   0.54244   0.00000  Uiso   1.00
C664   C     0.23417   0.10139   0.54018   0.00000  Uiso   1.00
C665   C     0.22718   0.11003   0.58057   0.00000  Uiso   1.00
C666   C     0.17309   0.15510   0.58325   0.00000  Uiso   1.00
C667   C     0.32701   0.17629   0.73778   0.00000  Uiso   1.00
C668   C     0.00705   0.15786   0.76239   0.00000  Uiso   1.00
C669   C     0.09689   0.21243   0.92084   0.00000  Uiso   1.00
C670   C     0.17849   0.32184   0.73814   0.00000  Uiso   1.00
C671   C     0.15034   0.01254   0.76389   0.00000  Uiso   1.00
C672   C     0.15635   0.05629   0.75864   0.00000  Uiso   1.00
C673   C     0.17654   0.27766   0.74153   0.00000  Uiso   1.00
C674   C     0.18824   0.14523   0.64418   0.00000  Uiso   1.00
C675   C     0.14566   0.18800   0.85610   0.00000  Uiso   1.00
C676   C     0.13469   0.19471   0.89922   0.00000  Uiso   1.00
C677   C     0.19667   0.13682   0.60192   0.00000  Uiso   1.00
C678   C     0.08496   0.21600   0.96165   0.00000  Uiso   1.00
C679   C     0.08537   0.02005   0.81305   0.00000  Uiso   1.00
C680   C     0.16119   0.18145   0.91894   0.00000  Uiso   1.00
C681   C     0.05170   0.32993   0.84416   0.00000  Uiso   1.00
C682   C     0.23141   0.20943   0.90084   0.00000  Uiso   1.00
C683   C     0.27666   0.20127   0.87565   0.00000  Uiso   1.00
C684   C     0.14590   0.17898   0.96001   0.00000  Uiso   1.00
C685   C     0.10896   0.19929   0.98138   0.00000  Uiso   1.00
C686   C     0.16645   0.15782   0.98054   0.00000  Uiso   1.00
C687   C     0.15524   0.16417   0.52230   0.00000  Uiso   1.00
C688   C     0.11964   0.18665   0.54245   0.00000  Uiso   1.00
C689   C     0.09627   0.20278   0.52225   0.00000  Uiso   1.00
H690   H     0.06828   0.21857   0.53882   0.00000  Uiso   1.00
H691   H     0.07652   0.22356   0.90620   0.00000  Uiso   1.00
H692   H     0.10759   0.19065   0.57399   0.00000  Uiso   1.00
H693   H     0.20051   0.11732   0.93015   0.00000  Uiso   1.00
H694   H     0.07015   0.02397   0.78985   0.00000  Uiso   1.00
H695   H     0.09522   0.05110   0.82720   0.00000  Uiso   1.00
H696   H     0.06566   0.32583   0.86804   0.00000  Uiso   1.00
H697   H     0.02321   0.01439   0.85682   0.00000  Uiso   1.00
H698   H     0.04099   0.29880   0.83088   0.00000  Uiso   1.00
H699   H     0.23253   0.21822   0.93177   0.00000  Uiso   1.00
H700   H     0.22171   0.23594   0.89005   0.00000  Uiso   1.00
H701   H     0.25796   0.08050   0.52395   0.00000  Uiso   1.00
H702   H     0.27666   0.19313   0.84447   0.00000  Uiso   1.00
H703   H     0.29967   0.22959   0.87789   0.00000  Uiso   1.00
H704   H     0.28749   0.17514   0.88580   0.00000  Uiso   1.00
H705   H     0.01678   0.19322   0.71506   0.00000  Uiso   1.00
H706   H     0.31798   0.14089   0.78541   0.00000  Uiso   1.00
H707   H     0.20306   0.00163   0.71375   0.00000  Uiso   1.00
H708   H     0.15100   0.17645   0.60137   0.00000  Uiso   1.00
H709   H     0.24538   0.09576   0.59521   0.00000  Uiso   1.00
H710   H     0.24007   0.08788   0.96425   0.00000  Uiso   1.00
H711   H     0.05620   0.23081   0.97781   0.00000  Uiso   1.00
O712   O     0.16667   0.16667   0.75000   0.00000  Uiso   1.00
O713   O     0.15693   0.12393   0.66625   0.00000  Uiso   1.00
O714   O     0.12687   0.20646   0.83749   0.00000  Uiso   1.00
O715   O     0.21088   0.17493   0.65877   0.00000  Uiso   1.00
O716   O     0.17198   0.16135   0.83749   0.00000  Uiso   1.00
O717   O     0.12139   0.33037   0.79738   0.00000  Uiso   1.00
O718   O     0.20271   0.17303   0.89788   0.00000  Uiso   1.00
O719   O     0.17849   0.08101   0.77821   0.00000  Uiso   1.00
O720   O     0.14581   0.26136   0.76767   0.00000  Uiso   1.00
O721   O     0.07452   0.13251   0.73607   0.00000  Uiso   1.00
O722   O     0.26785   0.19179   0.71806   0.00000  Uiso   1.00
O723   O     0.06990   0.18960   0.77820   0.00000  Uiso   1.00
O724   O     0.25440   0.15277   0.76768   0.00000  Uiso   1.00
O725   O     0.13800   0.06903   0.73607   0.00000  Uiso   1.00
O726   O     0.20437   0.25527   0.71806   0.00000  Uiso   1.00
Zn727  Zn    0.19244   0.14090   0.78278   0.00000  Uiso   1.00
Zn728  Zn    0.13459   0.12378   0.72258   0.00000  Uiso   1.00
Zn729  Zn    0.21166   0.19664   0.71188   0.00000  Uiso   1.00
Zn730  Zn    0.12798   0.20535   0.78277   0.00000  Uiso   1.00
C731   C     0.38581   0.15999   0.75884   0.00000  Uiso   1.00
C732   C     0.52896   0.12836   0.96081   0.00000  Uiso   1.00
C733   C     0.55088   0.10991   0.98064   0.00000  Uiso   1.00
C734   C     0.61434   0.17361   0.74127   0.00000  Uiso   1.00
C735   C     0.54386   0.11943   0.52097   0.00000  Uiso   1.00
C736   C     0.51242   0.14650   0.54244   0.00000  Uiso   1.00
C737   C     0.56750   0.10139   0.54018   0.00000  Uiso   1.00
C738   C     0.56052   0.11003   0.58057   0.00000  Uiso   1.00
C739   C     0.50642   0.15510   0.58325   0.00000  Uiso   1.00
C740   C     0.66035   0.17629   0.73778   0.00000  Uiso   1.00
C741   C     0.34039   0.15786   0.76239   0.00000  Uiso   1.00
C742   C     0.43022   0.21243   0.92084   0.00000  Uiso   1.00
C743   C     0.51183   0.32184   0.73814   0.00000  Uiso   1.00
C744   C     0.48367   0.01254   0.76389   0.00000  Uiso   1.00
C745   C     0.48969   0.05629   0.75864   0.00000  Uiso   1.00
C746   C     0.50987   0.27766   0.74153   0.00000  Uiso   1.00
C747   C     0.52157   0.14523   0.64418   0.00000  Uiso   1.00
C748   C     0.47900   0.18800   0.85610   0.00000  Uiso   1.00
C749   C     0.46802   0.19471   0.89922   0.00000  Uiso   1.00
C750   C     0.53000   0.13682   0.60192   0.00000  Uiso   1.00
C751   C     0.41829   0.21600   0.96165   0.00000  Uiso   1.00
C752   C     0.41870   0.02005   0.81305   0.00000  Uiso   1.00
C753   C     0.49452   0.18145   0.91894   0.00000  Uiso   1.00
C754   C     0.38503   0.32993   0.84416   0.00000  Uiso   1.00
C755   C     0.56474   0.20943   0.90084   0.00000  Uiso   1.00
C756   C     0.61000   0.20127   0.87565   0.00000  Uiso   1.00
C757   C     0.47923   0.17898   0.96001   0.00000  Uiso   1.00
C758   C     0.44230   0.19929   0.98138   0.00000  Uiso   1.00
C759   C     0.49979   0.15782   0.98054   0.00000  Uiso   1.00
C760   C     0.48857   0.16417   0.52230   0.00000  Uiso   1.00
C761   C     0.45298   0.18665   0.54245   0.00000  Uiso   1.00
C762   C     0.42961   0.20278   0.52225   0.00000  Uiso   1.00
H763   H     0.40161   0.21857   0.53882   0.00000  Uiso   1.00
H764   H     0.40985   0.22356   0.90620   0.00000  Uiso   1.00
H765   H     0.44092   0.19065   0.57399   0.00000  Uiso   1.00
H766   H     0.53384   0.11732   0.93015   0.00000  Uiso   1.00
H767   H     0.40348   0.02397   0.78985   0.00000  Uiso   1.00
H768   H     0.42855   0.05110   0.82720   0.00000  Uiso   1.00
H769   H     0.39899   0.32583   0.86804   0.00000  Uiso   1.00
H770   H     0.35654   0.01439   0.85682   0.00000  Uiso   1.00
H771   H     0.37432   0.29880   0.83088   0.00000  Uiso   1.00
H772   H     0.56586   0.21822   0.93177   0.00000  Uiso   1.00
H773   H     0.55504   0.23594   0.89005   0.00000  Uiso   1.00
H774   H     0.59130   0.08050   0.52395   0.00000  Uiso   1.00
H775   H     0.60999   0.19313   0.84447   0.00000  Uiso   1.00
H776   H     0.63300   0.22959   0.87789   0.00000  Uiso   1.00
H777   H     0.62083   0.17514   0.88580   0.00000  Uiso   1.00
H778   H     0.35012   0.19322   0.71506   0.00000  Uiso   1.00
H779   H     0.65131   0.14089   0.78541   0.00000  Uiso   1.00
H780   H     0.53639   0.00163   0.71375   0.00000  Uiso   1.00
H781   H     0.48434   0.17645   0.60137   0.00000  Uiso   1.00
H782   H     0.57872   0.09576   0.59521   0.00000  Uiso   1.00
H783   H     0.57340   0.08788   0.96425   0.00000  Uiso   1.00
H784   H     0.38953   0.23081   0.97781   0.00000  Uiso   1.00
O785   O     0.50000   0.16667   0.75000   0.00000  Uiso   1.00
O786   O     0.49027   0.12393   0.66625   0.00000  Uiso   1.00
O787   O     0.46020   0.20646   0.83749   0.00000  Uiso   1.00
O788   O     0.54421   0.17493   0.65877   0.00000  Uiso   1.00
O789   O     0.50532   0.16135   0.83749   0.00000  Uiso   1.00
O790   O     0.45473   0.33037   0.79738   0.00000  Uiso   1.00
O791   O     0.53604   0.17303   0.89788   0.00000  Uiso   1.00
O792   O     0.51182   0.08101   0.77821   0.00000  Uiso   1.00
O793   O     0.47914   0.26136   0.76767   0.00000  Uiso   1.00
O794   O     0.40785   0.13251   0.73607   0.00000  Uiso   1.00
O795   O     0.60119   0.19179   0.71806   0.00000  Uiso   1.00
O796   O     0.40323   0.18960   0.77820   0.00000  Uiso   1.00
O797   O     0.58773   0.15277   0.76768   0.00000  Uiso   1.00
O798   O     0.47133   0.06903   0.73607   0.00000  Uiso   1.00
O799   O     0.53771   0.25527   0.71806   0.00000  Uiso   1.00
Zn800  Zn    0.52577   0.14090   0.78278   0.00000  Uiso   1.00
Zn801  Zn    0.46792   0.12378   0.72258   0.00000  Uiso   1.00
Zn802  Zn    0.54500   0.19664   0.71188   0.00000  Uiso   1.00
Zn803  Zn    0.46131   0.20535   0.78277   0.00000  Uiso   1.00
C804   C     0.71914   0.15999   0.75884   0.00000  Uiso   1.00
C805   C     0.86229   0.12836   0.96081   0.00000  Uiso   1.00
C806   C     0.88421   0.10991   0.98064   0.00000  Uiso   1.00
C807   C     0.94767   0.17361   0.74127   0.00000  Uiso   1.00
C808   C     0.87720   0.11943   0.52097   0.00000  Uiso   1.00
C809   C     0.84575   0.14650   0.54244   0.00000  Uiso   1.00
C810   C     0.90083   0.10139   0.54018   0.00000  Uiso   1.00
C811   C     0.89385   0.11003   0.58057   0.00000  Uiso   1.00
C812   C     0.83976   0.15510   0.58325   0.00000  Uiso   1.00
C813   C     0.99368   0.17629   0.73778   0.00000  Uiso   1.00
C814   C     0.67372   0.15786   0.76239   0.00000  Uiso   1.00
C815   C     0.76355   0.21243   0.92084   0.00000  Uiso   1.00
C816   C     0.84516   0.32184   0.73814   0.00000  Uiso   1.00
C817   C     0.81701   0.01254   0.76389   0.00000  Uiso   1.00
C818   C     0.82302   0.05629   0.75864   0.00000  Uiso   1.00
C819   C     0.84321   0.27766   0.74153   0.00000  Uiso   1.00
C820   C     0.85491   0.14523   0.64418   0.00000  Uiso   1.00
C821   C     0.81233   0.18800   0.85610   0.00000  Uiso   1.00
C822   C     0.80135   0.19471   0.89922   0.00000  Uiso   1.00
C823   C     0.86334   0.13682   0.60192   0.00000  Uiso   1.00
C824   C     0.75162   0.21600   0.96165   0.00000  Uiso   1.00
C825   C     0.75203   0.02005   0.81305   0.00000  Uiso   1.00
C826   C     0.82786   0.18145   0.91894   0.00000  Uiso   1.00
C827   C     0.71837   0.32993   0.84416   0.00000  Uiso   1.00
C828   C     0.89807   0.20943   0.90084   0.00000  Uiso   1.00
C829   C     0.94333   0.20127   0.87565   0.00000  Uiso   1.00
C830   C     0.81257   0.17898   0.96001   0.00000  Uiso   1.00
C831   C     0.77563   0.19929   0.98138   0.00000  Uiso   1.00
C832   C     0.83312   0.15782   0.98054   0.00000  Uiso   1.00
C833   C     0.82191   0.16417   0.52230   0.00000  Uiso   1.00
C834   C     0.78631   0.18665   0.54245   0.00000  Uiso   1.00
C835   C     0.76294   0.20278   0.52225   0.00000  Uiso   1.00
H836   H     0.73495   0.21857   0.53882   0.00000  Uiso   1.00
H837   H     0.74319   0.22356   0.90620   0.00000  Uiso   1.00
H838   H     0.77426   0.19065   0.57399   0.00000  Uiso   1.00
H839   H     0.86717   0.11732   0.93015   0.00000  Uiso   1.00
H840   H     0.73682   0.02397   0.78985   0.00000  Uiso   1.00
H841   H     0.76188   0.05110   0.82720   0.00000  Uiso   1.00
H842   H     0.73232   0.32583   0.86804   0.00000  Uiso   1.00
H843   H     0.68987   0.01439   0.85682   0.00000  Uiso   1.00
H844   H     0.70766   0.29880   0.83088   0.00000  Uiso   1.00
H845   H     0.89920   0.21822   0.93177   0.00000  Uiso   1.00
H846   H     0.88837   0.23594   0.89005   0.00000  Uiso   1.00
H847   H     0.92463   0.08050   0.52395   0.00000  Uiso   1.00
H848   H     0.94333   0.19313   0.84447   0.00000  Uiso   1.00
H849   H     0.96633   0.22959   0.87789   0.00000  Uiso   1.00
H850   H     0.95416   0.17514   0.88580   0.00000  Uiso   1.00
H851   H     0.68345   0.19322   0.71506   0.00000  Uiso   1.00
H852   H     0.98464   0.14089   0.78541   0.00000  Uiso   1.00
H853   H     0.86973   0.00163   0.71375   0.00000  Uiso   1.00
H854   H     0.81767   0.17645   0.60137   0.00000  Uiso   1.00
H855   H     0.91205   0.09576   0.59521   0.00000  Uiso   1.00
H856   H     0.90674   0.08788   0.96425   0.00000  Uiso   1.00
H857   H     0.72286   0.23081   0.97781   0.00000  Uiso   1.00
O858   O     0.83333   0.16667   0.75000   0.00000  Uiso   1.00
O859   O     0.82360   0.12393   0.66625   0.00000  Uiso   1.00
O860   O     0.79354   0.20646   0.83749   0.00000  Uiso   1.00
O861   O     0.87755   0.17493   0.65877   0.00000  Uiso   1.00
O862   O     0.83865   0.16135   0.83749   0.00000  Uiso   1.00
O863   O     0.78806   0.33037   0.79738   0.00000  Uiso   1.00
O864   O     0.86938   0.17303   0.89788   0.00000  Uiso   1.00
O865   O     0.84515   0.08101   0.77821   0.00000  Uiso   1.00
O866   O     0.81247   0.26136   0.76767   0.00000  Uiso   1.00
O867   O     0.74119   0.13251   0.73607   0.00000  Uiso   1.00
O868   O     0.93452   0.19179   0.71806   0.00000  Uiso   1.00
O869   O     0.73656   0.18960   0.77820   0.00000  Uiso   1.00
O870   O     0.92106   0.15277   0.76768   0.00000  Uiso   1.00
O871   O     0.80467   0.06903   0.73607   0.00000  Uiso   1.00
O872   O     0.87104   0.25527   0.71806   0.00000  Uiso   1.00
Zn873  Zn    0.85910   0.14090   0.78278   0.00000  Uiso   1.00
Zn874  Zn    0.80125   0.12378   0.72258   0.00000  Uiso   1.00
Zn875  Zn    0.87833   0.19664   0.71188   0.00000  Uiso   1.00
Zn876  Zn    0.79465   0.20535   0.78277   0.00000  Uiso   1.00
C877   C     0.05248   0.49332   0.75884   0.00000  Uiso   1.00
C878   C     0.19562   0.46169   0.96081   0.00000  Uiso   1.00
C879   C     0.21755   0.44325   0.98064   0.00000  Uiso   1.00
C880   C     0.28101   0.50694   0.74127   0.00000  Uiso   1.00
C881   C     0.21053   0.45276   0.52097   0.00000  Uiso   1.00
C882   C     0.17908   0.47983   0.54244   0.00000  Uiso   1.00
C883   C     0.23417   0.43472   0.54018   0.00000  Uiso   1.00
C884   C     0.22718   0.44337   0.58057   0.00000  Uiso   1.00
C885   C     0.17309   0.48844   0.58325   0.00000  Uiso   1.00
C886   C     0.32701   0.50962   0.73778   0.00000  Uiso   1.00
C887   C     0.00705   0.49119   0.76239   0.00000  Uiso   1.00
C888   C     0.09689   0.54576   0.92084   0.00000  Uiso   1.00
C889   C     0.17849   0.65518   0.73814   0.00000  Uiso   1.00
C890   C     0.15034   0.34588   0.76389   0.00000  Uiso   1.00
C891   C     0.15635   0.38962   0.75864   0.00000  Uiso   1.00
C892   C     0.17654   0.61099   0.74153   0.00000  Uiso   1.00
C893   C     0.18824   0.47856   0.64418   0.00000  Uiso   1.00
C894   C     0.14566   0.52133   0.85610   0.00000  Uiso   1.00
C895   C     0.13469   0.52804   0.89922   0.00000  Uiso   1.00
C896   C     0.19667   0.47015   0.60192   0.00000  Uiso   1.00
C897   C     0.08496   0.54933   0.96165   0.00000  Uiso   1.00
C898   C     0.08537   0.35338   0.81305   0.00000  Uiso   1.00
C899   C     0.16119   0.51479   0.91894   0.00000  Uiso   1.00
C900   C     0.05170   0.66326   0.84416   0.00000  Uiso   1.00
C901   C     0.23141   0.54277   0.90084   0.00000  Uiso   1.00
C902   C     0.27666   0.53460   0.87565   0.00000  Uiso   1.00
C903   C     0.14590   0.51232   0.96001   0.00000  Uiso   1.00
C904   C     0.10896   0.53263   0.98138   0.00000  Uiso   1.00
C905   C     0.16645   0.49116   0.98054   0.00000  Uiso   1.00
C906   C     0.15524   0.49750   0.52230   0.00000  Uiso   1.00
C907   C     0.11964   0.51998   0.54245   0.00000  Uiso   1.00
C908   C     0.09627   0.53611   0.52225   0.00000  Uiso   1.00
H909   H     0.06828   0.55190   0.53882   0.00000  Uiso   1.00
H910   H     0.07652   0.55689   0.90620   0.00000  Uiso   1.00
H911   H     0.10759   0.52398   0.57399   0.00000  Uiso   1.00
H912   H     0.20051   0.45065   0.93015   0.00000  Uiso   1.00
H913   H     0.07015   0.35731   0.78985   0.00000  Uiso   1.00
H914   H     0.09522   0.38443   0.82720   0.00000  Uiso   1.00
H915   H     0.06566   0.65917   0.86804   0.00000  Uiso   1.00
H916   H     0.02321   0.34773   0.85682   0.00000  Uiso   1.00
H917   H     0.04099   0.63213   0.83088   0.00000  Uiso   1.00
H918   H     0.23253   0.55155   0.93177   0.00000  Uiso   1.00
H919   H     0.22171   0.56927   0.89005   0.00000  Uiso   1.00
H920   H     0.25796   0.41383   0.52395   0.00000  Uiso   1.00
H921   H     0.27666   0.52646   0.84447   0.00000  Uiso   1.00
H922   H     0.29967   0.56293   0.87789   0.00000  Uiso   1.00
H923   H     0.28749   0.50848   0.88580   0.00000  Uiso   1.00
H924   H     0.01678   0.52655   0.71506   0.00000  Uiso   1.00
H925   H     0.31798   0.47423   0.78541   0.00000  Uiso   1.00
H926   H     0.20306   0.33496   0.71375   0.00000  Uiso   1.00
H927   H     0.15100   0.50979   0.60137   0.00000  Uiso   1.00
H928   H     0.24538   0.42909   0.59521   0.00000  Uiso   1.00
H929   H     0.24007   0.42121   0.96425   0.00000  Uiso   1.00
H930   H     0.05620   0.56415   0.97781   0.00000  Uiso   1.00
O931   O     0.16667   0.50000   0.75000   0.00000  Uiso   1.00
O932   O     0.15693   0.45726   0.66625   0.00000  Uiso   1.00
O933   O     0.12687   0.53979   0.83749   0.00000  Uiso   1.00
O934   O     0.21088   0.50826   0.65877   0.00000  Uiso   1.00
O935   O     0.17198   0.49468   0.83749   0.00000  Uiso   1.00
O936   O     0.12139   0.66370   0.79738   0.00000  Uiso   1.00
O937   O     0.20271   0.50636   0.89788   0.00000  Uiso   1.00
O938   O     0.17849   0.41434   0.77821   0.00000  Uiso   1.00
O939   O     0.14581   0.59469   0.76767   0.00000  Uiso   1.00
O940   O     0.07452   0.46584   0.73607   0.00000  Uiso   1.00
O941   O     0.26785   0.52512   0.71806   0.00000  Uiso   1.00
O942   O     0.06990   0.52293   0.77820   0.00000  Uiso   1.00
O943   O     0.25440   0.48610   0.76768   0.00000  Uiso   1.00
O944   O     0.13800   0.40236   0.73607   0.00000  Uiso   1.00
O945   O     0.20437   0.58860   0.71806   0.00000  Uiso   1.00
Zn946  Zn    0.19244   0.47423   0.78278   0.00000  Uiso   1.00
Zn947  Zn    0.13459   0.45711   0.72258   0.00000  Uiso   1.00
Zn948  Zn    0.21166   0.52997   0.71188   0.00000  Uiso   1.00
Zn949  Zn    0.12798   0.53868   0.78277   0.00000  Uiso   1.00
C950   C     0.38581   0.49332   0.75884   0.00000  Uiso   1.00
C951   C     0.52896   0.46169   0.96081   0.00000  Uiso   1.00
C952   C     0.55088   0.44325   0.98064   0.00000  Uiso   1.00
C953   C     0.61434   0.50694   0.74127   0.00000  Uiso   1.00
C954   C     0.54386   0.45276   0.52097   0.00000  Uiso   1.00
C955   C     0.51242   0.47983   0.54244   0.00000  Uiso   1.00
C956   C     0.56750   0.43472   0.54018   0.00000  Uiso   1.00
C957   C     0.56052   0.44337   0.58057   0.00000  Uiso   1.00
C958   C     0.50642   0.48844   0.58325   0.00000  Uiso   1.00
C959   C     0.66035   0.50962   0.73778   0.00000  Uiso   1.00
C960   C     0.34039   0.49119   0.76239   0.00000  Uiso   1.00
C961   C     0.43022   0.54576   0.92084   0.00000  Uiso   1.00
C962   C     0.51183   0.65518   0.73814   0.00000  Uiso   1.00
C963   C     0.48367   0.34588   0.76389   0.00000  Uiso   1.00
C964   C     0.48969   0.38962   0.75864   0.00000  Uiso   1.00
C965   C     0.50987   0.61099   0.74153   0.00000  Uiso   1.00
C966   C     0.52157   0.47856   0.64418   0.00000  Uiso   1.00
C967   C     0.47900   0.52133   0.85610   0.00000  Uiso   1.00
C968   C     0.46802   0.52804   0.89922   0.00000  Uiso   1.00
C969   C     0.53000   0.47015   0.60192   0.00000  Uiso   1.00
C970   C     0.41829   0.54933   0.96165   0.00000  Uiso   1.00
C971   C     0.41870   0.35338   0.81305   0.00000  Uiso   1.00
C972   C     0.49452   0.51479   0.91894   0.00000  Uiso   1.00
C973   C     0.38503   0.66326   0.84416   0.00000  Uiso   1.00
C974   C     0.56474   0.54277   0.90084   0.00000  Uiso   1.00
C975   C     0.61000   0.53460   0.87565   0.00000  Uiso   1.00
C976   C     0.47923   0.51232   0.96001   0.00000  Uiso   1.00
C977   C     0.44230   0.53263   0.98138   0.00000  Uiso   1.00
C978   C     0.49979   0.49116   0.98054   0.00000  Uiso   1.00
C979   C     0.48857   0.49750   0.52230   0.00000  Uiso   1.00
C980   C     0.45298   0.51998   0.54245   0.00000  Uiso   1.00
C981   C     0.42961   0.53611   0.52225   0.00000  Uiso   1.00
H982   H     0.40161   0.55190   0.53882   0.00000  Uiso   1.00
H983   H     0.40985   0.55689   0.90620   0.00000  Uiso   1.00
H984   H     0.44092   0.52398   0.57399   0.00000  Uiso   1.00
H985   H     0.53384   0.45065   0.93015   0.00000  Uiso   1.00
H986   H     0.40348   0.35731   0.78985   0.00000  Uiso   1.00
H987   H     0.42855   0.38443   0.82720   0.00000  Uiso   1.00
H988   H     0.39899   0.65917   0.86804   0.00000  Uiso   1.00
H989   H     0.35654   0.34773   0.85682   0.00000  Uiso   1.00
H990   H     0.37432   0.63213   0.83088   0.00000  Uiso   1.00
H991   H     0.56586   0.55155   0.93177   0.00000  Uiso   1.00
H992   H     0.55504   0.56927   0.89005   0.00000  Uiso   1.00
H993   H     0.59130   0.41383   0.52395   0.00000  Uiso   1.00
H994   H     0.60999   0.52646   0.84447   0.00000  Uiso   1.00
H995   H     0.63300   0.56293   0.87789   0.00000  Uiso   1.00
H996   H     0.62083   0.50848   0.88580   0.00000  Uiso   1.00
H997   H     0.35012   0.52655   0.71506   0.00000  Uiso   1.00
H998   H     0.65131   0.47423   0.78541   0.00000  Uiso   1.00
H999   H     0.53639   0.33496   0.71375   0.00000  Uiso   1.00
H1000  H     0.48434   0.50979   0.60137   0.00000  Uiso   1.00
H1001  H     0.57872   0.42909   0.59521   0.00000  Uiso   1.00
H1002  H     0.57340   0.42121   0.96425   0.00000  Uiso   1.00
H1003  H     0.38953   0.56415   0.97781   0.00000  Uiso   1.00
O1004  O     0.50000   0.50000   0.75000   0.00000  Uiso   1.00
O1005  O     0.49027   0.45726   0.66625   0.00000  Uiso   1.00
O1006  O     0.46020   0.53979   0.83749   0.00000  Uiso   1.00
O1007  O     0.54421   0.50826   0.65877   0.00000  Uiso   1.00
O1008  O     0.50532   0.49468   0.83749   0.00000  Uiso   1.00
O1009  O     0.45473   0.66370   0.79738   0.00000  Uiso   1.00
O1010  O     0.53604   0.50636   0.89788   0.00000  Uiso   1.00
O1011  O     0.51182   0.41434   0.77821   0.00000  Uiso   1.00
O1012  O     0.47914   0.59469   0.76767   0.00000  Uiso   1.00
O1013  O     0.40785   0.46584   0.73607   0.00000  Uiso   1.00
O1014  O     0.60119   0.52512   0.71806   0.00000  Uiso   1.00
O1015  O     0.40323   0.52293   0.77820   0.00000  Uiso   1.00
O1016  O     0.58773   0.48610   0.76768   0.00000  Uiso   1.00
O1017  O     0.47133   0.40236   0.73607   0.00000  Uiso   1.00
O1018  O     0.53771   0.58860   0.71806   0.00000  Uiso   1.00
Zn1019 Zn    0.52577   0.47423   0.78278   0.00000  Uiso   1.00
Zn1020 Zn    0.46792   0.45711   0.72258   0.00000  Uiso   1.00
Zn1021 Zn    0.54500   0.52997   0.71188   0.00000  Uiso   1.00
Zn1022 Zn    0.46131   0.53868   0.78277   0.00000  Uiso   1.00
C1023  C     0.71914   0.49332   0.75884   0.00000  Uiso   1.00
C1024  C     0.86229   0.46169   0.96081   0.00000  Uiso   1.00
C1025  C     0.88421   0.44325   0.98064   0.00000  Uiso   1.00
C1026  C     0.94767   0.50694   0.74127   0.00000  Uiso   1.00
C1027  C     0.87720   0.45276   0.52097   0.00000  Uiso   1.00
C1028  C     0.84575   0.47983   0.54244   0.00000  Uiso   1.00
C1029  C     0.90083   0.43472   0.54018   0.00000  Uiso   1.00
C1030  C     0.89385   0.44337   0.58057   0.00000  Uiso   1.00
C1031  C     0.83976   0.48844   0.58325   0.00000  Uiso   1.00
C1032  C     0.99368   0.50962   0.73778   0.00000  Uiso   1.00
C1033  C     0.67372   0.49119   0.76239   0.00000  Uiso   1.00
C1034  C     0.76355   0.54576   0.92084   0.00000  Uiso   1.00
C1035  C     0.84516   0.65518   0.73814   0.00000  Uiso   1.00
C1036  C     0.81701   0.34588   0.76389   0.00000  Uiso   1.00
C1037  C     0.82302   0.38962   0.75864   0.00000  Uiso   1.00
C1038  C     0.84321   0.61099   0.74153   0.00000  Uiso   1.00
C1039  C     0.85491   0.47856   0.64418   0.00000  Uiso   1.00
C1040  C     0.81233   0.52133   0.85610   0.00000  Uiso   1.00
C1041  C     0.80135   0.52804   0.89922   0.00000  Uiso   1.00
C1042  C     0.86334   0.47015   0.60192   0.00000  Uiso   1.00
C1043  C     0.75162   0.54933   0.96165   0.00000  Uiso   1.00
C1044  C     0.75203   0.35338   0.81305   0.00000  Uiso   1.00
C1045  C     0.82786   0.51479   0.91894   0.00000  Uiso   1.00
C1046  C     0.71837   0.66326   0.84416   0.00000  Uiso   1.00
C1047  C     0.89807   0.54277   0.90084   0.00000  Uiso   1.00
C1048  C     0.94333   0.53460   0.87565   0.00000  Uiso   1.00
C1049  C     0.81257   0.51232   0.96001   0.00000  Uiso   1.00
C1050  C     0.77563   0.53263   0.98138   0.00000  Uiso   1.00
C1051  C     0.83312   0.49116   0.98054   0.00000  Uiso   1.00
C1052  C     0.82191   0.49750   0.52230   0.00000  Uiso   1.00
C1053  C     0.78631   0.51998   0.54245   0.00000  Uiso   1.00
C1054  C     0.76294   0.53611   0.52225   0.00000  Uiso   1.00
H1055  H     0.73495   0.55190   0.53882   0.00000  Uiso   1.00
H1056  H     0.74319   0.55689   0.90620   0.00000  Uiso   1.00
H1057  H     0.77426   0.52398   0.57399   0.00000  Uiso   1.00
H1058  H     0.86717   0.45065   0.93015   0.00000  Uiso   1.00
H1059  H     0.73682   0.35731   0.78985   0.00000  Uiso   1.00
H1060  H     0.76188   0.38443   0.82720   0.00000  Uiso   1.00
H1061  H     0.73232   0.65917   0.86804   0.00000  Uiso   1.00
H1062  H     0.68987   0.34773   0.85682   0.00000  Uiso   1.00
H1063  H     0.70766   0.63213   0.83088   0.00000  Uiso   1.00
H1064  H     0.89920   0.55155   0.93177   0.00000  Uiso   1.00
H1065  H     0.88837   0.56927   0.89005   0.00000  Uiso   1.00
H1066  H     0.92463   0.41383   0.52395   0.00000  Uiso   1.00
H1067  H     0.94333   0.52646   0.84447   0.00000  Uiso   1.00
H1068  H     0.96633   0.56293   0.87789   0.00000  Uiso   1.00
H1069  H     0.95416   0.50848   0.88580   0.00000  Uiso   1.00
H1070  H     0.68345   0.52655   0.71506   0.00000  Uiso   1.00
H1071  H     0.98464   0.47423   0.78541   0.00000  Uiso   1.00
H1072  H     0.86973   0.33496   0.71375   0.00000  Uiso   1.00
H1073  H     0.81767   0.50979   0.60137   0.00000  Uiso   1.00
H1074  H     0.91205   0.42909   0.59521   0.00000  Uiso   1.00
H1075  H     0.90674   0.42121   0.96425   0.00000  Uiso   1.00
H1076  H     0.72286   0.56415   0.97781   0.00000  Uiso   1.00
O1077  O     0.83333   0.50000   0.75000   0.00000  Uiso   1.00
O1078  O     0.82360   0.45726   0.66625   0.00000  Uiso   1.00
O1079  O     0.79354   0.53979   0.83749   0.00000  Uiso   1.00
O1080  O     0.87755   0.50826   0.65877   0.00000  Uiso   1.00
O1081  O     0.83865   0.49468   0.83749   0.00000  Uiso   1.00
O1082  O     0.78806   0.66370   0.79738   0.00000  Uiso   1.00
O1083  O     0.86938   0.50636   0.89788   0.00000  Uiso   1.00
O1084  O     0.84515   0.41434   0.77821   0.00000  Uiso   1.00
O1085  O     0.81247   0.59469   0.76767   0.00000  Uiso   1.00
O1086  O     0.74119   0.46584   0.73607   0.00000  Uiso   1.00
O1087  O     0.93452   0.52512   0.71806   0.00000  Uiso   1.00
O1088  O     0.73656   0.52293   0.77820   0.00000  Uiso   1.00
O1089  O     0.92106   0.48610   0.76768   0.00000  Uiso   1.00
O1090  O     0.80467   0.40236   0.73607   0.00000  Uiso   1.00
O1091  O     0.87104   0.58860   0.71806   0.00000  Uiso   1.00
Zn1092 Zn    0.85910   0.47423   0.78278   0.00000  Uiso   1.00
Zn1093 Zn    0.80125   0.45711   0.72258   0.00000  Uiso   1.00
Zn1094 Zn    0.87833   0.52997   0.71188   0.00000  Uiso   1.00
Zn1095 Zn    0.79465   0.53868   0.78277   0.00000  Uiso   1.00
C1096  C     0.05248   0.82666   0.75884   0.00000  Uiso   1.00
C1097  C     0.19562   0.79503   0.96081   0.00000  Uiso   1.00
C1098  C     0.21755   0.77658   0.98064   0.00000  Uiso   1.00
C1099  C     0.28101   0.84027   0.74127   0.00000  Uiso   1.00
C1100  C     0.21053   0.78609   0.52097   0.00000  Uiso   1.00
C1101  C     0.17908   0.81317   0.54244   0.00000  Uiso   1.00
C1102  C     0.23417   0.76805   0.54018   0.00000  Uiso   1.00
C1103  C     0.22718   0.77670   0.58057   0.00000  Uiso   1.00
C1104  C     0.17309   0.82177   0.58325   0.00000  Uiso   1.00
C1105  C     0.32701   0.84295   0.73778   0.00000  Uiso   1.00
C1106  C     0.00705   0.82452   0.76239   0.00000  Uiso   1.00
C1107  C     0.09689   0.87909   0.92084   0.00000  Uiso   1.00
C1108  C     0.17849   0.98851   0.73814   0.00000  Uiso   1.00
C1109  C     0.15034   0.67921   0.76389   0.00000  Uiso   1.00
C1110  C     0.15635   0.72296   0.75864   0.00000  Uiso   1.00
C1111  C     0.17654   0.94433   0.74153   0.00000  Uiso   1.00
C1112  C     0.18824   0.81189   0.64418   0.00000  Uiso   1.00
C1113  C     0.14566   0.85466   0.85610   0.00000  Uiso   1.00
C1114  C     0.13469   0.86138   0.89922   0.00000  Uiso   1.00
C1115  C     0.19667   0.80348   0.60192   0.00000  Uiso   1.00
C1116  C     0.08496   0.88266   0.96165   0.00000  Uiso   1.00
C1117  C     0.08537   0.68672   0.81305   0.00000  Uiso   1.00
C1118  C     0.16119   0.84812   0.91894   0.00000  Uiso   1.00
C1119  C     0.05170   0.99660   0.84416   0.00000  Uiso   1.00
C1120  C     0.23141   0.87610   0.90084   0.00000  Uiso   1.00
C1121  C     0.27666   0.86794   0.87565   0.00000  Uiso   1.00
C1122  C     0.14590   0.84565   0.96001   0.00000  Uiso   1.00
C1123  C     0.10896   0.86596   0.98138   0.00000  Uiso   1.00
C1124  C     0.16645   0.82449   0.98054   0.00000  Uiso   1.00
C1125  C     0.15524   0.83084   0.52230   0.00000  Uiso   1.00
C1126  C     0.11964   0.85332   0.54245   0.00000  Uiso   1.00
C1127  C     0.09627   0.86944   0.52225   0.00000  Uiso   1.00
H1128  H     0.06828   0.88523   0.53882   0.00000  Uiso   1.00
H1129  H     0.07652   0.89023   0.90620   0.00000  Uiso   1.00
H1130  H     0.10759   0.85731   0.57399   0.00000  Uiso   1.00
H1131  H     0.20051   0.78398   0.93015   0.00000  Uiso   1.00
H1132  H     0.07015   0.69064   0.78985   0.00000  Uiso   1.00
H1133  H     0.09522   0.71776   0.82720   0.00000  Uiso   1.00
H1134  H     0.06566   0.99250   0.86804   0.00000  Uiso   1.00
H1135  H     0.02321   0.68106   0.85682   0.00000  Uiso   1.00
H1136  H     0.04099   0.96547   0.83088   0.00000  Uiso   1.00
H1137  H     0.23253   0.88488   0.93177   0.00000  Uiso   1.00
H1138  H     0.22171   0.90261   0.89005   0.00000  Uiso   1.00
H1139  H     0.25796   0.74716   0.52395   0.00000  Uiso   1.00
H1140  H     0.27666   0.85979   0.84447   0.00000  Uiso   1.00
H1141  H     0.29967   0.89626   0.87789   0.00000  Uiso   1.00
H1142  H     0.28749   0.84181   0.88580   0.00000  Uiso   1.00
H1143  H     0.01678   0.85989   0.71506   0.00000  Uiso   1.00
H1144  H     0.31798   0.80756   0.78541   0.00000  Uiso   1.00
H1145  H     0.20306   0.66830   0.71375   0.00000  Uiso   1.00
H1146  H     0.15100   0.84312   0.60137   0.00000  Uiso   1.00
H1147  H     0.24538   0.76242   0.59521   0.00000  Uiso   1.00
H1148  H     0.24007   0.75454   0.96425   0.00000  Uiso   1.00
H1149  H     0.05620   0.89748   0.97781   0.00000  Uiso   1.00
O1150  O     0.16667   0.83333   0.75000   0.00000  Uiso   1.00
O1151  O     0.15693   0.79060   0.66625   0.00000  Uiso   1.00
O1152  O     0.12687   0.87313   0.83749   0.00000  Uiso   1.00
O1153  O     0.21088   0.84159   0.65877   0.00000  Uiso   1.00
O1154  O     0.17198   0.82802   0.83749   0.00000  Uiso   1.00
O1155  O     0.12139   0.99704   0.79738   0.00000  Uiso   1.00
O1156  O     0.20271   0.83970   0.89788   0.00000  Uiso   1.00
O1157  O     0.17849   0.74768   0.77821   0.00000  Uiso   1.00
O1158  O     0.14581   0.92803   0.76767   0.00000  Uiso   1.00
O1159  O     0.07452   0.79917   0.73607   0.00000  Uiso   1.00
O1160  O     0.26785   0.85845   0.71806   0.00000  Uiso   1.00
O1161  O     0.06990   0.85627   0.77820   0.00000  Uiso   1.00
O1162  O     0.25440   0.81944   0.76768   0.00000  Uiso   1.00
O1163  O     0.13800   0.73570   0.73607   0.00000  Uiso   1.00
O1164  O     0.20437   0.92193   0.71806   0.00000  Uiso   1.00
Zn1165 Zn    0.19244   0.80756   0.78278   0.00000  Uiso   1.00
Zn1166 Zn    0.13459   0.79044   0.72258   0.00000  Uiso   1.00
Zn1167 Zn    0.21166   0.86331   0.71188   0.00000  Uiso   1.00
Zn1168 Zn    0.12798   0.87202   0.78277   0.00000  Uiso   1.00
C1169  C     0.38581   0.82666   0.75884   0.00000  Uiso   1.00
C1170  C     0.52896   0.79503   0.96081   0.00000  Uiso   1.00
C1171  C     0.55088   0.77658   0.98064   0.00000  Uiso   1.00
C1172  C     0.61434   0.84027   0.74127   0.00000  Uiso   1.00
C1173  C     0.54386   0.78609   0.52097   0.00000  Uiso   1.00
C1174  C     0.51242   0.81317   0.54244   0.00000  Uiso   1.00
C1175  C     0.56750   0.76805   0.54018   0.00000  Uiso   1.00
C1176  C     0.56052   0.77670   0.58057   0.00000  Uiso   1.00
C1177  C     0.50642   0.82177   0.58325   0.00000  Uiso   1.00
C1178  C     0.66035   0.84295   0.73778   0.00000  Uiso   1.00
C1179  C     0.34039   0.82452   0.76239   0.00000  Uiso   1.00
C1180  C     0.43022   0.87909   0.92084   0.00000  Uiso   1.00
C1181  C     0.51183   0.98851   0.73814   0.00000  Uiso   1.00
C1182  C     0.48367   0.67921   0.76389   0.00000  Uiso   1.00
C1183  C     0.48969   0.72296   0.75864   0.00000  Uiso   1.00
C1184  C     0.50987   0.94433   0.74153   0.00000  Uiso   1.00
C1185  C     0.52157   0.81189   0.64418   0.00000  Uiso   1.00
C1186  C     0.47900   0.85466   0.85610   0.00000  Uiso   1.00
C1187  C     0.46802   0.86138   0.89922   0.00000  Uiso   1.00
C1188  C     0.53000   0.80348   0.60192   0.00000  Uiso   1.00
C1189  C     0.41829   0.88266   0.96165   0.00000  Uiso   1.00
C1190  C     0.41870   0.68672   0.81305   0.00000  Uiso   1.00
C1191  C     0.49452   0.84812   0.91894   0.00000  Uiso   1.00
C1192  C     0.38503   0.99660   0.84416   0.00000  Uiso   1.00
C1193  C     0.56474   0.87610   0.90084   0.00000  Uiso   1.00
C1194  C     0.61000   0.86794   0.87565   0.00000  Uiso   1.00
C1195  C     0.47923   0.84565   0.96001   0.00000  Uiso   1.00
C1196  C     0.44230   0.86596   0.98138   0.00000  Uiso   1.00
C1197  C     0.49979   0.82449   0.98054   0.00000  Uiso   1.00
C1198  C     0.48857   0.83084   0.52230   0.00000  Uiso   1.00
C1199  C     0.45298   0.85332   0.54245   0.00000  Uiso   1.00
C1200  C     0.42961   0.86944   0.52225   0.00000  Uiso   1.00
H1201  H     0.40161   0.88523   0.53882   0.00000  Uiso   1.00
H1202  H     0.40985   0.89023   0.90620   0.00000  Uiso   1.00
H1203  H     0.44092   0.85731   0.57399   0.00000  Uiso   1.00
H1204  H     0.53384   0.78398   0.93015   0.00000  Uiso   1.00
H1205  H     0.40348   0.69064   0.78985   0.00000  Uiso   1.00
H1206  H     0.42855   0.71776   0.82720   0.00000  Uiso   1.00
H1207  H     0.39899   0.99250   0.86804   0.00000  Uiso   1.00
H1208  H     0.35654   0.68106   0.85682   0.00000  Uiso   1.00
H1209  H     0.37432   0.96547   0.83088   0.00000  Uiso   1.00
H1210  H     0.56586   0.88488   0.93177   0.00000  Uiso   1.00
H1211  H     0.55504   0.90261   0.89005   0.00000  Uiso   1.00
H1212  H     0.59130   0.74716   0.52395   0.00000  Uiso   1.00
H1213  H     0.60999   0.85979   0.84447   0.00000  Uiso   1.00
H1214  H     0.63300   0.89626   0.87789   0.00000  Uiso   1.00
H1215  H     0.62083   0.84181   0.88580   0.00000  Uiso   1.00
H1216  H     0.35012   0.85989   0.71506   0.00000  Uiso   1.00
H1217  H     0.65131   0.80756   0.78541   0.00000  Uiso   1.00
H1218  H     0.53639   0.66830   0.71375   0.00000  Uiso   1.00
H1219  H     0.48434   0.84312   0.60137   0.00000  Uiso   1.00
H1220  H     0.57872   0.76242   0.59521   0.00000  Uiso   1.00
H1221  H     0.57340   0.75454   0.96425   0.00000  Uiso   1.00
H1222  H     0.38953   0.89748   0.97781   0.00000  Uiso   1.00
O1223  O     0.50000   0.83333   0.75000   0.00000  Uiso   1.00
O1224  O     0.49027   0.79060   0.66625   0.00000  Uiso   1.00
O1225  O     0.46020   0.87313   0.83749   0.00000  Uiso   1.00
O1226  O     0.54421   0.84159   0.65877   0.00000  Uiso   1.00
O1227  O     0.50532   0.82802   0.83749   0.00000  Uiso   1.00
O1228  O     0.45473   0.99704   0.79738   0.00000  Uiso   1.00
O1229  O     0.53604   0.83970   0.89788   0.00000  Uiso   1.00
O1230  O     0.51182   0.74768   0.77821   0.00000  Uiso   1.00
O1231  O     0.47914   0.92803   0.76767   0.00000  Uiso   1.00
O1232  O     0.40785   0.79917   0.73607   0.00000  Uiso   1.00
O1233  O     0.60119   0.85845   0.71806   0.00000  Uiso   1.00
O1234  O     0.40323   0.85627   0.77820   0.00000  Uiso   1.00
O1235  O     0.58773   0.81944   0.76768   0.00000  Uiso   1.00
O1236  O     0.47133   0.73570   0.73607   0.00000  Uiso   1.00
O1237  O     0.53771   0.92193   0.71806   0.00000  Uiso   1.00
Zn1238 Zn    0.52577   0.80756   0.78278   0.00000  Uiso   1.00
Zn1239 Zn    0.46792   0.79044   0.72258   0.00000  Uiso   1.00
Zn1240 Zn    0.54500   0.86331   0.71188   0.00000  Uiso   1.00
Zn1241 Zn    0.46131   0.87202   0.78277   0.00000  Uiso   1.00
C1242  C     0.71914   0.82666   0.75884   0.00000  Uiso   1.00
C1243  C     0.86229   0.79503   0.96081   0.00000  Uiso   1.00
C1244  C     0.88421   0.77658   0.98064   0.00000  Uiso   1.00
C1245  C     0.94767   0.84027   0.74127   0.00000  Uiso   1.00
C1246  C     0.87720   0.78609   0.52097   0.00000  Uiso   1.00
C1247  C     0.84575   0.81317   0.54244   0.00000  Uiso   1.00
C1248  C     0.90083   0.76805   0.54018   0.00000  Uiso   1.00
C1249  C     0.89385   0.77670   0.58057   0.00000  Uiso   1.00
C1250  C     0.83976   0.82177   0.58325   0.00000  Uiso   1.00
C1251  C     0.99368   0.84295   0.73778   0.00000  Uiso   1.00
C1252  C     0.67372   0.82452   0.76239   0.00000  Uiso   1.00
C1253  C     0.76355   0.87909   0.92084   0.00000  Uiso   1.00
C1254  C     0.84516   0.98851   0.73814   0.00000  Uiso   1.00
C1255  C     0.81701   0.67921   0.76389   0.00000  Uiso   1.00
C1256  C     0.82302   0.72296   0.75864   0.00000  Uiso   1.00
C1257  C     0.84321   0.94433   0.74153   0.00000  Uiso   1.00
C1258  C     0.85491   0.81189   0.64418   0.00000  Uiso   1.00
C1259  C     0.81233   0.85466   0.85610   0.00000  Uiso   1.00
C1260  C     0.80135   0.86138   0.89922   0.00000  Uiso   1.00
C1261  C     0.86334   0.80348   0.60192   0.00000  Uiso   1.00
C1262  C     0.75162   0.88266   0.96165   0.00000  Uiso   1.00
C1263  C     0.75203   0.68672   0.81305   0.00000  Uiso   1.00
C1264  C     0.82786   0.84812   0.91894   0.00000  Uiso   1.00
C1265  C     0.71837   0.99660   0.84416   0.00000  Uiso   1.00
C1266  C     0.89807   0.87610   0.90084   0.00000  Uiso   1.00
C1267  C     0.94333   0.86794   0.87565   0.00000  Uiso   1.00
C1268  C     0.81257   0.84565   0.96001   0.00000  Uiso   1.00
C1269  C     0.77563   0.86596   0.98138   0.00000  Uiso   1.00
C1270  C     0.83312   0.82449   0.98054   0.00000  Uiso   1.00
C1271  C     0.82191   0.83084   0.52230   0.00000  Uiso   1.00
C1272  C     0.78631   0.85332   0.54245   0.00000  Uiso   1.00
C1273  C     0.76294   0.86944   0.52225   0.00000  Uiso   1.00
H1274  H     0.73495   0.88523   0.53882   0.00000  Uiso   1.00
H1275  H     0.74319   0.89023   0.90620   0.00000  Uiso   1.00
H1276  H     0.77426   0.85731   0.57399   0.00000  Uiso   1.00
H1277  H     0.86717   0.78398   0.93015   0.00000  Uiso   1.00
H1278  H     0.73682   0.69064   0.78985   0.00000  Uiso   1.00
H1279  H     0.76188   0.71776   0.82720   0.00000  Uiso   1.00
H1280  H     0.73232   0.99250   0.86804   0.00000  Uiso   1.00
H1281  H     0.68987   0.68106   0.85682   0.00000  Uiso   1.00
H1282  H     0.70766   0.96547   0.83088   0.00000  Uiso   1.00
H1283  H     0.89920   0.88488   0.93177   0.00000  Uiso   1.00
H1284  H     0.88837   0.90261   0.89005   0.00000  Uiso   1.00
H1285  H     0.92463   0.74716   0.52395   0.00000  Uiso   1.00
H1286  H     0.94333   0.85979   0.84447   0.00000  Uiso   1.00
H1287  H     0.96633   0.89626   0.87789   0.00000  Uiso   1.00
H1288  H     0.95416   0.84181   0.88580   0.00000  Uiso   1.00
H1289  H     0.68345   0.85989   0.71506   0.00000  Uiso   1.00
H1290  H     0.98464   0.80756   0.78541   0.00000  Uiso   1.00
H1291  H     0.86973   0.66830   0.71375   0.00000  Uiso   1.00
H1292  H     0.81767   0.84312   0.60137   0.00000  Uiso   1.00
H1293  H     0.91205   0.76242   0.59521   0.00000  Uiso   1.00
H1294  H     0.90674   0.75454   0.96425   0.00000  Uiso   1.00
H1295  H     0.72286   0.89748   0.97781   0.00000  Uiso   1.00
O1296  O     0.83333   0.83333   0.75000   0.00000  Uiso   1.00
O1297  O     0.82360   0.79060   0.66625   0.00000  Uiso   1.00
O1298  O     0.79354   0.87313   0.83749   0.00000  Uiso   1.00
O1299  O     0.87755   0.84159   0.65877   0.00000  Uiso   1.00
O1300  O     0.83865   0.82802   0.83749   0.00000  Uiso   1.00
O1301  O     0.78806   0.99704   0.79738   0.00000  Uiso   1.00
O1302  O     0.86938   0.83970   0.89788   0.00000  Uiso   1.00
O1303  O     0.84515   0.74768   0.77821   0.00000  Uiso   1.00
O1304  O     0.81247   0.92803   0.76767   0.00000  Uiso   1.00
O1305  O     0.74119   0.79917   0.73607   0.00000  Uiso   1.00
O1306  O     0.93452   0.85845   0.71806   0.00000  Uiso   1.00
O1307  O     0.73656   0.85627   0.77820   0.00000  Uiso   1.00
O1308  O     0.92106   0.81944   0.76768   0.00000  Uiso   1.00
O1309  O     0.80467   0.73570   0.73607   0.00000  Uiso   1.00
O1310  O     0.87104   0.92193   0.71806   0.00000  Uiso   1.00
Zn1311 Zn    0.85910   0.80756   0.78278   0.00000  Uiso   1.00
Zn1312 Zn    0.80125   0.79044   0.72258   0.00000  Uiso   1.00
Zn1313 Zn    0.87833   0.86331   0.71188   0.00000  Uiso   1.00
Zn1314 Zn    0.79465   0.87202   0.78277   0.00000  Uiso   1.00
loop_
_geom_bond_atom_site_label_1
_geom_bond_atom_site_label_2
_geom_bond_distance
_geom_bond_site_symmetry_2
_ccdc_geom_bond_type
C1     O66     1.270   .     A
C1     O64     1.271   .     A
C1     C11     1.436   .     S
C2     C3      1.385   .     A
C2     C29     1.413   .     A
C2     H36     1.078   .     S
C3     H53     1.084   .     S
C3     C662    1.391   .     S
C4     O65     1.285   .     A
C4     C10     1.454   .     S
C4     O67     1.281   .     A
C5     C6      1.421   .     A
C5     C7      1.403   .     A
C5     C660    1.391   1_554 S
C6     C9      1.409   .     A
C6     C30     1.425   .     A
C7     C8      1.390   .     A
C7     H44     1.084   .     S
C8     H52     1.083   .     S
C8     C20     1.394   .     A
C9     H51     1.078   .     S
C9     C20     1.392   .     A
C10    C84     1.335   .     S
C10    H121    1.088   .     S
C11    C156    1.335   1_455 S
C11    H195    1.086   1_455 S
C12    H34     1.083   .     S
C12    C21     1.390   .     A
C12    C19     1.400   .     A
C13    C16     1.455   .     S
C13    C233    1.344   .     S
C13    H269    1.088   .     S
C14    C15     1.444   .     S
C14    C451    1.344   1_545 S
C14    O498    1.399   1_545 S
C15    O68     1.278   .     A
C15    O62     1.275   .     A
C16    O63     1.264   .     A
C16    O69     1.275   .     A
C17    O58     1.275   .     A
C17    O56     1.275   .     A
C17    C20     1.449   .     S
C18    O57     1.281   .     A
C18    O59     1.283   .     A
C18    C19     1.471   .     S
C19    C23     1.407   .     A
C21    C28     1.401   .     A
C21    H54     1.084   .     S
C22    H37     1.115   .     S
C22    H38     1.113   .     S
C22    C462    1.521   1_545 S
C22    O498    1.413   1_545 S
C23    C27     1.419   .     A
C23    O61     1.384   .     S
C24    H41     1.111   .     S
C24    H39     1.111   .     S
C24    C241    1.521   .     S
C24    H259    1.111   .     S
C25    H42     1.114   .     S
C25    H43     1.115   .     S
C25    O61     1.412   .     S
C25    C26     1.521   .     S
C26    H47     1.111   .     S
C26    H46     1.111   .     S
C26    H45     1.111   .     S
C27    C29     1.426   .     A
C27    C28     1.418   .     A
C28    C689    1.392   .     S
C29    C687    1.424   .     S
C30    C31     1.414   .     A
C30    C686    1.424   1_554 S
C31    C32     1.388   .     A
C31    H35     1.077   .     S
C32    H33     1.084   .     S
C32    C685    1.392   1_554 S
H40    C462    1.111   1_545 S
H48    C156    1.088   1_455 S
H49    C84     1.086   .     S
H50    C451    1.088   1_545 S
O55    Zn70    1.963   .     S
O55    Zn73    1.928   .     S
O55    Zn71    1.948   .     S
O55    Zn72    1.939   .     S
O56    Zn71    1.934   .     S
O57    Zn73    1.945   .     S
O58    Zn72    1.938   .     S
O59    Zn70    1.928   .     S
O60    C233    1.399   .     S
O60    C241    1.413   .     S
O62    Zn70    1.935   .     S
O63    Zn73    1.940   .     S
O64    Zn71    1.922   .     S
O65    Zn72    1.934   .     S
O66    Zn73    1.932   .     S
O67    Zn70    1.922   .     S
O68    Zn71    1.943   .     S
O69    Zn72    1.934   .     S
C74    O139    1.270   .     A
C74    O137    1.271   .     A
C74    C84     1.436   .     S
C75    C76     1.385   .     A
C75    C102    1.413   .     A
C75    H109    1.078   .     S
C76    H126    1.084   .     S
C76    C735    1.391   .     S
C77    O138    1.285   .     A
C77    C83     1.454   .     S
C77    O140    1.281   .     A
C78    C79     1.421   .     A
C78    C80     1.403   .     A
C78    C733    1.391   1_554 S
C79    C82     1.409   .     A
C79    C103    1.425   .     A
C80    C81     1.390   .     A
C80    H117    1.084   .     S
C81    H125    1.083   .     S
C81    C93     1.394   .     A
C82    H124    1.078   .     S
C82    C93     1.392   .     A
C83    C157    1.335   .     S
C83    H194    1.088   .     S
C85    H107    1.083   .     S
C85    C94     1.390   .     A
C85    C92     1.400   .     A
C86    C89     1.455   .     S
C86    C306    1.344   .     S
C86    H342    1.088   .     S
C87    C88     1.444   .     S
C87    C524    1.344   1_545 S
C87    O571    1.399   1_545 S
C88    O141    1.278   .     A
C88    O135    1.275   .     A
C89    O136    1.264   .     A
C89    O142    1.275   .     A
C90    O131    1.275   .     A
C90    O129    1.275   .     A
C90    C93     1.449   .     S
C91    O130    1.281   .     A
C91    O132    1.283   .     A
C91    C92     1.471   .     S
C92    C96     1.407   .     A
C94    C101    1.401   .     A
C94    H127    1.084   .     S
C95    H110    1.115   .     S
C95    H111    1.113   .     S
C95    C535    1.521   1_545 S
C95    O571    1.413   1_545 S
C96    C100    1.419   .     A
C96    O134    1.384   .     S
C97    H114    1.111   .     S
C97    H112    1.111   .     S
C97    C314    1.521   .     S
C97    H332    1.111   .     S
C98    H115    1.114   .     S
C98    H116    1.115   .     S
C98    O134    1.412   .     S
C98    C99     1.521   .     S
C99    H120    1.111   .     S
C99    H119    1.111   .     S
C99    H118    1.111   .     S
C100   C102    1.426   .     A
C100   C101    1.418   .     A
C101   C762    1.392   .     S
C102   C760    1.424   .     S
C103   C104    1.414   .     A
C103   C759    1.424   1_554 S
C104   C105    1.388   .     A
C104   H108    1.077   .     S
C105   H106    1.084   .     S
C105   C758    1.392   1_554 S
H113   C535    1.111   1_545 S
H122   C157    1.086   .     S
H123   C524    1.088   1_545 S
O128   Zn143   1.963   .     S
O128   Zn146   1.928   .     S
O128   Zn144   1.948   .     S
O128   Zn145   1.939   .     S
O129   Zn144   1.934   .     S
O130   Zn146   1.945   .     S
O131   Zn145   1.938   .     S
O132   Zn143   1.928   .     S
O133   C306    1.399   .     S
O133   C314    1.413   .     S
O135   Zn143   1.935   .     S
O136   Zn146   1.940   .     S
O137   Zn144   1.922   .     S
O138   Zn145   1.934   .     S
O139   Zn146   1.932   .     S
O140   Zn143   1.922   .     S
O141   Zn144   1.943   .     S
O142   Zn145   1.934   .     S
C147   O212    1.270   .     A
C147   O210    1.271   .     A
C147   C157    1.436   .     S
C148   C149    1.385   .     A
C148   C175    1.413   .     A
C148   H182    1.078   .     S
C149   H199    1.084   .     S
C149   C808    1.391   .     S
C150   O211    1.285   .     A
C150   C156    1.454   .     S
C150   O213    1.281   .     A
C151   C152    1.421   .     A
C151   C153    1.403   .     A
C151   C806    1.391   1_554 S
C152   C155    1.409   .     A
C152   C176    1.425   .     A
C153   C154    1.390   .     A
C153   H190    1.084   .     S
C154   H198    1.083   .     S
C154   C166    1.394   .     A
C155   H197    1.078   .     S
C155   C166    1.392   .     A
C156   C11     1.335   1_655 S
C156   H48     1.088   1_655 S
C158   H180    1.083   .     S
C158   C167    1.390   .     A
C158   C165    1.400   .     A
C159   C162    1.455   .     S
C159   C379    1.344   .     S
C159   H415    1.088   .     S
C160   C161    1.444   .     S
C160   C597    1.344   1_545 S
C160   O644    1.399   1_545 S
C161   O214    1.278   .     A
C161   O208    1.275   .     A
C162   O209    1.264   .     A
C162   O215    1.275   .     A
C163   O204    1.275   .     A
C163   O202    1.275   .     A
C163   C166    1.449   .     S
C164   O203    1.281   .     A
C164   O205    1.283   .     A
C164   C165    1.471   .     S
C165   C169    1.407   .     A
C167   C174    1.401   .     A
C167   H200    1.084   .     S
C168   H183    1.115   .     S
C168   H184    1.113   .     S
C168   C608    1.521   1_545 S
C168   O644    1.413   1_545 S
C169   C173    1.419   .     A
C169   O207    1.384   .     S
C170   H187    1.111   .     S
C170   H185    1.111   .     S
C170   C387    1.521   .     S
C170   H405    1.111   .     S
C171   H188    1.114   .     S
C171   H189    1.115   .     S
C171   O207    1.412   .     S
C171   C172    1.521   .     S
C172   H193    1.111   .     S
C172   H192    1.111   .     S
C172   H191    1.111   .     S
C173   C175    1.426   .     A
C173   C174    1.418   .     A
C174   C835    1.392   .     S
C175   C833    1.424   .     S
C176   C177    1.414   .     A
C176   C832    1.424   1_554 S
C177   C178    1.388   .     A
C177   H181    1.077   .     S
C178   H179    1.084   .     S
C178   C831    1.392   1_554 S
H186   C608    1.111   1_545 S
H195   C11     1.086   1_655 S
H196   C597    1.088   1_545 S
O201   Zn216   1.963   .     S
O201   Zn219   1.928   .     S
O201   Zn217   1.948   .     S
O201   Zn218   1.939   .     S
O202   Zn217   1.934   .     S
O203   Zn219   1.945   .     S
O204   Zn218   1.938   .     S
O205   Zn216   1.928   .     S
O206   C379    1.399   .     S
O206   C387    1.413   .     S
O208   Zn216   1.935   .     S
O209   Zn219   1.940   .     S
O210   Zn217   1.922   .     S
O211   Zn218   1.934   .     S
O212   Zn219   1.932   .     S
O213   Zn216   1.922   .     S
O214   Zn217   1.943   .     S
O215   Zn218   1.934   .     S
C220   O285    1.270   .     A
C220   O283    1.271   .     A
C220   C230    1.436   .     S
C221   C222    1.385   .     A
C221   C248    1.413   .     A
C221   H255    1.078   .     S
C222   H272    1.084   .     S
C222   C881    1.391   .     S
C223   O284    1.285   .     A
C223   C229    1.454   .     S
C223   O286    1.281   .     A
C224   C225    1.421   .     A
C224   C226    1.403   .     A
C224   C879    1.391   1_554 S
C225   C228    1.409   .     A
C225   C249    1.425   .     A
C226   C227    1.390   .     A
C226   H263    1.084   .     S
C227   H271    1.083   .     S
C227   C239    1.394   .     A
C228   H270    1.078   .     S
C228   C239    1.392   .     A
C229   C303    1.335   .     S
C229   H340    1.088   .     S
C230   C375    1.335   1_455 S
C230   H414    1.086   1_455 S
C231   H253    1.083   .     S
C231   C240    1.390   .     A
C231   C238    1.400   .     A
C232   C235    1.455   .     S
C232   C452    1.344   .     S
C232   H488    1.088   .     S
C233   C234    1.444   .     S
C234   O287    1.278   .     A
C234   O281    1.275   .     A
C235   O282    1.264   .     A
C235   O288    1.275   .     A
C236   O277    1.275   .     A
C236   O275    1.275   .     A
C236   C239    1.449   .     S
C237   O276    1.281   .     A
C237   O278    1.283   .     A
C237   C238    1.471   .     S
C238   C242    1.407   .     A
C240   C247    1.401   .     A
C240   H273    1.084   .     S
C241   H256    1.115   .     S
C241   H257    1.113   .     S
C242   C246    1.419   .     A
C242   O280    1.384   .     S
C243   H260    1.111   .     S
C243   H258    1.111   .     S
C243   C460    1.521   .     S
C243   H478    1.111   .     S
C244   H261    1.114   .     S
C244   H262    1.115   .     S
C244   O280    1.412   .     S
C244   C245    1.521   .     S
C245   H266    1.111   .     S
C245   H265    1.111   .     S
C245   H264    1.111   .     S
C246   C248    1.426   .     A
C246   C247    1.418   .     A
C247   C908    1.392   .     S
C248   C906    1.424   .     S
C249   C250    1.414   .     A
C249   C905    1.424   1_554 S
C250   C251    1.388   .     A
C250   H254    1.077   .     S
C251   H252    1.084   .     S
C251   C904    1.392   1_554 S
H267   C375    1.088   1_455 S
H268   C303    1.086   .     S
O274   Zn289   1.963   .     S
O274   Zn292   1.928   .     S
O274   Zn290   1.948   .     S
O274   Zn291   1.939   .     S
O275   Zn290   1.934   .     S
O276   Zn292   1.945   .     S
O277   Zn291   1.938   .     S
O278   Zn289   1.928   .     S
O279   C452    1.399   .     S
O279   C460    1.413   .     S
O281   Zn289   1.935   .     S
O282   Zn292   1.940   .     S
O283   Zn290   1.922   .     S
O284   Zn291   1.934   .     S
O285   Zn292   1.932   .     S
O286   Zn289   1.922   .     S
O287   Zn290   1.943   .     S
O288   Zn291   1.934   .     S
C293   O358    1.270   .     A
C293   O356    1.271   .     A
C293   C303    1.436   .     S
C294   C295    1.385   .     A
C294   C321    1.413   .     A
C294   H328    1.078   .     S
C295   H345    1.084   .     S
C295   C954    1.391   .     S
C296   O357    1.285   .     A
C296   C302    1.454   .     S
C296   O359    1.281   .     A
C297   C298    1.421   .     A
C297   C299    1.403   .     A
C297   C952    1.391   1_554 S
C298   C301    1.409   .     A
C298   C322    1.425   .     A
C299   C300    1.390   .     A
C299   H336    1.084   .     S
C300   H344    1.083   .     S
C300   C312    1.394   .     A
C301   H343    1.078   .     S
C301   C312    1.392   .     A
C302   C376    1.335   .     S
C302   H413    1.088   .     S
C304   H326    1.083   .     S
C304   C313    1.390   .     A
C304   C311    1.400   .     A
C305   C308    1.455   .     S
C305   C525    1.344   .     S
C305   H561    1.088   .     S
C306   C307    1.444   .     S
C307   O360    1.278   .     A
C307   O354    1.275   .     A
C308   O355    1.264   .     A
C308   O361    1.275   .     A
C309   O350    1.275   .     A
C309   O348    1.275   .     A
C309   C312    1.449   .     S
C310   O349    1.281   .     A
C310   O351    1.283   .     A
C310   C311    1.471   .     S
C311   C315    1.407   .     A
C313   C320    1.401   .     A
C313   H346    1.084   .     S
C314   H329    1.115   .     S
C314   H330    1.113   .     S
C315   C319    1.419   .     A
C315   O353    1.384   .     S
C316   H333    1.111   .     S
C316   H331    1.111   .     S
C316   C533    1.521   .     S
C316   H551    1.111   .     S
C317   H334    1.114   .     S
C317   H335    1.115   .     S
C317   O353    1.412   .     S
C317   C318    1.521   .     S
C318   H339    1.111   .     S
C318   H338    1.111   .     S
C318   H337    1.111   .     S
C319   C321    1.426   .     A
C319   C320    1.418   .     A
C320   C981    1.392   .     S
C321   C979    1.424   .     S
C322   C323    1.414   .     A
C322   C978    1.424   1_554 S
C323   C324    1.388   .     A
C323   H327    1.077   .     S
C324   H325    1.084   .     S
C324   C977    1.392   1_554 S
H341   C376    1.086   .     S
O347   Zn362   1.963   .     S
O347   Zn365   1.928   .     S
O347   Zn363   1.948   .     S
O347   Zn364   1.939   .     S
O348   Zn363   1.934   .     S
O349   Zn365   1.945   .     S
O350   Zn364   1.938   .     S
O351   Zn362   1.928   .     S
O352   C525    1.399   .     S
O352   C533    1.413   .     S
O354   Zn362   1.935   .     S
O355   Zn365   1.940   .     S
O356   Zn363   1.922   .     S
O357   Zn364   1.934   .     S
O358   Zn365   1.932   .     S
O359   Zn362   1.922   .     S
O360   Zn363   1.943   .     S
O361   Zn364   1.934   .     S
C366   O431    1.270   .     A
C366   O429    1.271   .     A
C366   C376    1.436   .     S
C367   C368    1.385   .     A
C367   C394    1.413   .     A
C367   H401    1.078   .     S
C368   H418    1.084   .     S
C368   C1027   1.391   .     S
C369   O430    1.285   .     A
C369   C375    1.454   .     S
C369   O432    1.281   .     A
C370   C371    1.421   .     A
C370   C372    1.403   .     A
C370   C1025   1.391   1_554 S
C371   C374    1.409   .     A
C371   C395    1.425   .     A
C372   C373    1.390   .     A
C372   H409    1.084   .     S
C373   H417    1.083   .     S
C373   C385    1.394   .     A
C374   H416    1.078   .     S
C374   C385    1.392   .     A
C375   C230    1.335   1_655 S
C375   H267    1.088   1_655 S
C377   H399    1.083   .     S
C377   C386    1.390   .     A
C377   C384    1.400   .     A
C378   C381    1.455   .     S
C378   C598    1.344   .     S
C378   H634    1.088   .     S
C379   C380    1.444   .     S
C380   O433    1.278   .     A
C380   O427    1.275   .     A
C381   O428    1.264   .     A
C381   O434    1.275   .     A
C382   O423    1.275   .     A
C382   O421    1.275   .     A
C382   C385    1.449   .     S
C383   O422    1.281   .     A
C383   O424    1.283   .     A
C383   C384    1.471   .     S
C384   C388    1.407   .     A
C386   C393    1.401   .     A
C386   H419    1.084   .     S
C387   H402    1.115   .     S
C387   H403    1.113   .     S
C388   C392    1.419   .     A
C388   O426    1.384   .     S
C389   H406    1.111   .     S
C389   H404    1.111   .     S
C389   C606    1.521   .     S
C389   H624    1.111   .     S
C390   H407    1.114   .     S
C390   H408    1.115   .     S
C390   O426    1.412   .     S
C390   C391    1.521   .     S
C391   H412    1.111   .     S
C391   H411    1.111   .     S
C391   H410    1.111   .     S
C392   C394    1.426   .     A
C392   C393    1.418   .     A
C393   C1054   1.392   .     S
C394   C1052   1.424   .     S
C395   C396    1.414   .     A
C395   C1051   1.424   1_554 S
C396   C397    1.388   .     A
C396   H400    1.077   .     S
C397   H398    1.084   .     S
C397   C1050   1.392   1_554 S
H414   C230    1.086   1_655 S
O420   Zn435   1.963   .     S
O420   Zn438   1.928   .     S
O420   Zn436   1.948   .     S
O420   Zn437   1.939   .     S
O421   Zn436   1.934   .     S
O422   Zn438   1.945   .     S
O423   Zn437   1.938   .     S
O424   Zn435   1.928   .     S
O425   C598    1.399   .     S
O425   C606    1.413   .     S
O427   Zn435   1.935   .     S
O428   Zn438   1.940   .     S
O429   Zn436   1.922   .     S
O430   Zn437   1.934   .     S
O431   Zn438   1.932   .     S
O432   Zn435   1.922   .     S
O433   Zn436   1.943   .     S
O434   Zn437   1.934   .     S
C439   O504    1.270   .     A
C439   O502    1.271   .     A
C439   C449    1.436   .     S
C440   C441    1.385   .     A
C440   C467    1.413   .     A
C440   H474    1.078   .     S
C441   H491    1.084   .     S
C441   C1100   1.391   .     S
C442   O503    1.285   .     A
C442   C448    1.454   .     S
C442   O505    1.281   .     A
C443   C444    1.421   .     A
C443   C445    1.403   .     A
C443   C1098   1.391   1_554 S
C444   C447    1.409   .     A
C444   C468    1.425   .     A
C445   C446    1.390   .     A
C445   H482    1.084   .     S
C446   H490    1.083   .     S
C446   C458    1.394   .     A
C447   H489    1.078   .     S
C447   C458    1.392   .     A
C448   C522    1.335   .     S
C448   H559    1.088   .     S
C449   C594    1.335   1_455 S
C449   H633    1.086   1_455 S
C450   H472    1.083   .     S
C450   C459    1.390   .     A
C450   C457    1.400   .     A
C451   C454    1.455   .     S
C451   C14     1.344   1_565 S
C451   H50     1.088   1_565 S
C452   C453    1.444   .     S
C453   O506    1.278   .     A
C453   O500    1.275   .     A
C454   O501    1.264   .     A
C454   O507    1.275   .     A
C455   O496    1.275   .     A
C455   O494    1.275   .     A
C455   C458    1.449   .     S
C456   O495    1.281   .     A
C456   O497    1.283   .     A
C456   C457    1.471   .     S
C457   C461    1.407   .     A
C459   C466    1.401   .     A
C459   H492    1.084   .     S
C460   H475    1.115   .     S
C460   H476    1.113   .     S
C461   C465    1.419   .     A
C461   O499    1.384   .     S
C462   H479    1.111   .     S
C462   H477    1.111   .     S
C462   C22     1.521   1_565 S
C462   H40     1.111   1_565 S
C463   H480    1.114   .     S
C463   H481    1.115   .     S
C463   O499    1.412   .     S
C463   C464    1.521   .     S
C464   H485    1.111   .     S
C464   H484    1.111   .     S
C464   H483    1.111   .     S
C465   C467    1.426   .     A
C465   C466    1.418   .     A
C466   C1127   1.392   .     S
C467   C1125   1.424   .     S
C468   C469    1.414   .     A
C468   C1124   1.424   1_554 S
C469   C470    1.388   .     A
C469   H473    1.077   .     S
C470   H471    1.084   .     S
C470   C1123   1.392   1_554 S
H486   C594    1.088   1_455 S
H487   C522    1.086   .     S
O493   Zn508   1.963   .     S
O493   Zn511   1.928   .     S
O493   Zn509   1.948   .     S
O493   Zn510   1.939   .     S
O494   Zn509   1.934   .     S
O495   Zn511   1.945   .     S
O496   Zn510   1.938   .     S
O497   Zn508   1.928   .     S
O498   C14     1.399   1_565 S
O498   C22     1.413   1_565 S
O500   Zn508   1.935   .     S
O501   Zn511   1.940   .     S
O502   Zn509   1.922   .     S
O503   Zn510   1.934   .     S
O504   Zn511   1.932   .     S
O505   Zn508   1.922   .     S
O506   Zn509   1.943   .     S
O507   Zn510   1.934   .     S
C512   O577    1.270   .     A
C512   O575    1.271   .     A
C512   C522    1.436   .     S
C513   C514    1.385   .     A
C513   C540    1.413   .     A
C513   H547    1.078   .     S
C514   H564    1.084   .     S
C514   C1173   1.391   .     S
C515   O576    1.285   .     A
C515   C521    1.454   .     S
C515   O578    1.281   .     A
C516   C517    1.421   .     A
C516   C518    1.403   .     A
C516   C1171   1.391   1_554 S
C517   C520    1.409   .     A
C517   C541    1.425   .     A
C518   C519    1.390   .     A
C518   H555    1.084   .     S
C519   H563    1.083   .     S
C519   C531    1.394   .     A
C520   H562    1.078   .     S
C520   C531    1.392   .     A
C521   C595    1.335   .     S
C521   H632    1.088   .     S
C523   H545    1.083   .     S
C523   C532    1.390   .     A
C523   C530    1.400   .     A
C524   C527    1.455   .     S
C524   C87     1.344   1_565 S
C524   H123    1.088   1_565 S
C525   C526    1.444   .     S
C526   O579    1.278   .     A
C526   O573    1.275   .     A
C527   O574    1.264   .     A
C527   O580    1.275   .     A
C528   O569    1.275   .     A
C528   O567    1.275   .     A
C528   C531    1.449   .     S
C529   O568    1.281   .     A
C529   O570    1.283   .     A
C529   C530    1.471   .     S
C530   C534    1.407   .     A
C532   C539    1.401   .     A
C532   H565    1.084   .     S
C533   H548    1.115   .     S
C533   H549    1.113   .     S
C534   C538    1.419   .     A
C534   O572    1.384   .     S
C535   H552    1.111   .     S
C535   H550    1.111   .     S
C535   C95     1.521   1_565 S
C535   H113    1.111   1_565 S
C536   H553    1.114   .     S
C536   H554    1.115   .     S
C536   O572    1.412   .     S
C536   C537    1.521   .     S
C537   H558    1.111   .     S
C537   H557    1.111   .     S
C537   H556    1.111   .     S
C538   C540    1.426   .     A
C538   C539    1.418   .     A
C539   C1200   1.392   .     S
C540   C1198   1.424   .     S
C541   C542    1.414   .     A
C541   C1197   1.424   1_554 S
C542   C543    1.388   .     A
C542   H546    1.077   .     S
C543   H544    1.084   .     S
C543   C1196   1.392   1_554 S
H560   C595    1.086   .     S
O566   Zn581   1.963   .     S
O566   Zn584   1.928   .     S
O566   Zn582   1.948   .     S
O566   Zn583   1.939   .     S
O567   Zn582   1.934   .     S
O568   Zn584   1.945   .     S
O569   Zn583   1.938   .     S
O570   Zn581   1.928   .     S
O571   C87     1.399   1_565 S
O571   C95     1.413   1_565 S
O573   Zn581   1.935   .     S
O574   Zn584   1.940   .     S
O575   Zn582   1.922   .     S
O576   Zn583   1.934   .     S
O577   Zn584   1.932   .     S
O578   Zn581   1.922   .     S
O579   Zn582   1.943   .     S
O580   Zn583   1.934   .     S
C585   O650    1.270   .     A
C585   O648    1.271   .     A
C585   C595    1.436   .     S
C586   C587    1.385   .     A
C586   C613    1.413   .     A
C586   H620    1.078   .     S
C587   H637    1.084   .     S
C587   C1246   1.391   .     S
C588   O649    1.285   .     A
C588   C594    1.454   .     S
C588   O651    1.281   .     A
C589   C590    1.421   .     A
C589   C591    1.403   .     A
C589   C1244   1.391   1_554 S
C590   C593    1.409   .     A
C590   C614    1.425   .     A
C591   C592    1.390   .     A
C591   H628    1.084   .     S
C592   H636    1.083   .     S
C592   C604    1.394   .     A
C593   H635    1.078   .     S
C593   C604    1.392   .     A
C594   C449    1.335   1_655 S
C594   H486    1.088   1_655 S
C596   H618    1.083   .     S
C596   C605    1.390   .     A
C596   C603    1.400   .     A
C597   C600    1.455   .     S
C597   C160    1.344   1_565 S
C597   H196    1.088   1_565 S
C598   C599    1.444   .     S
C599   O652    1.278   .     A
C599   O646    1.275   .     A
C600   O647    1.264   .     A
C600   O653    1.275   .     A
C601   O642    1.275   .     A
C601   O640    1.275   .     A
C601   C604    1.449   .     S
C602   O641    1.281   .     A
C602   O643    1.283   .     A
C602   C603    1.471   .     S
C603   C607    1.407   .     A
C605   C612    1.401   .     A
C605   H638    1.084   .     S
C606   H621    1.115   .     S
C606   H622    1.113   .     S
C607   C611    1.419   .     A
C607   O645    1.384   .     S
C608   H625    1.111   .     S
C608   H623    1.111   .     S
C608   C168    1.521   1_565 S
C608   H186    1.111   1_565 S
C609   H626    1.114   .     S
C609   H627    1.115   .     S
C609   O645    1.412   .     S
C609   C610    1.521   .     S
C610   H631    1.111   .     S
C610   H630    1.111   .     S
C610   H629    1.111   .     S
C611   C613    1.426   .     A
C611   C612    1.418   .     A
C612   C1273   1.392   .     S
C613   C1271   1.424   .     S
C614   C615    1.414   .     A
C614   C1270   1.424   1_554 S
C615   C616    1.388   .     A
C615   H619    1.077   .     S
C616   H617    1.084   .     S
C616   C1269   1.392   1_554 S
H633   C449    1.086   1_655 S
O639   Zn654   1.963   .     S
O639   Zn657   1.928   .     S
O639   Zn655   1.948   .     S
O639   Zn656   1.939   .     S
O640   Zn655   1.934   .     S
O641   Zn657   1.945   .     S
O642   Zn656   1.938   .     S
O643   Zn654   1.928   .     S
O644   C160    1.399   1_565 S
O644   C168    1.413   1_565 S
O646   Zn654   1.935   .     S
O647   Zn657   1.940   .     S
O648   Zn655   1.922   .     S
O649   Zn656   1.934   .     S
O650   Zn657   1.932   .     S
O651   Zn654   1.922   .     S
O652   Zn655   1.943   .     S
O653   Zn656   1.934   .     S
C658   O723    1.270   .     A
C658   O721    1.271   .     A
C658   C668    1.436   .     S
C659   C660    1.385   .     A
C659   C686    1.413   .     A
C659   H693    1.078   .     S
C660   H710    1.084   .     S
C660   C5      1.391   1_556 S
C661   O722    1.285   .     A
C661   C667    1.454   .     S
C661   O724    1.281   .     A
C662   C663    1.421   .     A
C662   C664    1.403   .     A
C663   C666    1.409   .     A
C663   C687    1.425   .     A
C664   C665    1.390   .     A
C664   H701    1.084   .     S
C665   H709    1.083   .     S
C665   C677    1.394   .     A
C666   H708    1.078   .     S
C666   C677    1.392   .     A
C667   C741    1.335   .     S
C667   H778    1.088   .     S
C668   C813    1.335   1_455 S
C668   H852    1.086   1_455 S
C669   H691    1.083   .     S
C669   C678    1.390   .     A
C669   C676    1.400   .     A
C670   C673    1.455   .     S
C670   C890    1.344   .     S
C670   H926    1.088   .     S
C671   C672    1.444   .     S
C671   C1108   1.344   1_545 S
C671   O1155   1.399   1_545 S
C672   O725    1.278   .     A
C672   O719    1.275   .     A
C673   O720    1.264   .     A
C673   O726    1.275   .     A
C674   O715    1.275   .     A
C674   O713    1.275   .     A
C674   C677    1.449   .     S
C675   O714    1.281   .     A
C675   O716    1.283   .     A
C675   C676    1.471   .     S
C676   C680    1.407   .     A
C678   C685    1.401   .     A
C678   H711    1.084   .     S
C679   H694    1.115   .     S
C679   H695    1.113   .     S
C679   C1119   1.521   1_545 S
C679   O1155   1.413   1_545 S
C680   C684    1.419   .     A
C680   O718    1.384   .     S
C681   H698    1.111   .     S
C681   H696    1.111   .     S
C681   C898    1.521   .     S
C681   H916    1.111   .     S
C682   H699    1.114   .     S
C682   H700    1.115   .     S
C682   O718    1.412   .     S
C682   C683    1.521   .     S
C683   H704    1.111   .     S
C683   H703    1.111   .     S
C683   H702    1.111   .     S
C684   C686    1.426   .     A
C684   C685    1.418   .     A
C685   C32     1.392   1_556 S
C686   C30     1.424   1_556 S
C687   C688    1.414   .     A
C688   C689    1.388   .     A
C688   H692    1.077   .     S
C689   H690    1.084   .     S
H697   C1119   1.111   1_545 S
H705   C813    1.088   1_455 S
H706   C741    1.086   .     S
H707   C1108   1.088   1_545 S
O712   Zn727   1.963   .     S
O712   Zn730   1.928   .     S
O712   Zn728   1.948   .     S
O712   Zn729   1.939   .     S
O713   Zn728   1.934   .     S
O714   Zn730   1.945   .     S
O715   Zn729   1.938   .     S
O716   Zn727   1.928   .     S
O717   C890    1.399   .     S
O717   C898    1.413   .     S
O719   Zn727   1.935   .     S
O720   Zn730   1.940   .     S
O721   Zn728   1.922   .     S
O722   Zn729   1.934   .     S
O723   Zn730   1.932   .     S
O724   Zn727   1.922   .     S
O725   Zn728   1.943   .     S
O726   Zn729   1.934   .     S
C731   O796    1.270   .     A
C731   O794    1.271   .     A
C731   C741    1.436   .     S
C732   C733    1.385   .     A
C732   C759    1.413   .     A
C732   H766    1.078   .     S
C733   H783    1.084   .     S
C733   C78     1.391   1_556 S
C734   O795    1.285   .     A
C734   C740    1.454   .     S
C734   O797    1.281   .     A
C735   C736    1.421   .     A
C735   C737    1.403   .     A
C736   C739    1.409   .     A
C736   C760    1.425   .     A
C737   C738    1.390   .     A
C737   H774    1.084   .     S
C738   H782    1.083   .     S
C738   C750    1.394   .     A
C739   H781    1.078   .     S
C739   C750    1.392   .     A
C740   C814    1.335   .     S
C740   H851    1.088   .     S
C742   H764    1.083   .     S
C742   C751    1.390   .     A
C742   C749    1.400   .     A
C743   C746    1.455   .     S
C743   C963    1.344   .     S
C743   H999    1.088   .     S
C744   C745    1.444   .     S
C744   C1181   1.344   1_545 S
C744   O1228   1.399   1_545 S
C745   O798    1.278   .     A
C745   O792    1.275   .     A
C746   O793    1.264   .     A
C746   O799    1.275   .     A
C747   O788    1.275   .     A
C747   O786    1.275   .     A
C747   C750    1.449   .     S
C748   O787    1.281   .     A
C748   O789    1.283   .     A
C748   C749    1.471   .     S
C749   C753    1.407   .     A
C751   C758    1.401   .     A
C751   H784    1.084   .     S
C752   H767    1.115   .     S
C752   H768    1.113   .     S
C752   C1192   1.521   1_545 S
C752   O1228   1.413   1_545 S
C753   C757    1.419   .     A
C753   O791    1.384   .     S
C754   H771    1.111   .     S
C754   H769    1.111   .     S
C754   C971    1.521   .     S
C754   H989    1.111   .     S
C755   H772    1.114   .     S
C755   H773    1.115   .     S
C755   O791    1.412   .     S
C755   C756    1.521   .     S
C756   H777    1.111   .     S
C756   H776    1.111   .     S
C756   H775    1.111   .     S
C757   C759    1.426   .     A
C757   C758    1.418   .     A
C758   C105    1.392   1_556 S
C759   C103    1.424   1_556 S
C760   C761    1.414   .     A
C761   C762    1.388   .     A
C761   H765    1.077   .     S
C762   H763    1.084   .     S
H770   C1192   1.111   1_545 S
H779   C814    1.086   .     S
H780   C1181   1.088   1_545 S
O785   Zn800   1.963   .     S
O785   Zn803   1.928   .     S
O785   Zn801   1.948   .     S
O785   Zn802   1.939   .     S
O786   Zn801   1.934   .     S
O787   Zn803   1.945   .     S
O788   Zn802   1.938   .     S
O789   Zn800   1.928   .     S
O790   C963    1.399   .     S
O790   C971    1.413   .     S
O792   Zn800   1.935   .     S
O793   Zn803   1.940   .     S
O794   Zn801   1.922   .     S
O795   Zn802   1.934   .     S
O796   Zn803   1.932   .     S
O797   Zn800   1.922   .     S
O798   Zn801   1.943   .     S
O799   Zn802   1.934   .     S
C804   O869    1.270   .     A
C804   O867    1.271   .     A
C804   C814    1.436   .     S
C805   C806    1.385   .     A
C805   C832    1.413   .     A
C805   H839    1.078   .     S
C806   H856    1.084   .     S
C806   C151    1.391   1_556 S
C807   O868    1.285   .     A
C807   C813    1.454   .     S
C807   O870    1.281   .     A
C808   C809    1.421   .     A
C808   C810    1.403   .     A
C809   C812    1.409   .     A
C809   C833    1.425   .     A
C810   C811    1.390   .     A
C810   H847    1.084   .     S
C811   H855    1.083   .     S
C811   C823    1.394   .     A
C812   H854    1.078   .     S
C812   C823    1.392   .     A
C813   C668    1.335   1_655 S
C813   H705    1.088   1_655 S
C815   H837    1.083   .     S
C815   C824    1.390   .     A
C815   C822    1.400   .     A
C816   C819    1.455   .     S
C816   C1036   1.344   .     S
C816   H1072   1.088   .     S
C817   C818    1.444   .     S
C817   C1254   1.344   1_545 S
C817   O1301   1.399   1_545 S
C818   O871    1.278   .     A
C818   O865    1.275   .     A
C819   O866    1.264   .     A
C819   O872    1.275   .     A
C820   O861    1.275   .     A
C820   O859    1.275   .     A
C820   C823    1.449   .     S
C821   O860    1.281   .     A
C821   O862    1.283   .     A
C821   C822    1.471   .     S
C822   C826    1.407   .     A
C824   C831    1.401   .     A
C824   H857    1.084   .     S
C825   H840    1.115   .     S
C825   H841    1.113   .     S
C825   C1265   1.521   1_545 S
C825   O1301   1.413   1_545 S
C826   C830    1.419   .     A
C826   O864    1.384   .     S
C827   H844    1.111   .     S
C827   H842    1.111   .     S
C827   C1044   1.521   .     S
C827   H1062   1.111   .     S
C828   H845    1.114   .     S
C828   H846    1.115   .     S
C828   O864    1.412   .     S
C828   C829    1.521   .     S
C829   H850    1.111   .     S
C829   H849    1.111   .     S
C829   H848    1.111   .     S
C830   C832    1.426   .     A
C830   C831    1.418   .     A
C831   C178    1.392   1_556 S
C832   C176    1.424   1_556 S
C833   C834    1.414   .     A
C834   C835    1.388   .     A
C834   H838    1.077   .     S
C835   H836    1.084   .     S
H843   C1265   1.111   1_545 S
H852   C668    1.086   1_655 S
H853   C1254   1.088   1_545 S
O858   Zn873   1.963   .     S
O858   Zn876   1.928   .     S
O858   Zn874   1.948   .     S
O858   Zn875   1.939   .     S
O859   Zn874   1.934   .     S
O860   Zn876   1.945   .     S
O861   Zn875   1.938   .     S
O862   Zn873   1.928   .     S
O863   C1036   1.399   .     S
O863   C1044   1.413   .     S
O865   Zn873   1.935   .     S
O866   Zn876   1.940   .     S
O867   Zn874   1.922   .     S
O868   Zn875   1.934   .     S
O869   Zn876   1.932   .     S
O870   Zn873   1.922   .     S
O871   Zn874   1.943   .     S
O872   Zn875   1.934   .     S
C877   O942    1.270   .     A
C877   O940    1.271   .     A
C877   C887    1.436   .     S
C878   C879    1.385   .     A
C878   C905    1.413   .     A
C878   H912    1.078   .     S
C879   H929    1.084   .     S
C879   C224    1.391   1_556 S
C880   O941    1.285   .     A
C880   C886    1.454   .     S
C880   O943    1.281   .     A
C881   C882    1.421   .     A
C881   C883    1.403   .     A
C882   C885    1.409   .     A
C882   C906    1.425   .     A
C883   C884    1.390   .     A
C883   H920    1.084   .     S
C884   H928    1.083   .     S
C884   C896    1.394   .     A
C885   H927    1.078   .     S
C885   C896    1.392   .     A
C886   C960    1.335   .     S
C886   H997    1.088   .     S
C887   C1032   1.335   1_455 S
C887   H1071   1.086   1_455 S
C888   H910    1.083   .     S
C888   C897    1.390   .     A
C888   C895    1.400   .     A
C889   C892    1.455   .     S
C889   C1109   1.344   .     S
C889   H1145   1.088   .     S
C890   C891    1.444   .     S
C891   O944    1.278   .     A
C891   O938    1.275   .     A
C892   O939    1.264   .     A
C892   O945    1.275   .     A
C893   O934    1.275   .     A
C893   O932    1.275   .     A
C893   C896    1.449   .     S
C894   O933    1.281   .     A
C894   O935    1.283   .     A
C894   C895    1.471   .     S
C895   C899    1.407   .     A
C897   C904    1.401   .     A
C897   H930    1.084   .     S
C898   H913    1.115   .     S
C898   H914    1.113   .     S
C899   C903    1.419   .     A
C899   O937    1.384   .     S
C900   H917    1.111   .     S
C900   H915    1.111   .     S
C900   C1117   1.521   .     S
C900   H1135   1.111   .     S
C901   H918    1.114   .     S
C901   H919    1.115   .     S
C901   O937    1.412   .     S
C901   C902    1.521   .     S
C902   H923    1.111   .     S
C902   H922    1.111   .     S
C902   H921    1.111   .     S
C903   C905    1.426   .     A
C903   C904    1.418   .     A
C904   C251    1.392   1_556 S
C905   C249    1.424   1_556 S
C906   C907    1.414   .     A
C907   C908    1.388   .     A
C907   H911    1.077   .     S
C908   H909    1.084   .     S
H924   C1032   1.088   1_455 S
H925   C960    1.086   .     S
O931   Zn946   1.963   .     S
O931   Zn949   1.928   .     S
O931   Zn947   1.948   .     S
O931   Zn948   1.939   .     S
O932   Zn947   1.934   .     S
O933   Zn949   1.945   .     S
O934   Zn948   1.938   .     S
O935   Zn946   1.928   .     S
O936   C1109   1.399   .     S
O936   C1117   1.413   .     S
O938   Zn946   1.935   .     S
O939   Zn949   1.940   .     S
O940   Zn947   1.922   .     S
O941   Zn948   1.934   .     S
O942   Zn949   1.932   .     S
O943   Zn946   1.922   .     S
O944   Zn947   1.943   .     S
O945   Zn948   1.934   .     S
C950   O1015   1.270   .     A
C950   O1013   1.271   .     A
C950   C960    1.436   .     S
C951   C952    1.385   .     A
C951   C978    1.413   .     A
C951   H985    1.078   .     S
C952   H1002   1.084   .     S
C952   C297    1.391   1_556 S
C953   O1014   1.285   .     A
C953   C959    1.454   .     S
C953   O1016   1.281   .     A
C954   C955    1.421   .     A
C954   C956    1.403   .     A
C955   C958    1.409   .     A
C955   C979    1.425   .     A
C956   C957    1.390   .     A
C956   H993    1.084   .     S
C957   H1001   1.083   .     S
C957   C969    1.394   .     A
C958   H1000   1.078   .     S
C958   C969    1.392   .     A
C959   C1033   1.335   .     S
C959   H1070   1.088   .     S
C961   H983    1.083   .     S
C961   C970    1.390   .     A
C961   C968    1.400   .     A
C962   C965    1.455   .     S
C962   C1182   1.344   .     S
C962   H1218   1.088   .     S
C963   C964    1.444   .     S
C964   O1017   1.278   .     A
C964   O1011   1.275   .     A
C965   O1012   1.264   .     A
C965   O1018   1.275   .     A
C966   O1007   1.275   .     A
C966   O1005   1.275   .     A
C966   C969    1.449   .     S
C967   O1006   1.281   .     A
C967   O1008   1.283   .     A
C967   C968    1.471   .     S
C968   C972    1.407   .     A
C970   C977    1.401   .     A
C970   H1003   1.084   .     S
C971   H986    1.115   .     S
C971   H987    1.113   .     S
C972   C976    1.419   .     A
C972   O1010   1.384   .     S
C973   H990    1.111   .     S
C973   H988    1.111   .     S
C973   C1190   1.521   .     S
C973   H1208   1.111   .     S
C974   H991    1.114   .     S
C974   H992    1.115   .     S
C974   O1010   1.412   .     S
C974   C975    1.521   .     S
C975   H996    1.111   .     S
C975   H995    1.111   .     S
C975   H994    1.111   .     S
C976   C978    1.426   .     A
C976   C977    1.418   .     A
C977   C324    1.392   1_556 S
C978   C322    1.424   1_556 S
C979   C980    1.414   .     A
C980   C981    1.388   .     A
C980   H984    1.077   .     S
C981   H982    1.084   .     S
H998   C1033   1.086   .     S
O1004  Zn1019  1.963   .     S
O1004  Zn1022  1.928   .     S
O1004  Zn1020  1.948   .     S
O1004  Zn1021  1.939   .     S
O1005  Zn1020  1.934   .     S
O1006  Zn1022  1.945   .     S
O1007  Zn1021  1.938   .     S
O1008  Zn1019  1.928   .     S
O1009  C1182   1.399   .     S
O1009  C1190   1.413   .     S
O1011  Zn1019  1.935   .     S
O1012  Zn1022  1.940   .     S
O1013  Zn1020  1.922   .     S
O1014  Zn1021  1.934   .     S
O1015  Zn1022  1.932   .     S
O1016  Zn1019  1.922   .     S
O1017  Zn1020  1.943   .     S
O1018  Zn1021  1.934   .     S
C1023  O1088   1.270   .     A
C1023  O1086   1.271   .     A
C1023  C1033   1.436   .     S
C1024  C1025   1.385   .     A
C1024  C1051   1.413   .     A
C1024  H1058   1.078   .     S
C1025  H1075   1.084   .     S
C1025  C370    1.391   1_556 S
C1026  O1087   1.285   .     A
C1026  C1032   1.454   .     S
C1026  O1089   1.281   .     A
C1027  C1028   1.421   .     A
C1027  C1029   1.403   .     A
C1028  C1031   1.409   .     A
C1028  C1052   1.425   .     A
C1029  C1030   1.390   .     A
C1029  H1066   1.084   .     S
C1030  H1074   1.083   .     S
C1030  C1042   1.394   .     A
C1031  H1073   1.078   .     S
C1031  C1042   1.392   .     A
C1032  C887    1.335   1_655 S
C1032  H924    1.088   1_655 S
C1034  H1056   1.083   .     S
C1034  C1043   1.390   .     A
C1034  C1041   1.400   .     A
C1035  C1038   1.455   .     S
C1035  C1255   1.344   .     S
C1035  H1291   1.088   .     S
C1036  C1037   1.444   .     S
C1037  O1090   1.278   .     A
C1037  O1084   1.275   .     A
C1038  O1085   1.264   .     A
C1038  O1091   1.275   .     A
C1039  O1080   1.275   .     A
C1039  O1078   1.275   .     A
C1039  C1042   1.449   .     S
C1040  O1079   1.281   .     A
C1040  O1081   1.283   .     A
C1040  C1041   1.471   .     S
C1041  C1045   1.407   .     A
C1043  C1050   1.401   .     A
C1043  H1076   1.084   .     S
C1044  H1059   1.115   .     S
C1044  H1060   1.113   .     S
C1045  C1049   1.419   .     A
C1045  O1083   1.384   .     S
C1046  H1063   1.111   .     S
C1046  H1061   1.111   .     S
C1046  C1263   1.521   .     S
C1046  H1281   1.111   .     S
C1047  H1064   1.114   .     S
C1047  H1065   1.115   .     S
C1047  O1083   1.412   .     S
C1047  C1048   1.521   .     S
C1048  H1069   1.111   .     S
C1048  H1068   1.111   .     S
C1048  H1067   1.111   .     S
C1049  C1051   1.426   .     A
C1049  C1050   1.418   .     A
C1050  C397    1.392   1_556 S
C1051  C395    1.424   1_556 S
C1052  C1053   1.414   .     A
C1053  C1054   1.388   .     A
C1053  H1057   1.077   .     S
C1054  H1055   1.084   .     S
H1071  C887    1.086   1_655 S
O1077  Zn1092  1.963   .     S
O1077  Zn1095  1.928   .     S
O1077  Zn1093  1.948   .     S
O1077  Zn1094  1.939   .     S
O1078  Zn1093  1.934   .     S
O1079  Zn1095  1.945   .     S
O1080  Zn1094  1.938   .     S
O1081  Zn1092  1.928   .     S
O1082  C1255   1.399   .     S
O1082  C1263   1.413   .     S
O1084  Zn1092  1.935   .     S
O1085  Zn1095  1.940   .     S
O1086  Zn1093  1.922   .     S
O1087  Zn1094  1.934   .     S
O1088  Zn1095  1.932   .     S
O1089  Zn1092  1.922   .     S
O1090  Zn1093  1.943   .     S
O1091  Zn1094  1.934   .     S
C1096  O1161   1.270   .     A
C1096  O1159   1.271   .     A
C1096  C1106   1.436   .     S
C1097  C1098   1.385   .     A
C1097  C1124   1.413   .     A
C1097  H1131   1.078   .     S
C1098  H1148   1.084   .     S
C1098  C443    1.391   1_556 S
C1099  O1160   1.285   .     A
C1099  C1105   1.454   .     S
C1099  O1162   1.281   .     A
C1100  C1101   1.421   .     A
C1100  C1102   1.403   .     A
C1101  C1104   1.409   .     A
C1101  C1125   1.425   .     A
C1102  C1103   1.390   .     A
C1102  H1139   1.084   .     S
C1103  H1147   1.083   .     S
C1103  C1115   1.394   .     A
C1104  H1146   1.078   .     S
C1104  C1115   1.392   .     A
C1105  C1179   1.335   .     S
C1105  H1216   1.088   .     S
C1106  C1251   1.335   1_455 S
C1106  H1290   1.086   1_455 S
C1107  H1129   1.083   .     S
C1107  C1116   1.390   .     A
C1107  C1114   1.400   .     A
C1108  C1111   1.455   .     S
C1108  C671    1.344   1_565 S
C1108  H707    1.088   1_565 S
C1109  C1110   1.444   .     S
C1110  O1163   1.278   .     A
C1110  O1157   1.275   .     A
C1111  O1158   1.264   .     A
C1111  O1164   1.275   .     A
C1112  O1153   1.275   .     A
C1112  O1151   1.275   .     A
C1112  C1115   1.449   .     S
C1113  O1152   1.281   .     A
C1113  O1154   1.283   .     A
C1113  C1114   1.471   .     S
C1114  C1118   1.407   .     A
C1116  C1123   1.401   .     A
C1116  H1149   1.084   .     S
C1117  H1132   1.115   .     S
C1117  H1133   1.113   .     S
C1118  C1122   1.419   .     A
C1118  O1156   1.384   .     S
C1119  H1136   1.111   .     S
C1119  H1134   1.111   .     S
C1119  C679    1.521   1_565 S
C1119  H697    1.111   1_565 S
C1120  H1137   1.114   .     S
C1120  H1138   1.115   .     S
C1120  O1156   1.412   .     S
C1120  C1121   1.521   .     S
C1121  H1142   1.111   .     S
C1121  H1141   1.111   .     S
C1121  H1140   1.111   .     S
C1122  C1124   1.426   .     A
C1122  C1123   1.418   .     A
C1123  C470    1.392   1_556 S
C1124  C468    1.424   1_556 S
C1125  C1126   1.414   .     A
C1126  C1127   1.388   .     A
C1126  H1130   1.077   .     S
C1127  H1128   1.084   .     S
H1143  C1251   1.088   1_455 S
H1144  C1179   1.086   .     S
O1150  Zn1165  1.963   .     S
O1150  Zn1168  1.928   .     S
O1150  Zn1166  1.948   .     S
O1150  Zn1167  1.939   .     S
O1151  Zn1166  1.934   .     S
O1152  Zn1168  1.945   .     S
O1153  Zn1167  1.938   .     S
O1154  Zn1165  1.928   .     S
O1155  C671    1.399   1_565 S
O1155  C679    1.413   1_565 S
O1157  Zn1165  1.935   .     S
O1158  Zn1168  1.940   .     S
O1159  Zn1166  1.922   .     S
O1160  Zn1167  1.934   .     S
O1161  Zn1168  1.932   .     S
O1162  Zn1165  1.922   .     S
O1163  Zn1166  1.943   .     S
O1164  Zn1167  1.934   .     S
C1169  O1234   1.270   .     A
C1169  O1232   1.271   .     A
C1169  C1179   1.436   .     S
C1170  C1171   1.385   .     A
C1170  C1197   1.413   .     A
C1170  H1204   1.078   .     S
C1171  H1221   1.084   .     S
C1171  C516    1.391   1_556 S
C1172  O1233   1.285   .     A
C1172  C1178   1.454   .     S
C1172  O1235   1.281   .     A
C1173  C1174   1.421   .     A
C1173  C1175   1.403   .     A
C1174  C1177   1.409   .     A
C1174  C1198   1.425   .     A
C1175  C1176   1.390   .     A
C1175  H1212   1.084   .     S
C1176  H1220   1.083   .     S
C1176  C1188   1.394   .     A
C1177  H1219   1.078   .     S
C1177  C1188   1.392   .     A
C1178  C1252   1.335   .     S
C1178  H1289   1.088   .     S
C1180  H1202   1.083   .     S
C1180  C1189   1.390   .     A
C1180  C1187   1.400   .     A
C1181  C1184   1.455   .     S
C1181  C744    1.344   1_565 S
C1181  H780    1.088   1_565 S
C1182  C1183   1.444   .     S
C1183  O1236   1.278   .     A
C1183  O1230   1.275   .     A
C1184  O1231   1.264   .     A
C1184  O1237   1.275   .     A
C1185  O1226   1.275   .     A
C1185  O1224   1.275   .     A
C1185  C1188   1.449   .     S
C1186  O1225   1.281   .     A
C1186  O1227   1.283   .     A
C1186  C1187   1.471   .     S
C1187  C1191   1.407   .     A
C1189  C1196   1.401   .     A
C1189  H1222   1.084   .     S
C1190  H1205   1.115   .     S
C1190  H1206   1.113   .     S
C1191  C1195   1.419   .     A
C1191  O1229   1.384   .     S
C1192  H1209   1.111   .     S
C1192  H1207   1.111   .     S
C1192  C752    1.521   1_565 S
C1192  H770    1.111   1_565 S
C1193  H1210   1.114   .     S
C1193  H1211   1.115   .     S
C1193  O1229   1.412   .     S
C1193  C1194   1.521   .     S
C1194  H1215   1.111   .     S
C1194  H1214   1.111   .     S
C1194  H1213   1.111   .     S
C1195  C1197   1.426   .     A
C1195  C1196   1.418   .     A
C1196  C543    1.392   1_556 S
C1197  C541    1.424   1_556 S
C1198  C1199   1.414   .     A
C1199  C1200   1.388   .     A
C1199  H1203   1.077   .     S
C1200  H1201   1.084   .     S
H1217  C1252   1.086   .     S
O1223  Zn1238  1.963   .     S
O1223  Zn1241  1.928   .     S
O1223  Zn1239  1.948   .     S
O1223  Zn1240  1.939   .     S
O1224  Zn1239  1.934   .     S
O1225  Zn1241  1.945   .     S
O1226  Zn1240  1.938   .     S
O1227  Zn1238  1.928   .     S
O1228  C744    1.399   1_565 S
O1228  C752    1.413   1_565 S
O1230  Zn1238  1.935   .     S
O1231  Zn1241  1.940   .     S
O1232  Zn1239  1.922   .     S
O1233  Zn1240  1.934   .     S
O1234  Zn1241  1.932   .     S
O1235  Zn1238  1.922   .     S
O1236  Zn1239  1.943   .     S
O1237  Zn1240  1.934   .     S
C1242  O1307   1.270   .     A
C1242  O1305   1.271   .     A
C1242  C1252   1.436   .     S
C1243  C1244   1.385   .     A
C1243  C1270   1.413   .     A
C1243  H1277   1.078   .     S
C1244  H1294   1.084   .     S
C1244  C589    1.391   1_556 S
C1245  O1306   1.285   .     A
C1245  C1251   1.454   .     S
C1245  O1308   1.281   .     A
C1246  C1247   1.421   .     A
C1246  C1248   1.403   .     A
C1247  C1250   1.409   .     A
C1247  C1271   1.425   .     A
C1248  C1249   1.390   .     A
C1248  H1285   1.084   .     S
C1249  H1293   1.083   .     S
C1249  C1261   1.394   .     A
C1250  H1292   1.078   .     S
C1250  C1261   1.392   .     A
C1251  C1106   1.335   1_655 S
C1251  H1143   1.088   1_655 S
C1253  H1275   1.083   .     S
C1253  C1262   1.390   .     A
C1253  C1260   1.400   .     A
C1254  C1257   1.455   .     S
C1254  C817    1.344   1_565 S
C1254  H853    1.088   1_565 S
C1255  C1256   1.444   .     S
C1256  O1309   1.278   .     A
C1256  O1303   1.275   .     A
C1257  O1304   1.264   .     A
C1257  O1310   1.275   .     A
C1258  O1299   1.275   .     A
C1258  O1297   1.275   .     A
C1258  C1261   1.449   .     S
C1259  O1298   1.281   .     A
C1259  O1300   1.283   .     A
C1259  C1260   1.471   .     S
C1260  C1264   1.407   .     A
C1262  C1269   1.401   .     A
C1262  H1295   1.084   .     S
C1263  H1278   1.115   .     S
C1263  H1279   1.113   .     S
C1264  C1268   1.419   .     A
C1264  O1302   1.384   .     S
C1265  H1282   1.111   .     S
C1265  H1280   1.111   .     S
C1265  C825    1.521   1_565 S
C1265  H843    1.111   1_565 S
C1266  H1283   1.114   .     S
C1266  H1284   1.115   .     S
C1266  O1302   1.412   .     S
C1266  C1267   1.521   .     S
C1267  H1288   1.111   .     S
C1267  H1287   1.111   .     S
C1267  H1286   1.111   .     S
C1268  C1270   1.426   .     A
C1268  C1269   1.418   .     A
C1269  C616    1.392   1_556 S
C1270  C614    1.424   1_556 S
C1271  C1272   1.414   .     A
C1272  C1273   1.388   .     A
C1272  H1276   1.077   .     S
C1273  H1274   1.084   .     S
H1290  C1106   1.086   1_655 S
O1296  Zn1311  1.963   .     S
O1296  Zn1314  1.928   .     S
O1296  Zn1312  1.948   .     S
O1296  Zn1313  1.939   .     S
O1297  Zn1312  1.934   .     S
O1298  Zn1314  1.945   .     S
O1299  Zn1313  1.938   .     S
O1300  Zn1311  1.928   .     S
O1301  C817    1.399   1_565 S
O1301  C825    1.413   1_565 S
O1303  Zn1311  1.935   .     S
O1304  Zn1314  1.940   .     S
O1305  Zn1312  1.922   .     S
O1306  Zn1313  1.934   .     S
O1307  Zn1314  1.932   .     S
O1308  Zn1311  1.922   .     S
O1309  Zn1312  1.943   .     S
O1310  Zn1313  1.934   .     S
