data_str_m1_o10_o18_pcu_sym.183
_audit_creation_date              2020-01-03
_audit_creation_method            'Materials Studio'
_symmetry_space_group_name_H-M    'P1'
_symmetry_Int_Tables_number       1
_symmetry_cell_setting            triclinic
loop_
_symmetry_equiv_pos_as_xyz
  x,y,z
_cell_length_a                    32.5143
_cell_length_b                    32.6545
_cell_length_c                    35.7103
_cell_angle_alpha                 98.3565
_cell_angle_beta                  72.7895
_cell_angle_gamma                 98.4195
loop_
_atom_site_label
_atom_site_type_symbol
_atom_site_fract_x
_atom_site_fract_y
_atom_site_fract_z
_atom_site_U_iso_or_equiv
_atom_site_adp_type
_atom_site_occupancy
C1     C     0.05248   0.16005   0.25877   0.00000  Uiso   1.00
C2     C     0.21653   0.16068   0.46193   0.00000  Uiso   1.00
C3     C     0.23863   0.14022   0.48008   0.00000  Uiso   1.00
C4     C     0.28105   0.17357   0.24118   0.00000  Uiso   1.00
C5     C     0.22170   0.13378   0.01953   0.00000  Uiso   1.00
C6     C     0.18089   0.14707   0.04127   0.00000  Uiso   1.00
C7     C     0.24772   0.11880   0.03850   0.00000  Uiso   1.00
C8     C     0.23554   0.12034   0.07936   0.00000  Uiso   1.00
C9     C     0.17094   0.15096   0.08275   0.00000  Uiso   1.00
C10    C     0.32711   0.17607   0.23744   0.00000  Uiso   1.00
C11    C     0.00705   0.15795   0.26234   0.00000  Uiso   1.00
C12    C     0.09917   0.21665   0.42130   0.00000  Uiso   1.00
C13    C     0.17985   0.32209   0.23944   0.00000  Uiso   1.00
C14    C     0.15019   0.01287   0.26298   0.00000  Uiso   1.00
C15    C     0.15648   0.05626   0.25840   0.00000  Uiso   1.00
C16    C     0.17653   0.27766   0.24159   0.00000  Uiso   1.00
C17    C     0.18830   0.14533   0.14404   0.00000  Uiso   1.00
C18    C     0.14514   0.18759   0.35623   0.00000  Uiso   1.00
C19    C     0.13374   0.19433   0.39954   0.00000  Uiso   1.00
C20    C     0.19767   0.13734   0.10144   0.00000  Uiso   1.00
C21    C     0.08514   0.21749   0.46222   0.00000  Uiso   1.00
C22    C     0.04456   0.20239   0.04322   0.00000  Uiso   1.00
C23    C     0.15624   0.17623   0.41947   0.00000  Uiso   1.00
C24    C     0.08331   0.14552   0.07447   0.00000  Uiso   1.00
C25    C     0.14631   0.18156   0.46074   0.00000  Uiso   1.00
C26    C     0.10710   0.19797   0.48229   0.00000  Uiso   1.00
C27    C     0.17236   0.16734   0.48067   0.00000  Uiso   1.00
C28    C     0.15391   0.16017   0.02104   0.00000  Uiso   1.00
C29    C     0.10962   0.16708   0.03970   0.00000  Uiso   1.00
C30    C     0.08851   0.19050   0.02204   0.00000  Uiso   1.00
H31    H     0.27863   0.10805   0.02190   0.00000  Uiso   1.00
H32    H     0.18007   0.15586   0.40262   0.00000  Uiso   1.00
H33    H     0.00751   0.24863   0.06944   0.00000  Uiso   1.00
H34    H     0.04171   0.14962   0.12915   0.00000  Uiso   1.00
H35    H     0.01696   0.19262   0.21434   0.00000  Uiso   1.00
H36    H     0.31785   0.14155   0.28584   0.00000  Uiso   1.00
H37    H     0.20769   0.00255   0.21787   0.00000  Uiso   1.00
H38    H     0.14465   0.16774   0.10121   0.00000  Uiso   1.00
H39    H     0.25671   0.11031   0.09384   0.00000  Uiso   1.00
H40    H     0.27157   0.13390   0.46466   0.00000  Uiso   1.00
H41    H     0.05606   0.23204   0.47762   0.00000  Uiso   1.00
H42    H     0.08112   0.23102   0.40662   0.00000  Uiso   1.00
I43    I     0.09166   0.32840   0.30661   0.00000  Uiso   1.00
I44    I     0.25874   0.19031   0.41263   0.00000  Uiso   1.00
O45    O     0.16667   0.16667   0.25000   0.00000  Uiso   1.00
O46    O     0.15693   0.12393   0.16625   0.00000  Uiso   1.00
O47    O     0.12687   0.20646   0.33749   0.00000  Uiso   1.00
O48    O     0.21088   0.17493   0.15877   0.00000  Uiso   1.00
O49    O     0.17198   0.16135   0.33749   0.00000  Uiso   1.00
O50    O     0.01350   0.17567   0.04927   0.00000  Uiso   1.00
O51    O     0.03887   0.24430   0.05558   0.00000  Uiso   1.00
O52    O     0.08463   0.10825   0.07432   0.00000  Uiso   1.00
O53    O     0.05770   0.16780   0.10745   0.00000  Uiso   1.00
O54    O     0.17849   0.08101   0.27821   0.00000  Uiso   1.00
O55    O     0.14581   0.26136   0.26767   0.00000  Uiso   1.00
O56    O     0.07452   0.13251   0.23607   0.00000  Uiso   1.00
O57    O     0.26785   0.19179   0.21805   0.00000  Uiso   1.00
O58    O     0.06990   0.18960   0.27820   0.00000  Uiso   1.00
O59    O     0.25440   0.15277   0.26767   0.00000  Uiso   1.00
O60    O     0.13800   0.06903   0.23607   0.00000  Uiso   1.00
O61    O     0.20437   0.25527   0.21805   0.00000  Uiso   1.00
Zn62   Zn    0.19244   0.14090   0.28277   0.00000  Uiso   1.00
Zn63   Zn    0.13459   0.12378   0.22257   0.00000  Uiso   1.00
Zn64   Zn    0.21166   0.19664   0.21188   0.00000  Uiso   1.00
Zn65   Zn    0.12798   0.20535   0.28277   0.00000  Uiso   1.00
C66    C     0.38581   0.16005   0.25877   0.00000  Uiso   1.00
C67    C     0.54987   0.16068   0.46193   0.00000  Uiso   1.00
C68    C     0.57196   0.14022   0.48008   0.00000  Uiso   1.00
C69    C     0.61439   0.17357   0.24118   0.00000  Uiso   1.00
C70    C     0.55503   0.13378   0.01953   0.00000  Uiso   1.00
C71    C     0.51422   0.14707   0.04127   0.00000  Uiso   1.00
C72    C     0.58105   0.11880   0.03850   0.00000  Uiso   1.00
C73    C     0.56887   0.12034   0.07936   0.00000  Uiso   1.00
C74    C     0.50427   0.15096   0.08275   0.00000  Uiso   1.00
C75    C     0.66044   0.17607   0.23744   0.00000  Uiso   1.00
C76    C     0.34039   0.15795   0.26234   0.00000  Uiso   1.00
C77    C     0.43250   0.21665   0.42130   0.00000  Uiso   1.00
C78    C     0.51318   0.32209   0.23944   0.00000  Uiso   1.00
C79    C     0.48352   0.01287   0.26298   0.00000  Uiso   1.00
C80    C     0.48982   0.05626   0.25840   0.00000  Uiso   1.00
C81    C     0.50987   0.27766   0.24159   0.00000  Uiso   1.00
C82    C     0.52163   0.14533   0.14404   0.00000  Uiso   1.00
C83    C     0.47847   0.18759   0.35623   0.00000  Uiso   1.00
C84    C     0.46707   0.19433   0.39954   0.00000  Uiso   1.00
C85    C     0.53100   0.13734   0.10144   0.00000  Uiso   1.00
C86    C     0.41847   0.21749   0.46222   0.00000  Uiso   1.00
C87    C     0.37789   0.20239   0.04322   0.00000  Uiso   1.00
C88    C     0.48957   0.17623   0.41947   0.00000  Uiso   1.00
C89    C     0.41664   0.14552   0.07447   0.00000  Uiso   1.00
C90    C     0.47964   0.18156   0.46074   0.00000  Uiso   1.00
C91    C     0.44043   0.19797   0.48229   0.00000  Uiso   1.00
C92    C     0.50569   0.16734   0.48067   0.00000  Uiso   1.00
C93    C     0.48724   0.16017   0.02104   0.00000  Uiso   1.00
C94    C     0.44295   0.16708   0.03970   0.00000  Uiso   1.00
C95    C     0.42184   0.19050   0.02204   0.00000  Uiso   1.00
H96    H     0.61196   0.10805   0.02190   0.00000  Uiso   1.00
H97    H     0.51340   0.15586   0.40262   0.00000  Uiso   1.00
H98    H     0.34085   0.24863   0.06944   0.00000  Uiso   1.00
H99    H     0.37504   0.14962   0.12915   0.00000  Uiso   1.00
H100   H     0.35030   0.19262   0.21434   0.00000  Uiso   1.00
H101   H     0.65118   0.14155   0.28584   0.00000  Uiso   1.00
H102   H     0.54102   0.00255   0.21787   0.00000  Uiso   1.00
H103   H     0.47799   0.16774   0.10121   0.00000  Uiso   1.00
H104   H     0.59004   0.11031   0.09384   0.00000  Uiso   1.00
H105   H     0.60491   0.13390   0.46466   0.00000  Uiso   1.00
H106   H     0.38939   0.23204   0.47762   0.00000  Uiso   1.00
H107   H     0.41446   0.23102   0.40662   0.00000  Uiso   1.00
I108   I     0.42499   0.32840   0.30661   0.00000  Uiso   1.00
I109   I     0.59207   0.19031   0.41263   0.00000  Uiso   1.00
O110   O     0.50000   0.16667   0.25000   0.00000  Uiso   1.00
O111   O     0.49027   0.12393   0.16625   0.00000  Uiso   1.00
O112   O     0.46020   0.20646   0.33749   0.00000  Uiso   1.00
O113   O     0.54421   0.17493   0.15877   0.00000  Uiso   1.00
O114   O     0.50532   0.16135   0.33749   0.00000  Uiso   1.00
O115   O     0.34683   0.17567   0.04927   0.00000  Uiso   1.00
O116   O     0.37221   0.24430   0.05558   0.00000  Uiso   1.00
O117   O     0.41796   0.10825   0.07432   0.00000  Uiso   1.00
O118   O     0.39104   0.16780   0.10745   0.00000  Uiso   1.00
O119   O     0.51182   0.08101   0.27821   0.00000  Uiso   1.00
O120   O     0.47914   0.26136   0.26767   0.00000  Uiso   1.00
O121   O     0.40785   0.13251   0.23607   0.00000  Uiso   1.00
O122   O     0.60119   0.19179   0.21805   0.00000  Uiso   1.00
O123   O     0.40323   0.18960   0.27820   0.00000  Uiso   1.00
O124   O     0.58773   0.15277   0.26767   0.00000  Uiso   1.00
O125   O     0.47133   0.06903   0.23607   0.00000  Uiso   1.00
O126   O     0.53771   0.25527   0.21805   0.00000  Uiso   1.00
Zn127  Zn    0.52577   0.14090   0.28277   0.00000  Uiso   1.00
Zn128  Zn    0.46792   0.12378   0.22257   0.00000  Uiso   1.00
Zn129  Zn    0.54500   0.19664   0.21188   0.00000  Uiso   1.00
Zn130  Zn    0.46131   0.20535   0.28277   0.00000  Uiso   1.00
C131   C     0.71915   0.16005   0.25877   0.00000  Uiso   1.00
C132   C     0.88320   0.16068   0.46193   0.00000  Uiso   1.00
C133   C     0.90529   0.14022   0.48008   0.00000  Uiso   1.00
C134   C     0.94772   0.17357   0.24118   0.00000  Uiso   1.00
C135   C     0.88837   0.13378   0.01953   0.00000  Uiso   1.00
C136   C     0.84756   0.14707   0.04127   0.00000  Uiso   1.00
C137   C     0.91438   0.11880   0.03850   0.00000  Uiso   1.00
C138   C     0.90220   0.12034   0.07936   0.00000  Uiso   1.00
C139   C     0.83761   0.15096   0.08275   0.00000  Uiso   1.00
C140   C     0.99378   0.17607   0.23744   0.00000  Uiso   1.00
C141   C     0.67372   0.15795   0.26234   0.00000  Uiso   1.00
C142   C     0.76583   0.21665   0.42130   0.00000  Uiso   1.00
C143   C     0.84652   0.32209   0.23944   0.00000  Uiso   1.00
C144   C     0.81686   0.01287   0.26298   0.00000  Uiso   1.00
C145   C     0.82315   0.05626   0.25840   0.00000  Uiso   1.00
C146   C     0.84320   0.27766   0.24159   0.00000  Uiso   1.00
C147   C     0.85497   0.14533   0.14404   0.00000  Uiso   1.00
C148   C     0.81180   0.18759   0.35623   0.00000  Uiso   1.00
C149   C     0.80041   0.19433   0.39954   0.00000  Uiso   1.00
C150   C     0.86433   0.13734   0.10144   0.00000  Uiso   1.00
C151   C     0.75181   0.21749   0.46222   0.00000  Uiso   1.00
C152   C     0.71122   0.20239   0.04322   0.00000  Uiso   1.00
C153   C     0.82290   0.17623   0.41947   0.00000  Uiso   1.00
C154   C     0.74998   0.14552   0.07447   0.00000  Uiso   1.00
C155   C     0.81298   0.18156   0.46074   0.00000  Uiso   1.00
C156   C     0.77376   0.19797   0.48229   0.00000  Uiso   1.00
C157   C     0.83903   0.16734   0.48067   0.00000  Uiso   1.00
C158   C     0.82057   0.16017   0.02104   0.00000  Uiso   1.00
C159   C     0.77628   0.16708   0.03970   0.00000  Uiso   1.00
C160   C     0.75518   0.19050   0.02204   0.00000  Uiso   1.00
H161   H     0.94529   0.10805   0.02190   0.00000  Uiso   1.00
H162   H     0.84673   0.15586   0.40262   0.00000  Uiso   1.00
H163   H     0.67418   0.24863   0.06944   0.00000  Uiso   1.00
H164   H     0.70838   0.14962   0.12915   0.00000  Uiso   1.00
H165   H     0.68363   0.19262   0.21434   0.00000  Uiso   1.00
H166   H     0.98452   0.14155   0.28584   0.00000  Uiso   1.00
H167   H     0.87435   0.00255   0.21787   0.00000  Uiso   1.00
H168   H     0.81132   0.16774   0.10121   0.00000  Uiso   1.00
H169   H     0.92337   0.11031   0.09384   0.00000  Uiso   1.00
H170   H     0.93824   0.13390   0.46466   0.00000  Uiso   1.00
H171   H     0.72273   0.23204   0.47762   0.00000  Uiso   1.00
H172   H     0.74779   0.23102   0.40662   0.00000  Uiso   1.00
I173   I     0.75833   0.32840   0.30661   0.00000  Uiso   1.00
I174   I     0.92541   0.19031   0.41263   0.00000  Uiso   1.00
O175   O     0.83333   0.16667   0.25000   0.00000  Uiso   1.00
O176   O     0.82360   0.12393   0.16625   0.00000  Uiso   1.00
O177   O     0.79354   0.20646   0.33749   0.00000  Uiso   1.00
O178   O     0.87755   0.17493   0.15877   0.00000  Uiso   1.00
O179   O     0.83865   0.16135   0.33749   0.00000  Uiso   1.00
O180   O     0.68016   0.17567   0.04927   0.00000  Uiso   1.00
O181   O     0.70554   0.24430   0.05558   0.00000  Uiso   1.00
O182   O     0.75130   0.10825   0.07432   0.00000  Uiso   1.00
O183   O     0.72437   0.16780   0.10745   0.00000  Uiso   1.00
O184   O     0.84515   0.08101   0.27821   0.00000  Uiso   1.00
O185   O     0.81247   0.26136   0.26767   0.00000  Uiso   1.00
O186   O     0.74119   0.13251   0.23607   0.00000  Uiso   1.00
O187   O     0.93452   0.19179   0.21805   0.00000  Uiso   1.00
O188   O     0.73656   0.18960   0.27820   0.00000  Uiso   1.00
O189   O     0.92106   0.15277   0.26767   0.00000  Uiso   1.00
O190   O     0.80467   0.06903   0.23607   0.00000  Uiso   1.00
O191   O     0.87104   0.25527   0.21805   0.00000  Uiso   1.00
Zn192  Zn    0.85910   0.14090   0.28277   0.00000  Uiso   1.00
Zn193  Zn    0.80125   0.12378   0.22257   0.00000  Uiso   1.00
Zn194  Zn    0.87833   0.19664   0.21188   0.00000  Uiso   1.00
Zn195  Zn    0.79465   0.20535   0.28277   0.00000  Uiso   1.00
C196   C     0.05248   0.49338   0.25877   0.00000  Uiso   1.00
C197   C     0.21653   0.49402   0.46193   0.00000  Uiso   1.00
C198   C     0.23863   0.47355   0.48008   0.00000  Uiso   1.00
C199   C     0.28105   0.50690   0.24118   0.00000  Uiso   1.00
C200   C     0.22170   0.46711   0.01953   0.00000  Uiso   1.00
C201   C     0.18089   0.48040   0.04127   0.00000  Uiso   1.00
C202   C     0.24772   0.45213   0.03850   0.00000  Uiso   1.00
C203   C     0.23554   0.45367   0.07936   0.00000  Uiso   1.00
C204   C     0.17094   0.48429   0.08275   0.00000  Uiso   1.00
C205   C     0.32711   0.50940   0.23744   0.00000  Uiso   1.00
C206   C     0.00705   0.49129   0.26234   0.00000  Uiso   1.00
C207   C     0.09917   0.54998   0.42130   0.00000  Uiso   1.00
C208   C     0.17985   0.65542   0.23944   0.00000  Uiso   1.00
C209   C     0.15019   0.34620   0.26298   0.00000  Uiso   1.00
C210   C     0.15648   0.38960   0.25840   0.00000  Uiso   1.00
C211   C     0.17653   0.61100   0.24159   0.00000  Uiso   1.00
C212   C     0.18830   0.47866   0.14404   0.00000  Uiso   1.00
C213   C     0.14514   0.52092   0.35623   0.00000  Uiso   1.00
C214   C     0.13374   0.52767   0.39954   0.00000  Uiso   1.00
C215   C     0.19767   0.47067   0.10144   0.00000  Uiso   1.00
C216   C     0.08514   0.55082   0.46222   0.00000  Uiso   1.00
C217   C     0.04456   0.53573   0.04322   0.00000  Uiso   1.00
C218   C     0.15624   0.50957   0.41947   0.00000  Uiso   1.00
C219   C     0.08331   0.47885   0.07447   0.00000  Uiso   1.00
C220   C     0.14631   0.51489   0.46074   0.00000  Uiso   1.00
C221   C     0.10710   0.53130   0.48229   0.00000  Uiso   1.00
C222   C     0.17236   0.50068   0.48067   0.00000  Uiso   1.00
C223   C     0.15391   0.49351   0.02104   0.00000  Uiso   1.00
C224   C     0.10962   0.50042   0.03970   0.00000  Uiso   1.00
C225   C     0.08851   0.52383   0.02204   0.00000  Uiso   1.00
H226   H     0.27863   0.44139   0.02190   0.00000  Uiso   1.00
H227   H     0.18007   0.48919   0.40262   0.00000  Uiso   1.00
H228   H     0.00751   0.58197   0.06944   0.00000  Uiso   1.00
H229   H     0.04171   0.48296   0.12915   0.00000  Uiso   1.00
H230   H     0.01696   0.52595   0.21434   0.00000  Uiso   1.00
H231   H     0.31785   0.47489   0.28584   0.00000  Uiso   1.00
H232   H     0.20769   0.33588   0.21787   0.00000  Uiso   1.00
H233   H     0.14465   0.50108   0.10121   0.00000  Uiso   1.00
H234   H     0.25671   0.44364   0.09384   0.00000  Uiso   1.00
H235   H     0.27157   0.46723   0.46466   0.00000  Uiso   1.00
H236   H     0.05606   0.56537   0.47762   0.00000  Uiso   1.00
H237   H     0.08112   0.56436   0.40662   0.00000  Uiso   1.00
I238   I     0.09166   0.66173   0.30661   0.00000  Uiso   1.00
I239   I     0.25874   0.52365   0.41263   0.00000  Uiso   1.00
O240   O     0.16667   0.50000   0.25000   0.00000  Uiso   1.00
O241   O     0.15693   0.45726   0.16625   0.00000  Uiso   1.00
O242   O     0.12687   0.53979   0.33749   0.00000  Uiso   1.00
O243   O     0.21088   0.50826   0.15877   0.00000  Uiso   1.00
O244   O     0.17198   0.49468   0.33749   0.00000  Uiso   1.00
O245   O     0.01350   0.50901   0.04927   0.00000  Uiso   1.00
O246   O     0.03887   0.57764   0.05558   0.00000  Uiso   1.00
O247   O     0.08463   0.44159   0.07432   0.00000  Uiso   1.00
O248   O     0.05770   0.50113   0.10745   0.00000  Uiso   1.00
O249   O     0.17849   0.41434   0.27821   0.00000  Uiso   1.00
O250   O     0.14581   0.59469   0.26767   0.00000  Uiso   1.00
O251   O     0.07452   0.46584   0.23607   0.00000  Uiso   1.00
O252   O     0.26785   0.52512   0.21805   0.00000  Uiso   1.00
O253   O     0.06990   0.52293   0.27820   0.00000  Uiso   1.00
O254   O     0.25440   0.48610   0.26767   0.00000  Uiso   1.00
O255   O     0.13800   0.40236   0.23607   0.00000  Uiso   1.00
O256   O     0.20437   0.58860   0.21805   0.00000  Uiso   1.00
Zn257  Zn    0.19244   0.47423   0.28277   0.00000  Uiso   1.00
Zn258  Zn    0.13459   0.45711   0.22257   0.00000  Uiso   1.00
Zn259  Zn    0.21166   0.52997   0.21188   0.00000  Uiso   1.00
Zn260  Zn    0.12798   0.53868   0.28277   0.00000  Uiso   1.00
C261   C     0.38581   0.49338   0.25877   0.00000  Uiso   1.00
C262   C     0.54987   0.49402   0.46193   0.00000  Uiso   1.00
C263   C     0.57196   0.47355   0.48008   0.00000  Uiso   1.00
C264   C     0.61439   0.50690   0.24118   0.00000  Uiso   1.00
C265   C     0.55503   0.46711   0.01953   0.00000  Uiso   1.00
C266   C     0.51422   0.48040   0.04127   0.00000  Uiso   1.00
C267   C     0.58105   0.45213   0.03850   0.00000  Uiso   1.00
C268   C     0.56887   0.45367   0.07936   0.00000  Uiso   1.00
C269   C     0.50427   0.48429   0.08275   0.00000  Uiso   1.00
C270   C     0.66044   0.50940   0.23744   0.00000  Uiso   1.00
C271   C     0.34039   0.49129   0.26234   0.00000  Uiso   1.00
C272   C     0.43250   0.54998   0.42130   0.00000  Uiso   1.00
C273   C     0.51318   0.65542   0.23944   0.00000  Uiso   1.00
C274   C     0.48352   0.34620   0.26298   0.00000  Uiso   1.00
C275   C     0.48982   0.38960   0.25840   0.00000  Uiso   1.00
C276   C     0.50987   0.61100   0.24159   0.00000  Uiso   1.00
C277   C     0.52163   0.47866   0.14404   0.00000  Uiso   1.00
C278   C     0.47847   0.52092   0.35623   0.00000  Uiso   1.00
C279   C     0.46707   0.52767   0.39954   0.00000  Uiso   1.00
C280   C     0.53100   0.47067   0.10144   0.00000  Uiso   1.00
C281   C     0.41847   0.55082   0.46222   0.00000  Uiso   1.00
C282   C     0.37789   0.53573   0.04322   0.00000  Uiso   1.00
C283   C     0.48957   0.50957   0.41947   0.00000  Uiso   1.00
C284   C     0.41664   0.47885   0.07447   0.00000  Uiso   1.00
C285   C     0.47964   0.51489   0.46074   0.00000  Uiso   1.00
C286   C     0.44043   0.53130   0.48229   0.00000  Uiso   1.00
C287   C     0.50569   0.50068   0.48067   0.00000  Uiso   1.00
C288   C     0.48724   0.49351   0.02104   0.00000  Uiso   1.00
C289   C     0.44295   0.50042   0.03970   0.00000  Uiso   1.00
C290   C     0.42184   0.52383   0.02204   0.00000  Uiso   1.00
H291   H     0.61196   0.44139   0.02190   0.00000  Uiso   1.00
H292   H     0.51340   0.48919   0.40262   0.00000  Uiso   1.00
H293   H     0.34085   0.58197   0.06944   0.00000  Uiso   1.00
H294   H     0.37504   0.48296   0.12915   0.00000  Uiso   1.00
H295   H     0.35030   0.52595   0.21434   0.00000  Uiso   1.00
H296   H     0.65118   0.47489   0.28584   0.00000  Uiso   1.00
H297   H     0.54102   0.33588   0.21787   0.00000  Uiso   1.00
H298   H     0.47799   0.50108   0.10121   0.00000  Uiso   1.00
H299   H     0.59004   0.44364   0.09384   0.00000  Uiso   1.00
H300   H     0.60491   0.46723   0.46466   0.00000  Uiso   1.00
H301   H     0.38939   0.56537   0.47762   0.00000  Uiso   1.00
H302   H     0.41446   0.56436   0.40662   0.00000  Uiso   1.00
I303   I     0.42499   0.66173   0.30661   0.00000  Uiso   1.00
I304   I     0.59207   0.52365   0.41263   0.00000  Uiso   1.00
O305   O     0.50000   0.50000   0.25000   0.00000  Uiso   1.00
O306   O     0.49027   0.45726   0.16625   0.00000  Uiso   1.00
O307   O     0.46020   0.53979   0.33749   0.00000  Uiso   1.00
O308   O     0.54421   0.50826   0.15877   0.00000  Uiso   1.00
O309   O     0.50532   0.49468   0.33749   0.00000  Uiso   1.00
O310   O     0.34683   0.50901   0.04927   0.00000  Uiso   1.00
O311   O     0.37221   0.57764   0.05558   0.00000  Uiso   1.00
O312   O     0.41796   0.44159   0.07432   0.00000  Uiso   1.00
O313   O     0.39104   0.50113   0.10745   0.00000  Uiso   1.00
O314   O     0.51182   0.41434   0.27821   0.00000  Uiso   1.00
O315   O     0.47914   0.59469   0.26767   0.00000  Uiso   1.00
O316   O     0.40785   0.46584   0.23607   0.00000  Uiso   1.00
O317   O     0.60119   0.52512   0.21805   0.00000  Uiso   1.00
O318   O     0.40323   0.52293   0.27820   0.00000  Uiso   1.00
O319   O     0.58773   0.48610   0.26767   0.00000  Uiso   1.00
O320   O     0.47133   0.40236   0.23607   0.00000  Uiso   1.00
O321   O     0.53771   0.58860   0.21805   0.00000  Uiso   1.00
Zn322  Zn    0.52577   0.47423   0.28277   0.00000  Uiso   1.00
Zn323  Zn    0.46792   0.45711   0.22257   0.00000  Uiso   1.00
Zn324  Zn    0.54500   0.52997   0.21188   0.00000  Uiso   1.00
Zn325  Zn    0.46131   0.53868   0.28277   0.00000  Uiso   1.00
C326   C     0.71915   0.49338   0.25877   0.00000  Uiso   1.00
C327   C     0.88320   0.49402   0.46193   0.00000  Uiso   1.00
C328   C     0.90529   0.47355   0.48008   0.00000  Uiso   1.00
C329   C     0.94772   0.50690   0.24118   0.00000  Uiso   1.00
C330   C     0.88837   0.46711   0.01953   0.00000  Uiso   1.00
C331   C     0.84756   0.48040   0.04127   0.00000  Uiso   1.00
C332   C     0.91438   0.45213   0.03850   0.00000  Uiso   1.00
C333   C     0.90220   0.45367   0.07936   0.00000  Uiso   1.00
C334   C     0.83761   0.48429   0.08275   0.00000  Uiso   1.00
C335   C     0.99378   0.50940   0.23744   0.00000  Uiso   1.00
C336   C     0.67372   0.49129   0.26234   0.00000  Uiso   1.00
C337   C     0.76583   0.54998   0.42130   0.00000  Uiso   1.00
C338   C     0.84652   0.65542   0.23944   0.00000  Uiso   1.00
C339   C     0.81686   0.34620   0.26298   0.00000  Uiso   1.00
C340   C     0.82315   0.38960   0.25840   0.00000  Uiso   1.00
C341   C     0.84320   0.61100   0.24159   0.00000  Uiso   1.00
C342   C     0.85497   0.47866   0.14404   0.00000  Uiso   1.00
C343   C     0.81180   0.52092   0.35623   0.00000  Uiso   1.00
C344   C     0.80041   0.52767   0.39954   0.00000  Uiso   1.00
C345   C     0.86433   0.47067   0.10144   0.00000  Uiso   1.00
C346   C     0.75181   0.55082   0.46222   0.00000  Uiso   1.00
C347   C     0.71122   0.53573   0.04322   0.00000  Uiso   1.00
C348   C     0.82290   0.50957   0.41947   0.00000  Uiso   1.00
C349   C     0.74998   0.47885   0.07447   0.00000  Uiso   1.00
C350   C     0.81298   0.51489   0.46074   0.00000  Uiso   1.00
C351   C     0.77376   0.53130   0.48229   0.00000  Uiso   1.00
C352   C     0.83903   0.50068   0.48067   0.00000  Uiso   1.00
C353   C     0.82057   0.49351   0.02104   0.00000  Uiso   1.00
C354   C     0.77628   0.50042   0.03970   0.00000  Uiso   1.00
C355   C     0.75518   0.52383   0.02204   0.00000  Uiso   1.00
H356   H     0.94529   0.44139   0.02190   0.00000  Uiso   1.00
H357   H     0.84673   0.48919   0.40262   0.00000  Uiso   1.00
H358   H     0.67418   0.58197   0.06944   0.00000  Uiso   1.00
H359   H     0.70838   0.48296   0.12915   0.00000  Uiso   1.00
H360   H     0.68363   0.52595   0.21434   0.00000  Uiso   1.00
H361   H     0.98452   0.47489   0.28584   0.00000  Uiso   1.00
H362   H     0.87435   0.33588   0.21787   0.00000  Uiso   1.00
H363   H     0.81132   0.50108   0.10121   0.00000  Uiso   1.00
H364   H     0.92337   0.44364   0.09384   0.00000  Uiso   1.00
H365   H     0.93824   0.46723   0.46466   0.00000  Uiso   1.00
H366   H     0.72273   0.56537   0.47762   0.00000  Uiso   1.00
H367   H     0.74779   0.56436   0.40662   0.00000  Uiso   1.00
I368   I     0.75833   0.66173   0.30661   0.00000  Uiso   1.00
I369   I     0.92541   0.52365   0.41263   0.00000  Uiso   1.00
O370   O     0.83333   0.50000   0.25000   0.00000  Uiso   1.00
O371   O     0.82360   0.45726   0.16625   0.00000  Uiso   1.00
O372   O     0.79354   0.53979   0.33749   0.00000  Uiso   1.00
O373   O     0.87755   0.50826   0.15877   0.00000  Uiso   1.00
O374   O     0.83865   0.49468   0.33749   0.00000  Uiso   1.00
O375   O     0.68016   0.50901   0.04927   0.00000  Uiso   1.00
O376   O     0.70554   0.57764   0.05558   0.00000  Uiso   1.00
O377   O     0.75130   0.44159   0.07432   0.00000  Uiso   1.00
O378   O     0.72437   0.50113   0.10745   0.00000  Uiso   1.00
O379   O     0.84515   0.41434   0.27821   0.00000  Uiso   1.00
O380   O     0.81247   0.59469   0.26767   0.00000  Uiso   1.00
O381   O     0.74119   0.46584   0.23607   0.00000  Uiso   1.00
O382   O     0.93452   0.52512   0.21805   0.00000  Uiso   1.00
O383   O     0.73656   0.52293   0.27820   0.00000  Uiso   1.00
O384   O     0.92106   0.48610   0.26767   0.00000  Uiso   1.00
O385   O     0.80467   0.40236   0.23607   0.00000  Uiso   1.00
O386   O     0.87104   0.58860   0.21805   0.00000  Uiso   1.00
Zn387  Zn    0.85910   0.47423   0.28277   0.00000  Uiso   1.00
Zn388  Zn    0.80125   0.45711   0.22257   0.00000  Uiso   1.00
Zn389  Zn    0.87833   0.52997   0.21188   0.00000  Uiso   1.00
Zn390  Zn    0.79465   0.53868   0.28277   0.00000  Uiso   1.00
C391   C     0.05248   0.82671   0.25877   0.00000  Uiso   1.00
C392   C     0.21653   0.82735   0.46193   0.00000  Uiso   1.00
C393   C     0.23863   0.80688   0.48008   0.00000  Uiso   1.00
C394   C     0.28105   0.84024   0.24118   0.00000  Uiso   1.00
C395   C     0.22170   0.80044   0.01953   0.00000  Uiso   1.00
C396   C     0.18089   0.81373   0.04127   0.00000  Uiso   1.00
C397   C     0.24772   0.78547   0.03850   0.00000  Uiso   1.00
C398   C     0.23554   0.78700   0.07936   0.00000  Uiso   1.00
C399   C     0.17094   0.81763   0.08275   0.00000  Uiso   1.00
C400   C     0.32711   0.84274   0.23744   0.00000  Uiso   1.00
C401   C     0.00705   0.82462   0.26234   0.00000  Uiso   1.00
C402   C     0.09917   0.88331   0.42130   0.00000  Uiso   1.00
C403   C     0.17985   0.98875   0.23944   0.00000  Uiso   1.00
C404   C     0.15019   0.67953   0.26298   0.00000  Uiso   1.00
C405   C     0.15648   0.72293   0.25840   0.00000  Uiso   1.00
C406   C     0.17653   0.94433   0.24159   0.00000  Uiso   1.00
C407   C     0.18830   0.81200   0.14404   0.00000  Uiso   1.00
C408   C     0.14514   0.85426   0.35623   0.00000  Uiso   1.00
C409   C     0.13374   0.86100   0.39954   0.00000  Uiso   1.00
C410   C     0.19767   0.80400   0.10144   0.00000  Uiso   1.00
C411   C     0.08514   0.88415   0.46222   0.00000  Uiso   1.00
C412   C     0.04456   0.86906   0.04322   0.00000  Uiso   1.00
C413   C     0.15624   0.84290   0.41947   0.00000  Uiso   1.00
C414   C     0.08331   0.81219   0.07447   0.00000  Uiso   1.00
C415   C     0.14631   0.84823   0.46074   0.00000  Uiso   1.00
C416   C     0.10710   0.86463   0.48229   0.00000  Uiso   1.00
C417   C     0.17236   0.83401   0.48067   0.00000  Uiso   1.00
C418   C     0.15391   0.82684   0.02104   0.00000  Uiso   1.00
C419   C     0.10962   0.83375   0.03970   0.00000  Uiso   1.00
C420   C     0.08851   0.85717   0.02204   0.00000  Uiso   1.00
H421   H     0.27863   0.77472   0.02190   0.00000  Uiso   1.00
H422   H     0.18007   0.82253   0.40262   0.00000  Uiso   1.00
H423   H     0.00751   0.91530   0.06944   0.00000  Uiso   1.00
H424   H     0.04171   0.81629   0.12915   0.00000  Uiso   1.00
H425   H     0.01696   0.85928   0.21434   0.00000  Uiso   1.00
H426   H     0.31785   0.80822   0.28584   0.00000  Uiso   1.00
H427   H     0.20769   0.66921   0.21787   0.00000  Uiso   1.00
H428   H     0.14465   0.83441   0.10121   0.00000  Uiso   1.00
H429   H     0.25671   0.77698   0.09384   0.00000  Uiso   1.00
H430   H     0.27157   0.80056   0.46466   0.00000  Uiso   1.00
H431   H     0.05606   0.89871   0.47762   0.00000  Uiso   1.00
H432   H     0.08112   0.89769   0.40662   0.00000  Uiso   1.00
I433   I     0.09166   0.99507   0.30661   0.00000  Uiso   1.00
I434   I     0.25874   0.85698   0.41263   0.00000  Uiso   1.00
O435   O     0.16667   0.83333   0.25000   0.00000  Uiso   1.00
O436   O     0.15693   0.79060   0.16625   0.00000  Uiso   1.00
O437   O     0.12687   0.87313   0.33749   0.00000  Uiso   1.00
O438   O     0.21088   0.84159   0.15877   0.00000  Uiso   1.00
O439   O     0.17198   0.82802   0.33749   0.00000  Uiso   1.00
O440   O     0.01350   0.84234   0.04927   0.00000  Uiso   1.00
O441   O     0.03887   0.91097   0.05558   0.00000  Uiso   1.00
O442   O     0.08463   0.77492   0.07432   0.00000  Uiso   1.00
O443   O     0.05770   0.83446   0.10745   0.00000  Uiso   1.00
O444   O     0.17849   0.74768   0.27821   0.00000  Uiso   1.00
O445   O     0.14581   0.92803   0.26767   0.00000  Uiso   1.00
O446   O     0.07452   0.79917   0.23607   0.00000  Uiso   1.00
O447   O     0.26785   0.85845   0.21805   0.00000  Uiso   1.00
O448   O     0.06990   0.85627   0.27820   0.00000  Uiso   1.00
O449   O     0.25440   0.81944   0.26767   0.00000  Uiso   1.00
O450   O     0.13800   0.73570   0.23607   0.00000  Uiso   1.00
O451   O     0.20437   0.92193   0.21805   0.00000  Uiso   1.00
Zn452  Zn    0.19244   0.80756   0.28277   0.00000  Uiso   1.00
Zn453  Zn    0.13459   0.79044   0.22257   0.00000  Uiso   1.00
Zn454  Zn    0.21166   0.86331   0.21188   0.00000  Uiso   1.00
Zn455  Zn    0.12798   0.87202   0.28277   0.00000  Uiso   1.00
C456   C     0.38581   0.82671   0.25877   0.00000  Uiso   1.00
C457   C     0.54987   0.82735   0.46193   0.00000  Uiso   1.00
C458   C     0.57196   0.80688   0.48008   0.00000  Uiso   1.00
C459   C     0.61439   0.84024   0.24118   0.00000  Uiso   1.00
C460   C     0.55503   0.80044   0.01953   0.00000  Uiso   1.00
C461   C     0.51422   0.81373   0.04127   0.00000  Uiso   1.00
C462   C     0.58105   0.78547   0.03850   0.00000  Uiso   1.00
C463   C     0.56887   0.78700   0.07936   0.00000  Uiso   1.00
C464   C     0.50427   0.81763   0.08275   0.00000  Uiso   1.00
C465   C     0.66044   0.84274   0.23744   0.00000  Uiso   1.00
C466   C     0.34039   0.82462   0.26234   0.00000  Uiso   1.00
C467   C     0.43250   0.88331   0.42130   0.00000  Uiso   1.00
C468   C     0.51318   0.98875   0.23944   0.00000  Uiso   1.00
C469   C     0.48352   0.67953   0.26298   0.00000  Uiso   1.00
C470   C     0.48982   0.72293   0.25840   0.00000  Uiso   1.00
C471   C     0.50987   0.94433   0.24159   0.00000  Uiso   1.00
C472   C     0.52163   0.81200   0.14404   0.00000  Uiso   1.00
C473   C     0.47847   0.85426   0.35623   0.00000  Uiso   1.00
C474   C     0.46707   0.86100   0.39954   0.00000  Uiso   1.00
C475   C     0.53100   0.80400   0.10144   0.00000  Uiso   1.00
C476   C     0.41847   0.88415   0.46222   0.00000  Uiso   1.00
C477   C     0.37789   0.86906   0.04322   0.00000  Uiso   1.00
C478   C     0.48957   0.84290   0.41947   0.00000  Uiso   1.00
C479   C     0.41664   0.81219   0.07447   0.00000  Uiso   1.00
C480   C     0.47964   0.84823   0.46074   0.00000  Uiso   1.00
C481   C     0.44043   0.86463   0.48229   0.00000  Uiso   1.00
C482   C     0.50569   0.83401   0.48067   0.00000  Uiso   1.00
C483   C     0.48724   0.82684   0.02104   0.00000  Uiso   1.00
C484   C     0.44295   0.83375   0.03970   0.00000  Uiso   1.00
C485   C     0.42184   0.85717   0.02204   0.00000  Uiso   1.00
H486   H     0.61196   0.77472   0.02190   0.00000  Uiso   1.00
H487   H     0.51340   0.82253   0.40262   0.00000  Uiso   1.00
H488   H     0.34085   0.91530   0.06944   0.00000  Uiso   1.00
H489   H     0.37504   0.81629   0.12915   0.00000  Uiso   1.00
H490   H     0.35030   0.85928   0.21434   0.00000  Uiso   1.00
H491   H     0.65118   0.80822   0.28584   0.00000  Uiso   1.00
H492   H     0.54102   0.66921   0.21787   0.00000  Uiso   1.00
H493   H     0.47799   0.83441   0.10121   0.00000  Uiso   1.00
H494   H     0.59004   0.77698   0.09384   0.00000  Uiso   1.00
H495   H     0.60491   0.80056   0.46466   0.00000  Uiso   1.00
H496   H     0.38939   0.89871   0.47762   0.00000  Uiso   1.00
H497   H     0.41446   0.89769   0.40662   0.00000  Uiso   1.00
I498   I     0.42499   0.99507   0.30661   0.00000  Uiso   1.00
I499   I     0.59207   0.85698   0.41263   0.00000  Uiso   1.00
O500   O     0.50000   0.83333   0.25000   0.00000  Uiso   1.00
O501   O     0.49027   0.79060   0.16625   0.00000  Uiso   1.00
O502   O     0.46020   0.87313   0.33749   0.00000  Uiso   1.00
O503   O     0.54421   0.84159   0.15877   0.00000  Uiso   1.00
O504   O     0.50532   0.82802   0.33749   0.00000  Uiso   1.00
O505   O     0.34683   0.84234   0.04927   0.00000  Uiso   1.00
O506   O     0.37221   0.91097   0.05558   0.00000  Uiso   1.00
O507   O     0.41796   0.77492   0.07432   0.00000  Uiso   1.00
O508   O     0.39104   0.83446   0.10745   0.00000  Uiso   1.00
O509   O     0.51182   0.74768   0.27821   0.00000  Uiso   1.00
O510   O     0.47914   0.92803   0.26767   0.00000  Uiso   1.00
O511   O     0.40785   0.79917   0.23607   0.00000  Uiso   1.00
O512   O     0.60119   0.85845   0.21805   0.00000  Uiso   1.00
O513   O     0.40323   0.85627   0.27820   0.00000  Uiso   1.00
O514   O     0.58773   0.81944   0.26767   0.00000  Uiso   1.00
O515   O     0.47133   0.73570   0.23607   0.00000  Uiso   1.00
O516   O     0.53771   0.92193   0.21805   0.00000  Uiso   1.00
Zn517  Zn    0.52577   0.80756   0.28277   0.00000  Uiso   1.00
Zn518  Zn    0.46792   0.79044   0.22257   0.00000  Uiso   1.00
Zn519  Zn    0.54500   0.86331   0.21188   0.00000  Uiso   1.00
Zn520  Zn    0.46131   0.87202   0.28277   0.00000  Uiso   1.00
C521   C     0.71915   0.82671   0.25877   0.00000  Uiso   1.00
C522   C     0.88320   0.82735   0.46193   0.00000  Uiso   1.00
C523   C     0.90529   0.80688   0.48008   0.00000  Uiso   1.00
C524   C     0.94772   0.84024   0.24118   0.00000  Uiso   1.00
C525   C     0.88837   0.80044   0.01953   0.00000  Uiso   1.00
C526   C     0.84756   0.81373   0.04127   0.00000  Uiso   1.00
C527   C     0.91438   0.78547   0.03850   0.00000  Uiso   1.00
C528   C     0.90220   0.78700   0.07936   0.00000  Uiso   1.00
C529   C     0.83761   0.81763   0.08275   0.00000  Uiso   1.00
C530   C     0.99378   0.84274   0.23744   0.00000  Uiso   1.00
C531   C     0.67372   0.82462   0.26234   0.00000  Uiso   1.00
C532   C     0.76583   0.88331   0.42130   0.00000  Uiso   1.00
C533   C     0.84652   0.98875   0.23944   0.00000  Uiso   1.00
C534   C     0.81686   0.67953   0.26298   0.00000  Uiso   1.00
C535   C     0.82315   0.72293   0.25840   0.00000  Uiso   1.00
C536   C     0.84320   0.94433   0.24159   0.00000  Uiso   1.00
C537   C     0.85497   0.81200   0.14404   0.00000  Uiso   1.00
C538   C     0.81180   0.85426   0.35623   0.00000  Uiso   1.00
C539   C     0.80041   0.86100   0.39954   0.00000  Uiso   1.00
C540   C     0.86433   0.80400   0.10144   0.00000  Uiso   1.00
C541   C     0.75181   0.88415   0.46222   0.00000  Uiso   1.00
C542   C     0.71122   0.86906   0.04322   0.00000  Uiso   1.00
C543   C     0.82290   0.84290   0.41947   0.00000  Uiso   1.00
C544   C     0.74998   0.81219   0.07447   0.00000  Uiso   1.00
C545   C     0.81298   0.84823   0.46074   0.00000  Uiso   1.00
C546   C     0.77376   0.86463   0.48229   0.00000  Uiso   1.00
C547   C     0.83903   0.83401   0.48067   0.00000  Uiso   1.00
C548   C     0.82057   0.82684   0.02104   0.00000  Uiso   1.00
C549   C     0.77628   0.83375   0.03970   0.00000  Uiso   1.00
C550   C     0.75518   0.85717   0.02204   0.00000  Uiso   1.00
H551   H     0.94529   0.77472   0.02190   0.00000  Uiso   1.00
H552   H     0.84673   0.82253   0.40262   0.00000  Uiso   1.00
H553   H     0.67418   0.91530   0.06944   0.00000  Uiso   1.00
H554   H     0.70838   0.81629   0.12915   0.00000  Uiso   1.00
H555   H     0.68363   0.85928   0.21434   0.00000  Uiso   1.00
H556   H     0.98452   0.80822   0.28584   0.00000  Uiso   1.00
H557   H     0.87435   0.66921   0.21787   0.00000  Uiso   1.00
H558   H     0.81132   0.83441   0.10121   0.00000  Uiso   1.00
H559   H     0.92337   0.77698   0.09384   0.00000  Uiso   1.00
H560   H     0.93824   0.80056   0.46466   0.00000  Uiso   1.00
H561   H     0.72273   0.89871   0.47762   0.00000  Uiso   1.00
H562   H     0.74779   0.89769   0.40662   0.00000  Uiso   1.00
I563   I     0.75833   0.99507   0.30661   0.00000  Uiso   1.00
I564   I     0.92541   0.85698   0.41263   0.00000  Uiso   1.00
O565   O     0.83333   0.83333   0.25000   0.00000  Uiso   1.00
O566   O     0.82360   0.79060   0.16625   0.00000  Uiso   1.00
O567   O     0.79354   0.87313   0.33749   0.00000  Uiso   1.00
O568   O     0.87755   0.84159   0.15877   0.00000  Uiso   1.00
O569   O     0.83865   0.82802   0.33749   0.00000  Uiso   1.00
O570   O     0.68016   0.84234   0.04927   0.00000  Uiso   1.00
O571   O     0.70554   0.91097   0.05558   0.00000  Uiso   1.00
O572   O     0.75130   0.77492   0.07432   0.00000  Uiso   1.00
O573   O     0.72437   0.83446   0.10745   0.00000  Uiso   1.00
O574   O     0.84515   0.74768   0.27821   0.00000  Uiso   1.00
O575   O     0.81247   0.92803   0.26767   0.00000  Uiso   1.00
O576   O     0.74119   0.79917   0.23607   0.00000  Uiso   1.00
O577   O     0.93452   0.85845   0.21805   0.00000  Uiso   1.00
O578   O     0.73656   0.85627   0.27820   0.00000  Uiso   1.00
O579   O     0.92106   0.81944   0.26767   0.00000  Uiso   1.00
O580   O     0.80467   0.73570   0.23607   0.00000  Uiso   1.00
O581   O     0.87104   0.92193   0.21805   0.00000  Uiso   1.00
Zn582  Zn    0.85910   0.80756   0.28277   0.00000  Uiso   1.00
Zn583  Zn    0.80125   0.79044   0.22257   0.00000  Uiso   1.00
Zn584  Zn    0.87833   0.86331   0.21188   0.00000  Uiso   1.00
Zn585  Zn    0.79465   0.87202   0.28277   0.00000  Uiso   1.00
C586   C     0.05248   0.16005   0.75877   0.00000  Uiso   1.00
C587   C     0.21653   0.16068   0.96193   0.00000  Uiso   1.00
C588   C     0.23863   0.14022   0.98008   0.00000  Uiso   1.00
C589   C     0.28105   0.17357   0.74118   0.00000  Uiso   1.00
C590   C     0.22170   0.13378   0.51953   0.00000  Uiso   1.00
C591   C     0.18089   0.14707   0.54127   0.00000  Uiso   1.00
C592   C     0.24772   0.11880   0.53850   0.00000  Uiso   1.00
C593   C     0.23554   0.12034   0.57936   0.00000  Uiso   1.00
C594   C     0.17094   0.15096   0.58275   0.00000  Uiso   1.00
C595   C     0.32711   0.17607   0.73744   0.00000  Uiso   1.00
C596   C     0.00705   0.15795   0.76234   0.00000  Uiso   1.00
C597   C     0.09917   0.21665   0.92130   0.00000  Uiso   1.00
C598   C     0.17985   0.32209   0.73944   0.00000  Uiso   1.00
C599   C     0.15019   0.01287   0.76298   0.00000  Uiso   1.00
C600   C     0.15648   0.05626   0.75840   0.00000  Uiso   1.00
C601   C     0.17653   0.27766   0.74159   0.00000  Uiso   1.00
C602   C     0.18830   0.14533   0.64404   0.00000  Uiso   1.00
C603   C     0.14514   0.18759   0.85623   0.00000  Uiso   1.00
C604   C     0.13374   0.19433   0.89954   0.00000  Uiso   1.00
C605   C     0.19767   0.13734   0.60144   0.00000  Uiso   1.00
C606   C     0.08514   0.21749   0.96222   0.00000  Uiso   1.00
C607   C     0.04456   0.20239   0.54322   0.00000  Uiso   1.00
C608   C     0.15624   0.17623   0.91947   0.00000  Uiso   1.00
C609   C     0.08331   0.14552   0.57447   0.00000  Uiso   1.00
C610   C     0.14631   0.18156   0.96074   0.00000  Uiso   1.00
C611   C     0.10710   0.19797   0.98229   0.00000  Uiso   1.00
C612   C     0.17236   0.16734   0.98067   0.00000  Uiso   1.00
C613   C     0.15391   0.16017   0.52104   0.00000  Uiso   1.00
C614   C     0.10962   0.16708   0.53970   0.00000  Uiso   1.00
C615   C     0.08851   0.19050   0.52204   0.00000  Uiso   1.00
H616   H     0.27863   0.10805   0.52190   0.00000  Uiso   1.00
H617   H     0.18007   0.15586   0.90262   0.00000  Uiso   1.00
H618   H     0.00751   0.24863   0.56944   0.00000  Uiso   1.00
H619   H     0.04171   0.14962   0.62915   0.00000  Uiso   1.00
H620   H     0.01696   0.19262   0.71434   0.00000  Uiso   1.00
H621   H     0.31785   0.14155   0.78584   0.00000  Uiso   1.00
H622   H     0.20769   0.00255   0.71787   0.00000  Uiso   1.00
H623   H     0.14465   0.16774   0.60121   0.00000  Uiso   1.00
H624   H     0.25671   0.11031   0.59384   0.00000  Uiso   1.00
H625   H     0.27157   0.13390   0.96466   0.00000  Uiso   1.00
H626   H     0.05606   0.23204   0.97762   0.00000  Uiso   1.00
H627   H     0.08112   0.23102   0.90662   0.00000  Uiso   1.00
I628   I     0.09166   0.32840   0.80661   0.00000  Uiso   1.00
I629   I     0.25874   0.19031   0.91263   0.00000  Uiso   1.00
O630   O     0.16667   0.16667   0.75000   0.00000  Uiso   1.00
O631   O     0.15693   0.12393   0.66625   0.00000  Uiso   1.00
O632   O     0.12687   0.20646   0.83749   0.00000  Uiso   1.00
O633   O     0.21088   0.17493   0.65877   0.00000  Uiso   1.00
O634   O     0.17198   0.16135   0.83749   0.00000  Uiso   1.00
O635   O     0.01350   0.17567   0.54927   0.00000  Uiso   1.00
O636   O     0.03887   0.24430   0.55558   0.00000  Uiso   1.00
O637   O     0.08463   0.10825   0.57432   0.00000  Uiso   1.00
O638   O     0.05770   0.16780   0.60745   0.00000  Uiso   1.00
O639   O     0.17849   0.08101   0.77821   0.00000  Uiso   1.00
O640   O     0.14581   0.26136   0.76767   0.00000  Uiso   1.00
O641   O     0.07452   0.13251   0.73607   0.00000  Uiso   1.00
O642   O     0.26785   0.19179   0.71805   0.00000  Uiso   1.00
O643   O     0.06990   0.18960   0.77820   0.00000  Uiso   1.00
O644   O     0.25440   0.15277   0.76767   0.00000  Uiso   1.00
O645   O     0.13800   0.06903   0.73607   0.00000  Uiso   1.00
O646   O     0.20437   0.25527   0.71805   0.00000  Uiso   1.00
Zn647  Zn    0.19244   0.14090   0.78277   0.00000  Uiso   1.00
Zn648  Zn    0.13459   0.12378   0.72257   0.00000  Uiso   1.00
Zn649  Zn    0.21166   0.19664   0.71188   0.00000  Uiso   1.00
Zn650  Zn    0.12798   0.20535   0.78277   0.00000  Uiso   1.00
C651   C     0.38581   0.16005   0.75877   0.00000  Uiso   1.00
C652   C     0.54987   0.16068   0.96193   0.00000  Uiso   1.00
C653   C     0.57196   0.14022   0.98008   0.00000  Uiso   1.00
C654   C     0.61439   0.17357   0.74118   0.00000  Uiso   1.00
C655   C     0.55503   0.13378   0.51953   0.00000  Uiso   1.00
C656   C     0.51422   0.14707   0.54127   0.00000  Uiso   1.00
C657   C     0.58105   0.11880   0.53850   0.00000  Uiso   1.00
C658   C     0.56887   0.12034   0.57936   0.00000  Uiso   1.00
C659   C     0.50427   0.15096   0.58275   0.00000  Uiso   1.00
C660   C     0.66044   0.17607   0.73744   0.00000  Uiso   1.00
C661   C     0.34039   0.15795   0.76234   0.00000  Uiso   1.00
C662   C     0.43250   0.21665   0.92130   0.00000  Uiso   1.00
C663   C     0.51318   0.32209   0.73944   0.00000  Uiso   1.00
C664   C     0.48352   0.01287   0.76298   0.00000  Uiso   1.00
C665   C     0.48982   0.05626   0.75840   0.00000  Uiso   1.00
C666   C     0.50987   0.27766   0.74159   0.00000  Uiso   1.00
C667   C     0.52163   0.14533   0.64404   0.00000  Uiso   1.00
C668   C     0.47847   0.18759   0.85623   0.00000  Uiso   1.00
C669   C     0.46707   0.19433   0.89954   0.00000  Uiso   1.00
C670   C     0.53100   0.13734   0.60144   0.00000  Uiso   1.00
C671   C     0.41847   0.21749   0.96222   0.00000  Uiso   1.00
C672   C     0.37789   0.20239   0.54322   0.00000  Uiso   1.00
C673   C     0.48957   0.17623   0.91947   0.00000  Uiso   1.00
C674   C     0.41664   0.14552   0.57447   0.00000  Uiso   1.00
C675   C     0.47964   0.18156   0.96074   0.00000  Uiso   1.00
C676   C     0.44043   0.19797   0.98229   0.00000  Uiso   1.00
C677   C     0.50569   0.16734   0.98067   0.00000  Uiso   1.00
C678   C     0.48724   0.16017   0.52104   0.00000  Uiso   1.00
C679   C     0.44295   0.16708   0.53970   0.00000  Uiso   1.00
C680   C     0.42184   0.19050   0.52204   0.00000  Uiso   1.00
H681   H     0.61196   0.10805   0.52190   0.00000  Uiso   1.00
H682   H     0.51340   0.15586   0.90262   0.00000  Uiso   1.00
H683   H     0.34085   0.24863   0.56944   0.00000  Uiso   1.00
H684   H     0.37504   0.14962   0.62915   0.00000  Uiso   1.00
H685   H     0.35030   0.19262   0.71434   0.00000  Uiso   1.00
H686   H     0.65118   0.14155   0.78584   0.00000  Uiso   1.00
H687   H     0.54102   0.00255   0.71787   0.00000  Uiso   1.00
H688   H     0.47799   0.16774   0.60121   0.00000  Uiso   1.00
H689   H     0.59004   0.11031   0.59384   0.00000  Uiso   1.00
H690   H     0.60491   0.13390   0.96466   0.00000  Uiso   1.00
H691   H     0.38939   0.23204   0.97762   0.00000  Uiso   1.00
H692   H     0.41446   0.23102   0.90662   0.00000  Uiso   1.00
I693   I     0.42499   0.32840   0.80661   0.00000  Uiso   1.00
I694   I     0.59207   0.19031   0.91263   0.00000  Uiso   1.00
O695   O     0.50000   0.16667   0.75000   0.00000  Uiso   1.00
O696   O     0.49027   0.12393   0.66625   0.00000  Uiso   1.00
O697   O     0.46020   0.20646   0.83749   0.00000  Uiso   1.00
O698   O     0.54421   0.17493   0.65877   0.00000  Uiso   1.00
O699   O     0.50532   0.16135   0.83749   0.00000  Uiso   1.00
O700   O     0.34683   0.17567   0.54927   0.00000  Uiso   1.00
O701   O     0.37221   0.24430   0.55558   0.00000  Uiso   1.00
O702   O     0.41796   0.10825   0.57432   0.00000  Uiso   1.00
O703   O     0.39104   0.16780   0.60745   0.00000  Uiso   1.00
O704   O     0.51182   0.08101   0.77821   0.00000  Uiso   1.00
O705   O     0.47914   0.26136   0.76767   0.00000  Uiso   1.00
O706   O     0.40785   0.13251   0.73607   0.00000  Uiso   1.00
O707   O     0.60119   0.19179   0.71805   0.00000  Uiso   1.00
O708   O     0.40323   0.18960   0.77820   0.00000  Uiso   1.00
O709   O     0.58773   0.15277   0.76767   0.00000  Uiso   1.00
O710   O     0.47133   0.06903   0.73607   0.00000  Uiso   1.00
O711   O     0.53771   0.25527   0.71805   0.00000  Uiso   1.00
Zn712  Zn    0.52577   0.14090   0.78277   0.00000  Uiso   1.00
Zn713  Zn    0.46792   0.12378   0.72257   0.00000  Uiso   1.00
Zn714  Zn    0.54500   0.19664   0.71188   0.00000  Uiso   1.00
Zn715  Zn    0.46131   0.20535   0.78277   0.00000  Uiso   1.00
C716   C     0.71915   0.16005   0.75877   0.00000  Uiso   1.00
C717   C     0.88320   0.16068   0.96193   0.00000  Uiso   1.00
C718   C     0.90529   0.14022   0.98008   0.00000  Uiso   1.00
C719   C     0.94772   0.17357   0.74118   0.00000  Uiso   1.00
C720   C     0.88837   0.13378   0.51953   0.00000  Uiso   1.00
C721   C     0.84756   0.14707   0.54127   0.00000  Uiso   1.00
C722   C     0.91438   0.11880   0.53850   0.00000  Uiso   1.00
C723   C     0.90220   0.12034   0.57936   0.00000  Uiso   1.00
C724   C     0.83761   0.15096   0.58275   0.00000  Uiso   1.00
C725   C     0.99378   0.17607   0.73744   0.00000  Uiso   1.00
C726   C     0.67372   0.15795   0.76234   0.00000  Uiso   1.00
C727   C     0.76583   0.21665   0.92130   0.00000  Uiso   1.00
C728   C     0.84652   0.32209   0.73944   0.00000  Uiso   1.00
C729   C     0.81686   0.01287   0.76298   0.00000  Uiso   1.00
C730   C     0.82315   0.05626   0.75840   0.00000  Uiso   1.00
C731   C     0.84320   0.27766   0.74159   0.00000  Uiso   1.00
C732   C     0.85497   0.14533   0.64404   0.00000  Uiso   1.00
C733   C     0.81180   0.18759   0.85623   0.00000  Uiso   1.00
C734   C     0.80041   0.19433   0.89954   0.00000  Uiso   1.00
C735   C     0.86433   0.13734   0.60144   0.00000  Uiso   1.00
C736   C     0.75181   0.21749   0.96222   0.00000  Uiso   1.00
C737   C     0.71122   0.20239   0.54322   0.00000  Uiso   1.00
C738   C     0.82290   0.17623   0.91947   0.00000  Uiso   1.00
C739   C     0.74998   0.14552   0.57447   0.00000  Uiso   1.00
C740   C     0.81298   0.18156   0.96074   0.00000  Uiso   1.00
C741   C     0.77376   0.19797   0.98229   0.00000  Uiso   1.00
C742   C     0.83903   0.16734   0.98067   0.00000  Uiso   1.00
C743   C     0.82057   0.16017   0.52104   0.00000  Uiso   1.00
C744   C     0.77628   0.16708   0.53970   0.00000  Uiso   1.00
C745   C     0.75518   0.19050   0.52204   0.00000  Uiso   1.00
H746   H     0.94529   0.10805   0.52190   0.00000  Uiso   1.00
H747   H     0.84673   0.15586   0.90262   0.00000  Uiso   1.00
H748   H     0.67418   0.24863   0.56944   0.00000  Uiso   1.00
H749   H     0.70838   0.14962   0.62915   0.00000  Uiso   1.00
H750   H     0.68363   0.19262   0.71434   0.00000  Uiso   1.00
H751   H     0.98452   0.14155   0.78584   0.00000  Uiso   1.00
H752   H     0.87435   0.00255   0.71787   0.00000  Uiso   1.00
H753   H     0.81132   0.16774   0.60121   0.00000  Uiso   1.00
H754   H     0.92337   0.11031   0.59384   0.00000  Uiso   1.00
H755   H     0.93824   0.13390   0.96466   0.00000  Uiso   1.00
H756   H     0.72273   0.23204   0.97762   0.00000  Uiso   1.00
H757   H     0.74779   0.23102   0.90662   0.00000  Uiso   1.00
I758   I     0.75833   0.32840   0.80661   0.00000  Uiso   1.00
I759   I     0.92541   0.19031   0.91263   0.00000  Uiso   1.00
O760   O     0.83333   0.16667   0.75000   0.00000  Uiso   1.00
O761   O     0.82360   0.12393   0.66625   0.00000  Uiso   1.00
O762   O     0.79354   0.20646   0.83749   0.00000  Uiso   1.00
O763   O     0.87755   0.17493   0.65877   0.00000  Uiso   1.00
O764   O     0.83865   0.16135   0.83749   0.00000  Uiso   1.00
O765   O     0.68016   0.17567   0.54927   0.00000  Uiso   1.00
O766   O     0.70554   0.24430   0.55558   0.00000  Uiso   1.00
O767   O     0.75130   0.10825   0.57432   0.00000  Uiso   1.00
O768   O     0.72437   0.16780   0.60745   0.00000  Uiso   1.00
O769   O     0.84515   0.08101   0.77821   0.00000  Uiso   1.00
O770   O     0.81247   0.26136   0.76767   0.00000  Uiso   1.00
O771   O     0.74119   0.13251   0.73607   0.00000  Uiso   1.00
O772   O     0.93452   0.19179   0.71805   0.00000  Uiso   1.00
O773   O     0.73656   0.18960   0.77820   0.00000  Uiso   1.00
O774   O     0.92106   0.15277   0.76767   0.00000  Uiso   1.00
O775   O     0.80467   0.06903   0.73607   0.00000  Uiso   1.00
O776   O     0.87104   0.25527   0.71805   0.00000  Uiso   1.00
Zn777  Zn    0.85910   0.14090   0.78277   0.00000  Uiso   1.00
Zn778  Zn    0.80125   0.12378   0.72257   0.00000  Uiso   1.00
Zn779  Zn    0.87833   0.19664   0.71188   0.00000  Uiso   1.00
Zn780  Zn    0.79465   0.20535   0.78277   0.00000  Uiso   1.00
C781   C     0.05248   0.49338   0.75877   0.00000  Uiso   1.00
C782   C     0.21653   0.49402   0.96193   0.00000  Uiso   1.00
C783   C     0.23863   0.47355   0.98008   0.00000  Uiso   1.00
C784   C     0.28105   0.50690   0.74118   0.00000  Uiso   1.00
C785   C     0.22170   0.46711   0.51953   0.00000  Uiso   1.00
C786   C     0.18089   0.48040   0.54127   0.00000  Uiso   1.00
C787   C     0.24772   0.45213   0.53850   0.00000  Uiso   1.00
C788   C     0.23554   0.45367   0.57936   0.00000  Uiso   1.00
C789   C     0.17094   0.48429   0.58275   0.00000  Uiso   1.00
C790   C     0.32711   0.50940   0.73744   0.00000  Uiso   1.00
C791   C     0.00705   0.49129   0.76234   0.00000  Uiso   1.00
C792   C     0.09917   0.54998   0.92130   0.00000  Uiso   1.00
C793   C     0.17985   0.65542   0.73944   0.00000  Uiso   1.00
C794   C     0.15019   0.34620   0.76298   0.00000  Uiso   1.00
C795   C     0.15648   0.38960   0.75840   0.00000  Uiso   1.00
C796   C     0.17653   0.61100   0.74159   0.00000  Uiso   1.00
C797   C     0.18830   0.47866   0.64404   0.00000  Uiso   1.00
C798   C     0.14514   0.52092   0.85623   0.00000  Uiso   1.00
C799   C     0.13374   0.52767   0.89954   0.00000  Uiso   1.00
C800   C     0.19767   0.47067   0.60144   0.00000  Uiso   1.00
C801   C     0.08514   0.55082   0.96222   0.00000  Uiso   1.00
C802   C     0.04456   0.53573   0.54322   0.00000  Uiso   1.00
C803   C     0.15624   0.50957   0.91947   0.00000  Uiso   1.00
C804   C     0.08331   0.47885   0.57447   0.00000  Uiso   1.00
C805   C     0.14631   0.51489   0.96074   0.00000  Uiso   1.00
C806   C     0.10710   0.53130   0.98229   0.00000  Uiso   1.00
C807   C     0.17236   0.50068   0.98067   0.00000  Uiso   1.00
C808   C     0.15391   0.49351   0.52104   0.00000  Uiso   1.00
C809   C     0.10962   0.50042   0.53970   0.00000  Uiso   1.00
C810   C     0.08851   0.52383   0.52204   0.00000  Uiso   1.00
H811   H     0.27863   0.44139   0.52190   0.00000  Uiso   1.00
H812   H     0.18007   0.48919   0.90262   0.00000  Uiso   1.00
H813   H     0.00751   0.58197   0.56944   0.00000  Uiso   1.00
H814   H     0.04171   0.48296   0.62915   0.00000  Uiso   1.00
H815   H     0.01696   0.52595   0.71434   0.00000  Uiso   1.00
H816   H     0.31785   0.47489   0.78584   0.00000  Uiso   1.00
H817   H     0.20769   0.33588   0.71787   0.00000  Uiso   1.00
H818   H     0.14465   0.50108   0.60121   0.00000  Uiso   1.00
H819   H     0.25671   0.44364   0.59384   0.00000  Uiso   1.00
H820   H     0.27157   0.46723   0.96466   0.00000  Uiso   1.00
H821   H     0.05606   0.56537   0.97762   0.00000  Uiso   1.00
H822   H     0.08112   0.56436   0.90662   0.00000  Uiso   1.00
I823   I     0.09166   0.66173   0.80661   0.00000  Uiso   1.00
I824   I     0.25874   0.52365   0.91263   0.00000  Uiso   1.00
O825   O     0.16667   0.50000   0.75000   0.00000  Uiso   1.00
O826   O     0.15693   0.45726   0.66625   0.00000  Uiso   1.00
O827   O     0.12687   0.53979   0.83749   0.00000  Uiso   1.00
O828   O     0.21088   0.50826   0.65877   0.00000  Uiso   1.00
O829   O     0.17198   0.49468   0.83749   0.00000  Uiso   1.00
O830   O     0.01350   0.50901   0.54927   0.00000  Uiso   1.00
O831   O     0.03887   0.57764   0.55558   0.00000  Uiso   1.00
O832   O     0.08463   0.44159   0.57432   0.00000  Uiso   1.00
O833   O     0.05770   0.50113   0.60745   0.00000  Uiso   1.00
O834   O     0.17849   0.41434   0.77821   0.00000  Uiso   1.00
O835   O     0.14581   0.59469   0.76767   0.00000  Uiso   1.00
O836   O     0.07452   0.46584   0.73607   0.00000  Uiso   1.00
O837   O     0.26785   0.52512   0.71805   0.00000  Uiso   1.00
O838   O     0.06990   0.52293   0.77820   0.00000  Uiso   1.00
O839   O     0.25440   0.48610   0.76767   0.00000  Uiso   1.00
O840   O     0.13800   0.40236   0.73607   0.00000  Uiso   1.00
O841   O     0.20437   0.58860   0.71805   0.00000  Uiso   1.00
Zn842  Zn    0.19244   0.47423   0.78277   0.00000  Uiso   1.00
Zn843  Zn    0.13459   0.45711   0.72257   0.00000  Uiso   1.00
Zn844  Zn    0.21166   0.52997   0.71188   0.00000  Uiso   1.00
Zn845  Zn    0.12798   0.53868   0.78277   0.00000  Uiso   1.00
C846   C     0.38581   0.49338   0.75877   0.00000  Uiso   1.00
C847   C     0.54987   0.49402   0.96193   0.00000  Uiso   1.00
C848   C     0.57196   0.47355   0.98008   0.00000  Uiso   1.00
C849   C     0.61439   0.50690   0.74118   0.00000  Uiso   1.00
C850   C     0.55503   0.46711   0.51953   0.00000  Uiso   1.00
C851   C     0.51422   0.48040   0.54127   0.00000  Uiso   1.00
C852   C     0.58105   0.45213   0.53850   0.00000  Uiso   1.00
C853   C     0.56887   0.45367   0.57936   0.00000  Uiso   1.00
C854   C     0.50427   0.48429   0.58275   0.00000  Uiso   1.00
C855   C     0.66044   0.50940   0.73744   0.00000  Uiso   1.00
C856   C     0.34039   0.49129   0.76234   0.00000  Uiso   1.00
C857   C     0.43250   0.54998   0.92130   0.00000  Uiso   1.00
C858   C     0.51318   0.65542   0.73944   0.00000  Uiso   1.00
C859   C     0.48352   0.34620   0.76298   0.00000  Uiso   1.00
C860   C     0.48982   0.38960   0.75840   0.00000  Uiso   1.00
C861   C     0.50987   0.61100   0.74159   0.00000  Uiso   1.00
C862   C     0.52163   0.47866   0.64404   0.00000  Uiso   1.00
C863   C     0.47847   0.52092   0.85623   0.00000  Uiso   1.00
C864   C     0.46707   0.52767   0.89954   0.00000  Uiso   1.00
C865   C     0.53100   0.47067   0.60144   0.00000  Uiso   1.00
C866   C     0.41847   0.55082   0.96222   0.00000  Uiso   1.00
C867   C     0.37789   0.53573   0.54322   0.00000  Uiso   1.00
C868   C     0.48957   0.50957   0.91947   0.00000  Uiso   1.00
C869   C     0.41664   0.47885   0.57447   0.00000  Uiso   1.00
C870   C     0.47964   0.51489   0.96074   0.00000  Uiso   1.00
C871   C     0.44043   0.53130   0.98229   0.00000  Uiso   1.00
C872   C     0.50569   0.50068   0.98067   0.00000  Uiso   1.00
C873   C     0.48724   0.49351   0.52104   0.00000  Uiso   1.00
C874   C     0.44295   0.50042   0.53970   0.00000  Uiso   1.00
C875   C     0.42184   0.52383   0.52204   0.00000  Uiso   1.00
H876   H     0.61196   0.44139   0.52190   0.00000  Uiso   1.00
H877   H     0.51340   0.48919   0.90262   0.00000  Uiso   1.00
H878   H     0.34085   0.58197   0.56944   0.00000  Uiso   1.00
H879   H     0.37504   0.48296   0.62915   0.00000  Uiso   1.00
H880   H     0.35030   0.52595   0.71434   0.00000  Uiso   1.00
H881   H     0.65118   0.47489   0.78584   0.00000  Uiso   1.00
H882   H     0.54102   0.33588   0.71787   0.00000  Uiso   1.00
H883   H     0.47799   0.50108   0.60121   0.00000  Uiso   1.00
H884   H     0.59004   0.44364   0.59384   0.00000  Uiso   1.00
H885   H     0.60491   0.46723   0.96466   0.00000  Uiso   1.00
H886   H     0.38939   0.56537   0.97762   0.00000  Uiso   1.00
H887   H     0.41446   0.56436   0.90662   0.00000  Uiso   1.00
I888   I     0.42499   0.66173   0.80661   0.00000  Uiso   1.00
I889   I     0.59207   0.52365   0.91263   0.00000  Uiso   1.00
O890   O     0.50000   0.50000   0.75000   0.00000  Uiso   1.00
O891   O     0.49027   0.45726   0.66625   0.00000  Uiso   1.00
O892   O     0.46020   0.53979   0.83749   0.00000  Uiso   1.00
O893   O     0.54421   0.50826   0.65877   0.00000  Uiso   1.00
O894   O     0.50532   0.49468   0.83749   0.00000  Uiso   1.00
O895   O     0.34683   0.50901   0.54927   0.00000  Uiso   1.00
O896   O     0.37221   0.57764   0.55558   0.00000  Uiso   1.00
O897   O     0.41796   0.44159   0.57432   0.00000  Uiso   1.00
O898   O     0.39104   0.50113   0.60745   0.00000  Uiso   1.00
O899   O     0.51182   0.41434   0.77821   0.00000  Uiso   1.00
O900   O     0.47914   0.59469   0.76767   0.00000  Uiso   1.00
O901   O     0.40785   0.46584   0.73607   0.00000  Uiso   1.00
O902   O     0.60119   0.52512   0.71805   0.00000  Uiso   1.00
O903   O     0.40323   0.52293   0.77820   0.00000  Uiso   1.00
O904   O     0.58773   0.48610   0.76767   0.00000  Uiso   1.00
O905   O     0.47133   0.40236   0.73607   0.00000  Uiso   1.00
O906   O     0.53771   0.58860   0.71805   0.00000  Uiso   1.00
Zn907  Zn    0.52577   0.47423   0.78277   0.00000  Uiso   1.00
Zn908  Zn    0.46792   0.45711   0.72257   0.00000  Uiso   1.00
Zn909  Zn    0.54500   0.52997   0.71188   0.00000  Uiso   1.00
Zn910  Zn    0.46131   0.53868   0.78277   0.00000  Uiso   1.00
C911   C     0.71915   0.49338   0.75877   0.00000  Uiso   1.00
C912   C     0.88320   0.49402   0.96193   0.00000  Uiso   1.00
C913   C     0.90529   0.47355   0.98008   0.00000  Uiso   1.00
C914   C     0.94772   0.50690   0.74118   0.00000  Uiso   1.00
C915   C     0.88837   0.46711   0.51953   0.00000  Uiso   1.00
C916   C     0.84756   0.48040   0.54127   0.00000  Uiso   1.00
C917   C     0.91438   0.45213   0.53850   0.00000  Uiso   1.00
C918   C     0.90220   0.45367   0.57936   0.00000  Uiso   1.00
C919   C     0.83761   0.48429   0.58275   0.00000  Uiso   1.00
C920   C     0.99378   0.50940   0.73744   0.00000  Uiso   1.00
C921   C     0.67372   0.49129   0.76234   0.00000  Uiso   1.00
C922   C     0.76583   0.54998   0.92130   0.00000  Uiso   1.00
C923   C     0.84652   0.65542   0.73944   0.00000  Uiso   1.00
C924   C     0.81686   0.34620   0.76298   0.00000  Uiso   1.00
C925   C     0.82315   0.38960   0.75840   0.00000  Uiso   1.00
C926   C     0.84320   0.61100   0.74159   0.00000  Uiso   1.00
C927   C     0.85497   0.47866   0.64404   0.00000  Uiso   1.00
C928   C     0.81180   0.52092   0.85623   0.00000  Uiso   1.00
C929   C     0.80041   0.52767   0.89954   0.00000  Uiso   1.00
C930   C     0.86433   0.47067   0.60144   0.00000  Uiso   1.00
C931   C     0.75181   0.55082   0.96222   0.00000  Uiso   1.00
C932   C     0.71122   0.53573   0.54322   0.00000  Uiso   1.00
C933   C     0.82290   0.50957   0.91947   0.00000  Uiso   1.00
C934   C     0.74998   0.47885   0.57447   0.00000  Uiso   1.00
C935   C     0.81298   0.51489   0.96074   0.00000  Uiso   1.00
C936   C     0.77376   0.53130   0.98229   0.00000  Uiso   1.00
C937   C     0.83903   0.50068   0.98067   0.00000  Uiso   1.00
C938   C     0.82057   0.49351   0.52104   0.00000  Uiso   1.00
C939   C     0.77628   0.50042   0.53970   0.00000  Uiso   1.00
C940   C     0.75518   0.52383   0.52204   0.00000  Uiso   1.00
H941   H     0.94529   0.44139   0.52190   0.00000  Uiso   1.00
H942   H     0.84673   0.48919   0.90262   0.00000  Uiso   1.00
H943   H     0.67418   0.58197   0.56944   0.00000  Uiso   1.00
H944   H     0.70838   0.48296   0.62915   0.00000  Uiso   1.00
H945   H     0.68363   0.52595   0.71434   0.00000  Uiso   1.00
H946   H     0.98452   0.47489   0.78584   0.00000  Uiso   1.00
H947   H     0.87435   0.33588   0.71787   0.00000  Uiso   1.00
H948   H     0.81132   0.50108   0.60121   0.00000  Uiso   1.00
H949   H     0.92337   0.44364   0.59384   0.00000  Uiso   1.00
H950   H     0.93824   0.46723   0.96466   0.00000  Uiso   1.00
H951   H     0.72273   0.56537   0.97762   0.00000  Uiso   1.00
H952   H     0.74779   0.56436   0.90662   0.00000  Uiso   1.00
I953   I     0.75833   0.66173   0.80661   0.00000  Uiso   1.00
I954   I     0.92541   0.52365   0.91263   0.00000  Uiso   1.00
O955   O     0.83333   0.50000   0.75000   0.00000  Uiso   1.00
O956   O     0.82360   0.45726   0.66625   0.00000  Uiso   1.00
O957   O     0.79354   0.53979   0.83749   0.00000  Uiso   1.00
O958   O     0.87755   0.50826   0.65877   0.00000  Uiso   1.00
O959   O     0.83865   0.49468   0.83749   0.00000  Uiso   1.00
O960   O     0.68016   0.50901   0.54927   0.00000  Uiso   1.00
O961   O     0.70554   0.57764   0.55558   0.00000  Uiso   1.00
O962   O     0.75130   0.44159   0.57432   0.00000  Uiso   1.00
O963   O     0.72437   0.50113   0.60745   0.00000  Uiso   1.00
O964   O     0.84515   0.41434   0.77821   0.00000  Uiso   1.00
O965   O     0.81247   0.59469   0.76767   0.00000  Uiso   1.00
O966   O     0.74119   0.46584   0.73607   0.00000  Uiso   1.00
O967   O     0.93452   0.52512   0.71805   0.00000  Uiso   1.00
O968   O     0.73656   0.52293   0.77820   0.00000  Uiso   1.00
O969   O     0.92106   0.48610   0.76767   0.00000  Uiso   1.00
O970   O     0.80467   0.40236   0.73607   0.00000  Uiso   1.00
O971   O     0.87104   0.58860   0.71805   0.00000  Uiso   1.00
Zn972  Zn    0.85910   0.47423   0.78277   0.00000  Uiso   1.00
Zn973  Zn    0.80125   0.45711   0.72257   0.00000  Uiso   1.00
Zn974  Zn    0.87833   0.52997   0.71188   0.00000  Uiso   1.00
Zn975  Zn    0.79465   0.53868   0.78277   0.00000  Uiso   1.00
C976   C     0.05248   0.82671   0.75877   0.00000  Uiso   1.00
C977   C     0.21653   0.82735   0.96193   0.00000  Uiso   1.00
C978   C     0.23863   0.80688   0.98008   0.00000  Uiso   1.00
C979   C     0.28105   0.84024   0.74118   0.00000  Uiso   1.00
C980   C     0.22170   0.80044   0.51953   0.00000  Uiso   1.00
C981   C     0.18089   0.81373   0.54127   0.00000  Uiso   1.00
C982   C     0.24772   0.78547   0.53850   0.00000  Uiso   1.00
C983   C     0.23554   0.78700   0.57936   0.00000  Uiso   1.00
C984   C     0.17094   0.81763   0.58275   0.00000  Uiso   1.00
C985   C     0.32711   0.84274   0.73744   0.00000  Uiso   1.00
C986   C     0.00705   0.82462   0.76234   0.00000  Uiso   1.00
C987   C     0.09917   0.88331   0.92130   0.00000  Uiso   1.00
C988   C     0.17985   0.98875   0.73944   0.00000  Uiso   1.00
C989   C     0.15019   0.67953   0.76298   0.00000  Uiso   1.00
C990   C     0.15648   0.72293   0.75840   0.00000  Uiso   1.00
C991   C     0.17653   0.94433   0.74159   0.00000  Uiso   1.00
C992   C     0.18830   0.81200   0.64404   0.00000  Uiso   1.00
C993   C     0.14514   0.85426   0.85623   0.00000  Uiso   1.00
C994   C     0.13374   0.86100   0.89954   0.00000  Uiso   1.00
C995   C     0.19767   0.80400   0.60144   0.00000  Uiso   1.00
C996   C     0.08514   0.88415   0.96222   0.00000  Uiso   1.00
C997   C     0.04456   0.86906   0.54322   0.00000  Uiso   1.00
C998   C     0.15624   0.84290   0.91947   0.00000  Uiso   1.00
C999   C     0.08331   0.81219   0.57447   0.00000  Uiso   1.00
C1000  C     0.14631   0.84823   0.96074   0.00000  Uiso   1.00
C1001  C     0.10710   0.86463   0.98229   0.00000  Uiso   1.00
C1002  C     0.17236   0.83401   0.98067   0.00000  Uiso   1.00
C1003  C     0.15391   0.82684   0.52104   0.00000  Uiso   1.00
C1004  C     0.10962   0.83375   0.53970   0.00000  Uiso   1.00
C1005  C     0.08851   0.85717   0.52204   0.00000  Uiso   1.00
H1006  H     0.27863   0.77472   0.52190   0.00000  Uiso   1.00
H1007  H     0.18007   0.82253   0.90262   0.00000  Uiso   1.00
H1008  H     0.00751   0.91530   0.56944   0.00000  Uiso   1.00
H1009  H     0.04171   0.81629   0.62915   0.00000  Uiso   1.00
H1010  H     0.01696   0.85928   0.71434   0.00000  Uiso   1.00
H1011  H     0.31785   0.80822   0.78584   0.00000  Uiso   1.00
H1012  H     0.20769   0.66921   0.71787   0.00000  Uiso   1.00
H1013  H     0.14465   0.83441   0.60121   0.00000  Uiso   1.00
H1014  H     0.25671   0.77698   0.59384   0.00000  Uiso   1.00
H1015  H     0.27157   0.80056   0.96466   0.00000  Uiso   1.00
H1016  H     0.05606   0.89871   0.97762   0.00000  Uiso   1.00
H1017  H     0.08112   0.89769   0.90662   0.00000  Uiso   1.00
I1018  I     0.09166   0.99507   0.80661   0.00000  Uiso   1.00
I1019  I     0.25874   0.85698   0.91263   0.00000  Uiso   1.00
O1020  O     0.16667   0.83333   0.75000   0.00000  Uiso   1.00
O1021  O     0.15693   0.79060   0.66625   0.00000  Uiso   1.00
O1022  O     0.12687   0.87313   0.83749   0.00000  Uiso   1.00
O1023  O     0.21088   0.84159   0.65877   0.00000  Uiso   1.00
O1024  O     0.17198   0.82802   0.83749   0.00000  Uiso   1.00
O1025  O     0.01350   0.84234   0.54927   0.00000  Uiso   1.00
O1026  O     0.03887   0.91097   0.55558   0.00000  Uiso   1.00
O1027  O     0.08463   0.77492   0.57432   0.00000  Uiso   1.00
O1028  O     0.05770   0.83446   0.60745   0.00000  Uiso   1.00
O1029  O     0.17849   0.74768   0.77821   0.00000  Uiso   1.00
O1030  O     0.14581   0.92803   0.76767   0.00000  Uiso   1.00
O1031  O     0.07452   0.79917   0.73607   0.00000  Uiso   1.00
O1032  O     0.26785   0.85845   0.71805   0.00000  Uiso   1.00
O1033  O     0.06990   0.85627   0.77820   0.00000  Uiso   1.00
O1034  O     0.25440   0.81944   0.76767   0.00000  Uiso   1.00
O1035  O     0.13800   0.73570   0.73607   0.00000  Uiso   1.00
O1036  O     0.20437   0.92193   0.71805   0.00000  Uiso   1.00
Zn1037 Zn    0.19244   0.80756   0.78277   0.00000  Uiso   1.00
Zn1038 Zn    0.13459   0.79044   0.72257   0.00000  Uiso   1.00
Zn1039 Zn    0.21166   0.86331   0.71188   0.00000  Uiso   1.00
Zn1040 Zn    0.12798   0.87202   0.78277   0.00000  Uiso   1.00
C1041  C     0.38581   0.82671   0.75877   0.00000  Uiso   1.00
C1042  C     0.54987   0.82735   0.96193   0.00000  Uiso   1.00
C1043  C     0.57196   0.80688   0.98008   0.00000  Uiso   1.00
C1044  C     0.61439   0.84024   0.74118   0.00000  Uiso   1.00
C1045  C     0.55503   0.80044   0.51953   0.00000  Uiso   1.00
C1046  C     0.51422   0.81373   0.54127   0.00000  Uiso   1.00
C1047  C     0.58105   0.78547   0.53850   0.00000  Uiso   1.00
C1048  C     0.56887   0.78700   0.57936   0.00000  Uiso   1.00
C1049  C     0.50427   0.81763   0.58275   0.00000  Uiso   1.00
C1050  C     0.66044   0.84274   0.73744   0.00000  Uiso   1.00
C1051  C     0.34039   0.82462   0.76234   0.00000  Uiso   1.00
C1052  C     0.43250   0.88331   0.92130   0.00000  Uiso   1.00
C1053  C     0.51318   0.98875   0.73944   0.00000  Uiso   1.00
C1054  C     0.48352   0.67953   0.76298   0.00000  Uiso   1.00
C1055  C     0.48982   0.72293   0.75840   0.00000  Uiso   1.00
C1056  C     0.50987   0.94433   0.74159   0.00000  Uiso   1.00
C1057  C     0.52163   0.81200   0.64404   0.00000  Uiso   1.00
C1058  C     0.47847   0.85426   0.85623   0.00000  Uiso   1.00
C1059  C     0.46707   0.86100   0.89954   0.00000  Uiso   1.00
C1060  C     0.53100   0.80400   0.60144   0.00000  Uiso   1.00
C1061  C     0.41847   0.88415   0.96222   0.00000  Uiso   1.00
C1062  C     0.37789   0.86906   0.54322   0.00000  Uiso   1.00
C1063  C     0.48957   0.84290   0.91947   0.00000  Uiso   1.00
C1064  C     0.41664   0.81219   0.57447   0.00000  Uiso   1.00
C1065  C     0.47964   0.84823   0.96074   0.00000  Uiso   1.00
C1066  C     0.44043   0.86463   0.98229   0.00000  Uiso   1.00
C1067  C     0.50569   0.83401   0.98067   0.00000  Uiso   1.00
C1068  C     0.48724   0.82684   0.52104   0.00000  Uiso   1.00
C1069  C     0.44295   0.83375   0.53970   0.00000  Uiso   1.00
C1070  C     0.42184   0.85717   0.52204   0.00000  Uiso   1.00
H1071  H     0.61196   0.77472   0.52190   0.00000  Uiso   1.00
H1072  H     0.51340   0.82253   0.90262   0.00000  Uiso   1.00
H1073  H     0.34085   0.91530   0.56944   0.00000  Uiso   1.00
H1074  H     0.37504   0.81629   0.62915   0.00000  Uiso   1.00
H1075  H     0.35030   0.85928   0.71434   0.00000  Uiso   1.00
H1076  H     0.65118   0.80822   0.78584   0.00000  Uiso   1.00
H1077  H     0.54102   0.66921   0.71787   0.00000  Uiso   1.00
H1078  H     0.47799   0.83441   0.60121   0.00000  Uiso   1.00
H1079  H     0.59004   0.77698   0.59384   0.00000  Uiso   1.00
H1080  H     0.60491   0.80056   0.96466   0.00000  Uiso   1.00
H1081  H     0.38939   0.89871   0.97762   0.00000  Uiso   1.00
H1082  H     0.41446   0.89769   0.90662   0.00000  Uiso   1.00
I1083  I     0.42499   0.99507   0.80661   0.00000  Uiso   1.00
I1084  I     0.59207   0.85698   0.91263   0.00000  Uiso   1.00
O1085  O     0.50000   0.83333   0.75000   0.00000  Uiso   1.00
O1086  O     0.49027   0.79060   0.66625   0.00000  Uiso   1.00
O1087  O     0.46020   0.87313   0.83749   0.00000  Uiso   1.00
O1088  O     0.54421   0.84159   0.65877   0.00000  Uiso   1.00
O1089  O     0.50532   0.82802   0.83749   0.00000  Uiso   1.00
O1090  O     0.34683   0.84234   0.54927   0.00000  Uiso   1.00
O1091  O     0.37221   0.91097   0.55558   0.00000  Uiso   1.00
O1092  O     0.41796   0.77492   0.57432   0.00000  Uiso   1.00
O1093  O     0.39104   0.83446   0.60745   0.00000  Uiso   1.00
O1094  O     0.51182   0.74768   0.77821   0.00000  Uiso   1.00
O1095  O     0.47914   0.92803   0.76767   0.00000  Uiso   1.00
O1096  O     0.40785   0.79917   0.73607   0.00000  Uiso   1.00
O1097  O     0.60119   0.85845   0.71805   0.00000  Uiso   1.00
O1098  O     0.40323   0.85627   0.77820   0.00000  Uiso   1.00
O1099  O     0.58773   0.81944   0.76767   0.00000  Uiso   1.00
O1100  O     0.47133   0.73570   0.73607   0.00000  Uiso   1.00
O1101  O     0.53771   0.92193   0.71805   0.00000  Uiso   1.00
Zn1102 Zn    0.52577   0.80756   0.78277   0.00000  Uiso   1.00
Zn1103 Zn    0.46792   0.79044   0.72257   0.00000  Uiso   1.00
Zn1104 Zn    0.54500   0.86331   0.71188   0.00000  Uiso   1.00
Zn1105 Zn    0.46131   0.87202   0.78277   0.00000  Uiso   1.00
C1106  C     0.71915   0.82671   0.75877   0.00000  Uiso   1.00
C1107  C     0.88320   0.82735   0.96193   0.00000  Uiso   1.00
C1108  C     0.90529   0.80688   0.98008   0.00000  Uiso   1.00
C1109  C     0.94772   0.84024   0.74118   0.00000  Uiso   1.00
C1110  C     0.88837   0.80044   0.51953   0.00000  Uiso   1.00
C1111  C     0.84756   0.81373   0.54127   0.00000  Uiso   1.00
C1112  C     0.91438   0.78547   0.53850   0.00000  Uiso   1.00
C1113  C     0.90220   0.78700   0.57936   0.00000  Uiso   1.00
C1114  C     0.83761   0.81763   0.58275   0.00000  Uiso   1.00
C1115  C     0.99378   0.84274   0.73744   0.00000  Uiso   1.00
C1116  C     0.67372   0.82462   0.76234   0.00000  Uiso   1.00
C1117  C     0.76583   0.88331   0.92130   0.00000  Uiso   1.00
C1118  C     0.84652   0.98875   0.73944   0.00000  Uiso   1.00
C1119  C     0.81686   0.67953   0.76298   0.00000  Uiso   1.00
C1120  C     0.82315   0.72293   0.75840   0.00000  Uiso   1.00
C1121  C     0.84320   0.94433   0.74159   0.00000  Uiso   1.00
C1122  C     0.85497   0.81200   0.64404   0.00000  Uiso   1.00
C1123  C     0.81180   0.85426   0.85623   0.00000  Uiso   1.00
C1124  C     0.80041   0.86100   0.89954   0.00000  Uiso   1.00
C1125  C     0.86433   0.80400   0.60144   0.00000  Uiso   1.00
C1126  C     0.75181   0.88415   0.96222   0.00000  Uiso   1.00
C1127  C     0.71122   0.86906   0.54322   0.00000  Uiso   1.00
C1128  C     0.82290   0.84290   0.91947   0.00000  Uiso   1.00
C1129  C     0.74998   0.81219   0.57447   0.00000  Uiso   1.00
C1130  C     0.81298   0.84823   0.96074   0.00000  Uiso   1.00
C1131  C     0.77376   0.86463   0.98229   0.00000  Uiso   1.00
C1132  C     0.83903   0.83401   0.98067   0.00000  Uiso   1.00
C1133  C     0.82057   0.82684   0.52104   0.00000  Uiso   1.00
C1134  C     0.77628   0.83375   0.53970   0.00000  Uiso   1.00
C1135  C     0.75518   0.85717   0.52204   0.00000  Uiso   1.00
H1136  H     0.94529   0.77472   0.52190   0.00000  Uiso   1.00
H1137  H     0.84673   0.82253   0.90262   0.00000  Uiso   1.00
H1138  H     0.67418   0.91530   0.56944   0.00000  Uiso   1.00
H1139  H     0.70838   0.81629   0.62915   0.00000  Uiso   1.00
H1140  H     0.68363   0.85928   0.71434   0.00000  Uiso   1.00
H1141  H     0.98452   0.80822   0.78584   0.00000  Uiso   1.00
H1142  H     0.87435   0.66921   0.71787   0.00000  Uiso   1.00
H1143  H     0.81132   0.83441   0.60121   0.00000  Uiso   1.00
H1144  H     0.92337   0.77698   0.59384   0.00000  Uiso   1.00
H1145  H     0.93824   0.80056   0.96466   0.00000  Uiso   1.00
H1146  H     0.72273   0.89871   0.97762   0.00000  Uiso   1.00
H1147  H     0.74779   0.89769   0.90662   0.00000  Uiso   1.00
I1148  I     0.75833   0.99507   0.80661   0.00000  Uiso   1.00
I1149  I     0.92541   0.85698   0.91263   0.00000  Uiso   1.00
O1150  O     0.83333   0.83333   0.75000   0.00000  Uiso   1.00
O1151  O     0.82360   0.79060   0.66625   0.00000  Uiso   1.00
O1152  O     0.79354   0.87313   0.83749   0.00000  Uiso   1.00
O1153  O     0.87755   0.84159   0.65877   0.00000  Uiso   1.00
O1154  O     0.83865   0.82802   0.83749   0.00000  Uiso   1.00
O1155  O     0.68016   0.84234   0.54927   0.00000  Uiso   1.00
O1156  O     0.70554   0.91097   0.55558   0.00000  Uiso   1.00
O1157  O     0.75130   0.77492   0.57432   0.00000  Uiso   1.00
O1158  O     0.72437   0.83446   0.60745   0.00000  Uiso   1.00
O1159  O     0.84515   0.74768   0.77821   0.00000  Uiso   1.00
O1160  O     0.81247   0.92803   0.76767   0.00000  Uiso   1.00
O1161  O     0.74119   0.79917   0.73607   0.00000  Uiso   1.00
O1162  O     0.93452   0.85845   0.71805   0.00000  Uiso   1.00
O1163  O     0.73656   0.85627   0.77820   0.00000  Uiso   1.00
O1164  O     0.92106   0.81944   0.76767   0.00000  Uiso   1.00
O1165  O     0.80467   0.73570   0.73607   0.00000  Uiso   1.00
O1166  O     0.87104   0.92193   0.71805   0.00000  Uiso   1.00
Zn1167 Zn    0.85910   0.80756   0.78277   0.00000  Uiso   1.00
Zn1168 Zn    0.80125   0.79044   0.72257   0.00000  Uiso   1.00
Zn1169 Zn    0.87833   0.86331   0.71188   0.00000  Uiso   1.00
Zn1170 Zn    0.79465   0.87202   0.78277   0.00000  Uiso   1.00
loop_
_geom_bond_atom_site_label_1
_geom_bond_atom_site_label_2
_geom_bond_distance
_geom_bond_site_symmetry_2
_ccdc_geom_bond_type
C1     C11     1.437   .     S
C1     O56     1.270   .     A
C1     O58     1.269   .     A
C2     C27     1.428   .     A
C2     C3      1.387   .     A
C2     I44     2.144   .     S
C3     H40     1.084   .     S
C3     C590    1.388   .     S
C4     O57     1.283   .     A
C4     C10     1.455   .     S
C4     O59     1.279   .     A
C5     C6      1.419   .     A
C5     C7      1.404   .     A
C5     C588    1.388   1_554 S
C6     C9      1.410   .     A
C6     C28     1.432   .     A
C7     C8      1.390   .     A
C7     H31     1.084   .     S
C8     H39     1.084   .     S
C8     C20     1.394   .     A
C9     C20     1.393   .     A
C9     H38     1.079   .     S
C10    C76     1.335   .     S
C10    H100    1.088   .     S
C11    C140    1.335   1_455 S
C11    H166    1.086   1_455 S
C12    C19     1.399   .     A
C12    H42     1.083   .     S
C12    C21     1.393   .     A
C13    C16     1.450   .     S
C13    C209    1.344   .     S
C13    H232    1.088   .     S
C14    C15     1.428   .     S
C14    C403    1.344   1_545 S
C14    I433    2.138   1_545 S
C15    O60     1.274   .     A
C15    O54     1.276   .     A
C16    O55     1.260   .     A
C16    O61     1.275   .     A
C17    O48     1.274   .     A
C17    C20     1.452   .     S
C17    O46     1.277   .     A
C18    O47     1.282   .     A
C18    C19     1.471   .     S
C18    O49     1.285   .     A
C19    C23     1.395   .     A
C21    C26     1.414   .     A
C21    H41     1.082   .     S
C22    C30     1.484   .     S
C22    O50     1.223   .     D
C22    O51     1.397   .     S
C23    H32     1.079   .     S
C23    C25     1.402   .     A
C24    O52     1.223   .     D
C24    O53     1.399   .     S
C24    C29     1.490   .     S
C25    C26     1.416   .     A
C25    C27     1.417   .     A
C26    C615    1.410   .     S
C27    C613    1.428   .     S
C28    C29     1.433   .     A
C28    C612    1.428   1_554 S
C29    C30     1.415   .     A
C30    C611    1.410   1_554 S
H33    O51     1.014   .     S
H34    O53     1.014   .     S
H35    C140    1.088   1_455 S
H36    C76     1.086   .     S
H37    C403    1.088   1_545 S
I43    C209    2.138   .     S
O45    Zn64    1.934   .     S
O45    Zn65    1.927   .     S
O45    Zn62    1.963   .     S
O45    Zn63    1.946   .     S
O46    Zn63    1.926   .     S
O47    Zn65    1.939   .     S
O48    Zn64    1.932   .     S
O49    Zn62    1.920   .     S
O54    Zn62    1.936   .     S
O55    Zn65    1.940   .     S
O56    Zn63    1.922   .     S
O57    Zn64    1.935   .     S
O58    Zn65    1.932   .     S
O59    Zn62    1.921   .     S
O60    Zn63    1.944   .     S
O61    Zn64    1.936   .     S
C66    C76     1.437   .     S
C66    O121    1.270   .     A
C66    O123    1.269   .     A
C67    C92     1.428   .     A
C67    C68     1.387   .     A
C67    I109    2.144   .     S
C68    H105    1.084   .     S
C68    C655    1.388   .     S
C69    O122    1.283   .     A
C69    C75     1.455   .     S
C69    O124    1.279   .     A
C70    C71     1.419   .     A
C70    C72     1.404   .     A
C70    C653    1.388   1_554 S
C71    C74     1.410   .     A
C71    C93     1.432   .     A
C72    C73     1.390   .     A
C72    H96     1.084   .     S
C73    H104    1.084   .     S
C73    C85     1.394   .     A
C74    C85     1.393   .     A
C74    H103    1.079   .     S
C75    C141    1.335   .     S
C75    H165    1.088   .     S
C77    C84     1.399   .     A
C77    H107    1.083   .     S
C77    C86     1.393   .     A
C78    C81     1.450   .     S
C78    C274    1.344   .     S
C78    H297    1.088   .     S
C79    C80     1.428   .     S
C79    C468    1.344   1_545 S
C79    I498    2.138   1_545 S
C80    O125    1.274   .     A
C80    O119    1.276   .     A
C81    O120    1.260   .     A
C81    O126    1.275   .     A
C82    O113    1.274   .     A
C82    C85     1.452   .     S
C82    O111    1.277   .     A
C83    O112    1.282   .     A
C83    C84     1.471   .     S
C83    O114    1.285   .     A
C84    C88     1.395   .     A
C86    C91     1.414   .     A
C86    H106    1.082   .     S
C87    C95     1.484   .     S
C87    O115    1.223   .     D
C87    O116    1.397   .     S
C88    H97     1.079   .     S
C88    C90     1.402   .     A
C89    O117    1.223   .     D
C89    O118    1.399   .     S
C89    C94     1.490   .     S
C90    C91     1.416   .     A
C90    C92     1.417   .     A
C91    C680    1.410   .     S
C92    C678    1.428   .     S
C93    C94     1.433   .     A
C93    C677    1.428   1_554 S
C94    C95     1.415   .     A
C95    C676    1.410   1_554 S
H98    O116    1.014   .     S
H99    O118    1.014   .     S
H101   C141    1.086   .     S
H102   C468    1.088   1_545 S
I108   C274    2.138   .     S
O110   Zn129   1.934   .     S
O110   Zn130   1.927   .     S
O110   Zn127   1.963   .     S
O110   Zn128   1.946   .     S
O111   Zn128   1.926   .     S
O112   Zn130   1.939   .     S
O113   Zn129   1.932   .     S
O114   Zn127   1.920   .     S
O119   Zn127   1.936   .     S
O120   Zn130   1.940   .     S
O121   Zn128   1.922   .     S
O122   Zn129   1.935   .     S
O123   Zn130   1.932   .     S
O124   Zn127   1.921   .     S
O125   Zn128   1.944   .     S
O126   Zn129   1.936   .     S
C131   C141    1.437   .     S
C131   O186    1.270   .     A
C131   O188    1.269   .     A
C132   C157    1.428   .     A
C132   C133    1.387   .     A
C132   I174    2.144   .     S
C133   H170    1.084   .     S
C133   C720    1.388   .     S
C134   O187    1.283   .     A
C134   C140    1.455   .     S
C134   O189    1.279   .     A
C135   C136    1.419   .     A
C135   C137    1.404   .     A
C135   C718    1.388   1_554 S
C136   C139    1.410   .     A
C136   C158    1.432   .     A
C137   C138    1.390   .     A
C137   H161    1.084   .     S
C138   H169    1.084   .     S
C138   C150    1.394   .     A
C139   C150    1.393   .     A
C139   H168    1.079   .     S
C140   C11     1.335   1_655 S
C140   H35     1.088   1_655 S
C142   C149    1.399   .     A
C142   H172    1.083   .     S
C142   C151    1.393   .     A
C143   C146    1.450   .     S
C143   C339    1.344   .     S
C143   H362    1.088   .     S
C144   C145    1.428   .     S
C144   C533    1.344   1_545 S
C144   I563    2.138   1_545 S
C145   O190    1.274   .     A
C145   O184    1.276   .     A
C146   O185    1.260   .     A
C146   O191    1.275   .     A
C147   O178    1.274   .     A
C147   C150    1.452   .     S
C147   O176    1.277   .     A
C148   O177    1.282   .     A
C148   C149    1.471   .     S
C148   O179    1.285   .     A
C149   C153    1.395   .     A
C151   C156    1.414   .     A
C151   H171    1.082   .     S
C152   C160    1.484   .     S
C152   O180    1.223   .     D
C152   O181    1.397   .     S
C153   H162    1.079   .     S
C153   C155    1.402   .     A
C154   O182    1.223   .     D
C154   O183    1.399   .     S
C154   C159    1.490   .     S
C155   C156    1.416   .     A
C155   C157    1.417   .     A
C156   C745    1.410   .     S
C157   C743    1.428   .     S
C158   C159    1.433   .     A
C158   C742    1.428   1_554 S
C159   C160    1.415   .     A
C160   C741    1.410   1_554 S
H163   O181    1.014   .     S
H164   O183    1.014   .     S
H166   C11     1.086   1_655 S
H167   C533    1.088   1_545 S
I173   C339    2.138   .     S
O175   Zn194   1.934   .     S
O175   Zn195   1.927   .     S
O175   Zn192   1.963   .     S
O175   Zn193   1.946   .     S
O176   Zn193   1.926   .     S
O177   Zn195   1.939   .     S
O178   Zn194   1.932   .     S
O179   Zn192   1.920   .     S
O184   Zn192   1.936   .     S
O185   Zn195   1.940   .     S
O186   Zn193   1.922   .     S
O187   Zn194   1.935   .     S
O188   Zn195   1.932   .     S
O189   Zn192   1.921   .     S
O190   Zn193   1.944   .     S
O191   Zn194   1.936   .     S
C196   C206    1.437   .     S
C196   O251    1.270   .     A
C196   O253    1.269   .     A
C197   C222    1.428   .     A
C197   C198    1.387   .     A
C197   I239    2.144   .     S
C198   H235    1.084   .     S
C198   C785    1.388   .     S
C199   O252    1.283   .     A
C199   C205    1.455   .     S
C199   O254    1.279   .     A
C200   C201    1.419   .     A
C200   C202    1.404   .     A
C200   C783    1.388   1_554 S
C201   C204    1.410   .     A
C201   C223    1.432   .     A
C202   C203    1.390   .     A
C202   H226    1.084   .     S
C203   H234    1.084   .     S
C203   C215    1.394   .     A
C204   C215    1.393   .     A
C204   H233    1.079   .     S
C205   C271    1.335   .     S
C205   H295    1.088   .     S
C206   C335    1.335   1_455 S
C206   H361    1.086   1_455 S
C207   C214    1.399   .     A
C207   H237    1.083   .     S
C207   C216    1.393   .     A
C208   C211    1.450   .     S
C208   C404    1.344   .     S
C208   H427    1.088   .     S
C209   C210    1.428   .     S
C210   O255    1.274   .     A
C210   O249    1.276   .     A
C211   O250    1.260   .     A
C211   O256    1.275   .     A
C212   O243    1.274   .     A
C212   C215    1.452   .     S
C212   O241    1.277   .     A
C213   O242    1.282   .     A
C213   C214    1.471   .     S
C213   O244    1.285   .     A
C214   C218    1.395   .     A
C216   C221    1.414   .     A
C216   H236    1.082   .     S
C217   C225    1.484   .     S
C217   O245    1.223   .     D
C217   O246    1.397   .     S
C218   H227    1.079   .     S
C218   C220    1.402   .     A
C219   O247    1.223   .     D
C219   O248    1.399   .     S
C219   C224    1.490   .     S
C220   C221    1.416   .     A
C220   C222    1.417   .     A
C221   C810    1.410   .     S
C222   C808    1.428   .     S
C223   C224    1.433   .     A
C223   C807    1.428   1_554 S
C224   C225    1.415   .     A
C225   C806    1.410   1_554 S
H228   O246    1.014   .     S
H229   O248    1.014   .     S
H230   C335    1.088   1_455 S
H231   C271    1.086   .     S
I238   C404    2.138   .     S
O240   Zn259   1.934   .     S
O240   Zn260   1.927   .     S
O240   Zn257   1.963   .     S
O240   Zn258   1.946   .     S
O241   Zn258   1.926   .     S
O242   Zn260   1.939   .     S
O243   Zn259   1.932   .     S
O244   Zn257   1.920   .     S
O249   Zn257   1.936   .     S
O250   Zn260   1.940   .     S
O251   Zn258   1.922   .     S
O252   Zn259   1.935   .     S
O253   Zn260   1.932   .     S
O254   Zn257   1.921   .     S
O255   Zn258   1.944   .     S
O256   Zn259   1.936   .     S
C261   C271    1.437   .     S
C261   O316    1.270   .     A
C261   O318    1.269   .     A
C262   C287    1.428   .     A
C262   C263    1.387   .     A
C262   I304    2.144   .     S
C263   H300    1.084   .     S
C263   C850    1.388   .     S
C264   O317    1.283   .     A
C264   C270    1.455   .     S
C264   O319    1.279   .     A
C265   C266    1.419   .     A
C265   C267    1.404   .     A
C265   C848    1.388   1_554 S
C266   C269    1.410   .     A
C266   C288    1.432   .     A
C267   C268    1.390   .     A
C267   H291    1.084   .     S
C268   H299    1.084   .     S
C268   C280    1.394   .     A
C269   C280    1.393   .     A
C269   H298    1.079   .     S
C270   C336    1.335   .     S
C270   H360    1.088   .     S
C272   C279    1.399   .     A
C272   H302    1.083   .     S
C272   C281    1.393   .     A
C273   C276    1.450   .     S
C273   C469    1.344   .     S
C273   H492    1.088   .     S
C274   C275    1.428   .     S
C275   O320    1.274   .     A
C275   O314    1.276   .     A
C276   O315    1.260   .     A
C276   O321    1.275   .     A
C277   O308    1.274   .     A
C277   C280    1.452   .     S
C277   O306    1.277   .     A
C278   O307    1.282   .     A
C278   C279    1.471   .     S
C278   O309    1.285   .     A
C279   C283    1.395   .     A
C281   C286    1.414   .     A
C281   H301    1.082   .     S
C282   C290    1.484   .     S
C282   O310    1.223   .     D
C282   O311    1.397   .     S
C283   H292    1.079   .     S
C283   C285    1.402   .     A
C284   O312    1.223   .     D
C284   O313    1.399   .     S
C284   C289    1.490   .     S
C285   C286    1.416   .     A
C285   C287    1.417   .     A
C286   C875    1.410   .     S
C287   C873    1.428   .     S
C288   C289    1.433   .     A
C288   C872    1.428   1_554 S
C289   C290    1.415   .     A
C290   C871    1.410   1_554 S
H293   O311    1.014   .     S
H294   O313    1.014   .     S
H296   C336    1.086   .     S
I303   C469    2.138   .     S
O305   Zn324   1.934   .     S
O305   Zn325   1.927   .     S
O305   Zn322   1.963   .     S
O305   Zn323   1.946   .     S
O306   Zn323   1.926   .     S
O307   Zn325   1.939   .     S
O308   Zn324   1.932   .     S
O309   Zn322   1.920   .     S
O314   Zn322   1.936   .     S
O315   Zn325   1.940   .     S
O316   Zn323   1.922   .     S
O317   Zn324   1.935   .     S
O318   Zn325   1.932   .     S
O319   Zn322   1.921   .     S
O320   Zn323   1.944   .     S
O321   Zn324   1.936   .     S
C326   C336    1.437   .     S
C326   O381    1.270   .     A
C326   O383    1.269   .     A
C327   C352    1.428   .     A
C327   C328    1.387   .     A
C327   I369    2.144   .     S
C328   H365    1.084   .     S
C328   C915    1.388   .     S
C329   O382    1.283   .     A
C329   C335    1.455   .     S
C329   O384    1.279   .     A
C330   C331    1.419   .     A
C330   C332    1.404   .     A
C330   C913    1.388   1_554 S
C331   C334    1.410   .     A
C331   C353    1.432   .     A
C332   C333    1.390   .     A
C332   H356    1.084   .     S
C333   H364    1.084   .     S
C333   C345    1.394   .     A
C334   C345    1.393   .     A
C334   H363    1.079   .     S
C335   C206    1.335   1_655 S
C335   H230    1.088   1_655 S
C337   C344    1.399   .     A
C337   H367    1.083   .     S
C337   C346    1.393   .     A
C338   C341    1.450   .     S
C338   C534    1.344   .     S
C338   H557    1.088   .     S
C339   C340    1.428   .     S
C340   O385    1.274   .     A
C340   O379    1.276   .     A
C341   O380    1.260   .     A
C341   O386    1.275   .     A
C342   O373    1.274   .     A
C342   C345    1.452   .     S
C342   O371    1.277   .     A
C343   O372    1.282   .     A
C343   C344    1.471   .     S
C343   O374    1.285   .     A
C344   C348    1.395   .     A
C346   C351    1.414   .     A
C346   H366    1.082   .     S
C347   C355    1.484   .     S
C347   O375    1.223   .     D
C347   O376    1.397   .     S
C348   H357    1.079   .     S
C348   C350    1.402   .     A
C349   O377    1.223   .     D
C349   O378    1.399   .     S
C349   C354    1.490   .     S
C350   C351    1.416   .     A
C350   C352    1.417   .     A
C351   C940    1.410   .     S
C352   C938    1.428   .     S
C353   C354    1.433   .     A
C353   C937    1.428   1_554 S
C354   C355    1.415   .     A
C355   C936    1.410   1_554 S
H358   O376    1.014   .     S
H359   O378    1.014   .     S
H361   C206    1.086   1_655 S
I368   C534    2.138   .     S
O370   Zn389   1.934   .     S
O370   Zn390   1.927   .     S
O370   Zn387   1.963   .     S
O370   Zn388   1.946   .     S
O371   Zn388   1.926   .     S
O372   Zn390   1.939   .     S
O373   Zn389   1.932   .     S
O374   Zn387   1.920   .     S
O379   Zn387   1.936   .     S
O380   Zn390   1.940   .     S
O381   Zn388   1.922   .     S
O382   Zn389   1.935   .     S
O383   Zn390   1.932   .     S
O384   Zn387   1.921   .     S
O385   Zn388   1.944   .     S
O386   Zn389   1.936   .     S
C391   C401    1.437   .     S
C391   O446    1.270   .     A
C391   O448    1.269   .     A
C392   C417    1.428   .     A
C392   C393    1.387   .     A
C392   I434    2.144   .     S
C393   H430    1.084   .     S
C393   C980    1.388   .     S
C394   O447    1.283   .     A
C394   C400    1.455   .     S
C394   O449    1.279   .     A
C395   C396    1.419   .     A
C395   C397    1.404   .     A
C395   C978    1.388   1_554 S
C396   C399    1.410   .     A
C396   C418    1.432   .     A
C397   C398    1.390   .     A
C397   H421    1.084   .     S
C398   H429    1.084   .     S
C398   C410    1.394   .     A
C399   C410    1.393   .     A
C399   H428    1.079   .     S
C400   C466    1.335   .     S
C400   H490    1.088   .     S
C401   C530    1.335   1_455 S
C401   H556    1.086   1_455 S
C402   C409    1.399   .     A
C402   H432    1.083   .     S
C402   C411    1.393   .     A
C403   C406    1.450   .     S
C403   C14     1.344   1_565 S
C403   H37     1.088   1_565 S
C404   C405    1.428   .     S
C405   O450    1.274   .     A
C405   O444    1.276   .     A
C406   O445    1.260   .     A
C406   O451    1.275   .     A
C407   O438    1.274   .     A
C407   C410    1.452   .     S
C407   O436    1.277   .     A
C408   O437    1.282   .     A
C408   C409    1.471   .     S
C408   O439    1.285   .     A
C409   C413    1.395   .     A
C411   C416    1.414   .     A
C411   H431    1.082   .     S
C412   C420    1.484   .     S
C412   O440    1.223   .     D
C412   O441    1.397   .     S
C413   H422    1.079   .     S
C413   C415    1.402   .     A
C414   O442    1.223   .     D
C414   O443    1.399   .     S
C414   C419    1.490   .     S
C415   C416    1.416   .     A
C415   C417    1.417   .     A
C416   C1005   1.410   .     S
C417   C1003   1.428   .     S
C418   C419    1.433   .     A
C418   C1002   1.428   1_554 S
C419   C420    1.415   .     A
C420   C1001   1.410   1_554 S
H423   O441    1.014   .     S
H424   O443    1.014   .     S
H425   C530    1.088   1_455 S
H426   C466    1.086   .     S
I433   C14     2.138   1_565 S
O435   Zn454   1.934   .     S
O435   Zn455   1.927   .     S
O435   Zn452   1.963   .     S
O435   Zn453   1.946   .     S
O436   Zn453   1.926   .     S
O437   Zn455   1.939   .     S
O438   Zn454   1.932   .     S
O439   Zn452   1.920   .     S
O444   Zn452   1.936   .     S
O445   Zn455   1.940   .     S
O446   Zn453   1.922   .     S
O447   Zn454   1.935   .     S
O448   Zn455   1.932   .     S
O449   Zn452   1.921   .     S
O450   Zn453   1.944   .     S
O451   Zn454   1.936   .     S
C456   C466    1.437   .     S
C456   O511    1.270   .     A
C456   O513    1.269   .     A
C457   C482    1.428   .     A
C457   C458    1.387   .     A
C457   I499    2.144   .     S
C458   H495    1.084   .     S
C458   C1045   1.388   .     S
C459   O512    1.283   .     A
C459   C465    1.455   .     S
C459   O514    1.279   .     A
C460   C461    1.419   .     A
C460   C462    1.404   .     A
C460   C1043   1.388   1_554 S
C461   C464    1.410   .     A
C461   C483    1.432   .     A
C462   C463    1.390   .     A
C462   H486    1.084   .     S
C463   H494    1.084   .     S
C463   C475    1.394   .     A
C464   C475    1.393   .     A
C464   H493    1.079   .     S
C465   C531    1.335   .     S
C465   H555    1.088   .     S
C467   C474    1.399   .     A
C467   H497    1.083   .     S
C467   C476    1.393   .     A
C468   C471    1.450   .     S
C468   C79     1.344   1_565 S
C468   H102    1.088   1_565 S
C469   C470    1.428   .     S
C470   O515    1.274   .     A
C470   O509    1.276   .     A
C471   O510    1.260   .     A
C471   O516    1.275   .     A
C472   O503    1.274   .     A
C472   C475    1.452   .     S
C472   O501    1.277   .     A
C473   O502    1.282   .     A
C473   C474    1.471   .     S
C473   O504    1.285   .     A
C474   C478    1.395   .     A
C476   C481    1.414   .     A
C476   H496    1.082   .     S
C477   C485    1.484   .     S
C477   O505    1.223   .     D
C477   O506    1.397   .     S
C478   H487    1.079   .     S
C478   C480    1.402   .     A
C479   O507    1.223   .     D
C479   O508    1.399   .     S
C479   C484    1.490   .     S
C480   C481    1.416   .     A
C480   C482    1.417   .     A
C481   C1070   1.410   .     S
C482   C1068   1.428   .     S
C483   C484    1.433   .     A
C483   C1067   1.428   1_554 S
C484   C485    1.415   .     A
C485   C1066   1.410   1_554 S
H488   O506    1.014   .     S
H489   O508    1.014   .     S
H491   C531    1.086   .     S
I498   C79     2.138   1_565 S
O500   Zn519   1.934   .     S
O500   Zn520   1.927   .     S
O500   Zn517   1.963   .     S
O500   Zn518   1.946   .     S
O501   Zn518   1.926   .     S
O502   Zn520   1.939   .     S
O503   Zn519   1.932   .     S
O504   Zn517   1.920   .     S
O509   Zn517   1.936   .     S
O510   Zn520   1.940   .     S
O511   Zn518   1.922   .     S
O512   Zn519   1.935   .     S
O513   Zn520   1.932   .     S
O514   Zn517   1.921   .     S
O515   Zn518   1.944   .     S
O516   Zn519   1.936   .     S
C521   C531    1.437   .     S
C521   O576    1.270   .     A
C521   O578    1.269   .     A
C522   C547    1.428   .     A
C522   C523    1.387   .     A
C522   I564    2.144   .     S
C523   H560    1.084   .     S
C523   C1110   1.388   .     S
C524   O577    1.283   .     A
C524   C530    1.455   .     S
C524   O579    1.279   .     A
C525   C526    1.419   .     A
C525   C527    1.404   .     A
C525   C1108   1.388   1_554 S
C526   C529    1.410   .     A
C526   C548    1.432   .     A
C527   C528    1.390   .     A
C527   H551    1.084   .     S
C528   H559    1.084   .     S
C528   C540    1.394   .     A
C529   C540    1.393   .     A
C529   H558    1.079   .     S
C530   C401    1.335   1_655 S
C530   H425    1.088   1_655 S
C532   C539    1.399   .     A
C532   H562    1.083   .     S
C532   C541    1.393   .     A
C533   C536    1.450   .     S
C533   C144    1.344   1_565 S
C533   H167    1.088   1_565 S
C534   C535    1.428   .     S
C535   O580    1.274   .     A
C535   O574    1.276   .     A
C536   O575    1.260   .     A
C536   O581    1.275   .     A
C537   O568    1.274   .     A
C537   C540    1.452   .     S
C537   O566    1.277   .     A
C538   O567    1.282   .     A
C538   C539    1.471   .     S
C538   O569    1.285   .     A
C539   C543    1.395   .     A
C541   C546    1.414   .     A
C541   H561    1.082   .     S
C542   C550    1.484   .     S
C542   O570    1.223   .     D
C542   O571    1.397   .     S
C543   H552    1.079   .     S
C543   C545    1.402   .     A
C544   O572    1.223   .     D
C544   O573    1.399   .     S
C544   C549    1.490   .     S
C545   C546    1.416   .     A
C545   C547    1.417   .     A
C546   C1135   1.410   .     S
C547   C1133   1.428   .     S
C548   C549    1.433   .     A
C548   C1132   1.428   1_554 S
C549   C550    1.415   .     A
C550   C1131   1.410   1_554 S
H553   O571    1.014   .     S
H554   O573    1.014   .     S
H556   C401    1.086   1_655 S
I563   C144    2.138   1_565 S
O565   Zn584   1.934   .     S
O565   Zn585   1.927   .     S
O565   Zn582   1.963   .     S
O565   Zn583   1.946   .     S
O566   Zn583   1.926   .     S
O567   Zn585   1.939   .     S
O568   Zn584   1.932   .     S
O569   Zn582   1.920   .     S
O574   Zn582   1.936   .     S
O575   Zn585   1.940   .     S
O576   Zn583   1.922   .     S
O577   Zn584   1.935   .     S
O578   Zn585   1.932   .     S
O579   Zn582   1.921   .     S
O580   Zn583   1.944   .     S
O581   Zn584   1.936   .     S
C586   C596    1.437   .     S
C586   O641    1.270   .     A
C586   O643    1.269   .     A
C587   C612    1.428   .     A
C587   C588    1.387   .     A
C587   I629    2.144   .     S
C588   H625    1.084   .     S
C588   C5      1.388   1_556 S
C589   O642    1.283   .     A
C589   C595    1.455   .     S
C589   O644    1.279   .     A
C590   C591    1.419   .     A
C590   C592    1.404   .     A
C591   C594    1.410   .     A
C591   C613    1.432   .     A
C592   C593    1.390   .     A
C592   H616    1.084   .     S
C593   H624    1.084   .     S
C593   C605    1.394   .     A
C594   C605    1.393   .     A
C594   H623    1.079   .     S
C595   C661    1.335   .     S
C595   H685    1.088   .     S
C596   C725    1.335   1_455 S
C596   H751    1.086   1_455 S
C597   C604    1.399   .     A
C597   H627    1.083   .     S
C597   C606    1.393   .     A
C598   C601    1.450   .     S
C598   C794    1.344   .     S
C598   H817    1.088   .     S
C599   C600    1.428   .     S
C599   C988    1.344   1_545 S
C599   I1018   2.138   1_545 S
C600   O645    1.274   .     A
C600   O639    1.276   .     A
C601   O640    1.260   .     A
C601   O646    1.275   .     A
C602   O633    1.274   .     A
C602   C605    1.452   .     S
C602   O631    1.277   .     A
C603   O632    1.282   .     A
C603   C604    1.471   .     S
C603   O634    1.285   .     A
C604   C608    1.395   .     A
C606   C611    1.414   .     A
C606   H626    1.082   .     S
C607   C615    1.484   .     S
C607   O635    1.223   .     D
C607   O636    1.397   .     S
C608   H617    1.079   .     S
C608   C610    1.402   .     A
C609   O637    1.223   .     D
C609   O638    1.399   .     S
C609   C614    1.490   .     S
C610   C611    1.416   .     A
C610   C612    1.417   .     A
C611   C30     1.410   1_556 S
C612   C28     1.428   1_556 S
C613   C614    1.433   .     A
C614   C615    1.415   .     A
H618   O636    1.014   .     S
H619   O638    1.014   .     S
H620   C725    1.088   1_455 S
H621   C661    1.086   .     S
H622   C988    1.088   1_545 S
I628   C794    2.138   .     S
O630   Zn649   1.934   .     S
O630   Zn650   1.927   .     S
O630   Zn647   1.963   .     S
O630   Zn648   1.946   .     S
O631   Zn648   1.926   .     S
O632   Zn650   1.939   .     S
O633   Zn649   1.932   .     S
O634   Zn647   1.920   .     S
O639   Zn647   1.936   .     S
O640   Zn650   1.940   .     S
O641   Zn648   1.922   .     S
O642   Zn649   1.935   .     S
O643   Zn650   1.932   .     S
O644   Zn647   1.921   .     S
O645   Zn648   1.944   .     S
O646   Zn649   1.936   .     S
C651   C661    1.437   .     S
C651   O706    1.270   .     A
C651   O708    1.269   .     A
C652   C677    1.428   .     A
C652   C653    1.387   .     A
C652   I694    2.144   .     S
C653   H690    1.084   .     S
C653   C70     1.388   1_556 S
C654   O707    1.283   .     A
C654   C660    1.455   .     S
C654   O709    1.279   .     A
C655   C656    1.419   .     A
C655   C657    1.404   .     A
C656   C659    1.410   .     A
C656   C678    1.432   .     A
C657   C658    1.390   .     A
C657   H681    1.084   .     S
C658   H689    1.084   .     S
C658   C670    1.394   .     A
C659   C670    1.393   .     A
C659   H688    1.079   .     S
C660   C726    1.335   .     S
C660   H750    1.088   .     S
C662   C669    1.399   .     A
C662   H692    1.083   .     S
C662   C671    1.393   .     A
C663   C666    1.450   .     S
C663   C859    1.344   .     S
C663   H882    1.088   .     S
C664   C665    1.428   .     S
C664   C1053   1.344   1_545 S
C664   I1083   2.138   1_545 S
C665   O710    1.274   .     A
C665   O704    1.276   .     A
C666   O705    1.260   .     A
C666   O711    1.275   .     A
C667   O698    1.274   .     A
C667   C670    1.452   .     S
C667   O696    1.277   .     A
C668   O697    1.282   .     A
C668   C669    1.471   .     S
C668   O699    1.285   .     A
C669   C673    1.395   .     A
C671   C676    1.414   .     A
C671   H691    1.082   .     S
C672   C680    1.484   .     S
C672   O700    1.223   .     D
C672   O701    1.397   .     S
C673   H682    1.079   .     S
C673   C675    1.402   .     A
C674   O702    1.223   .     D
C674   O703    1.399   .     S
C674   C679    1.490   .     S
C675   C676    1.416   .     A
C675   C677    1.417   .     A
C676   C95     1.410   1_556 S
C677   C93     1.428   1_556 S
C678   C679    1.433   .     A
C679   C680    1.415   .     A
H683   O701    1.014   .     S
H684   O703    1.014   .     S
H686   C726    1.086   .     S
H687   C1053   1.088   1_545 S
I693   C859    2.138   .     S
O695   Zn714   1.934   .     S
O695   Zn715   1.927   .     S
O695   Zn712   1.963   .     S
O695   Zn713   1.946   .     S
O696   Zn713   1.926   .     S
O697   Zn715   1.939   .     S
O698   Zn714   1.932   .     S
O699   Zn712   1.920   .     S
O704   Zn712   1.936   .     S
O705   Zn715   1.940   .     S
O706   Zn713   1.922   .     S
O707   Zn714   1.935   .     S
O708   Zn715   1.932   .     S
O709   Zn712   1.921   .     S
O710   Zn713   1.944   .     S
O711   Zn714   1.936   .     S
C716   C726    1.437   .     S
C716   O771    1.270   .     A
C716   O773    1.269   .     A
C717   C742    1.428   .     A
C717   C718    1.387   .     A
C717   I759    2.144   .     S
C718   H755    1.084   .     S
C718   C135    1.388   1_556 S
C719   O772    1.283   .     A
C719   C725    1.455   .     S
C719   O774    1.279   .     A
C720   C721    1.419   .     A
C720   C722    1.404   .     A
C721   C724    1.410   .     A
C721   C743    1.432   .     A
C722   C723    1.390   .     A
C722   H746    1.084   .     S
C723   H754    1.084   .     S
C723   C735    1.394   .     A
C724   C735    1.393   .     A
C724   H753    1.079   .     S
C725   C596    1.335   1_655 S
C725   H620    1.088   1_655 S
C727   C734    1.399   .     A
C727   H757    1.083   .     S
C727   C736    1.393   .     A
C728   C731    1.450   .     S
C728   C924    1.344   .     S
C728   H947    1.088   .     S
C729   C730    1.428   .     S
C729   C1118   1.344   1_545 S
C729   I1148   2.138   1_545 S
C730   O775    1.274   .     A
C730   O769    1.276   .     A
C731   O770    1.260   .     A
C731   O776    1.275   .     A
C732   O763    1.274   .     A
C732   C735    1.452   .     S
C732   O761    1.277   .     A
C733   O762    1.282   .     A
C733   C734    1.471   .     S
C733   O764    1.285   .     A
C734   C738    1.395   .     A
C736   C741    1.414   .     A
C736   H756    1.082   .     S
C737   C745    1.484   .     S
C737   O765    1.223   .     D
C737   O766    1.397   .     S
C738   H747    1.079   .     S
C738   C740    1.402   .     A
C739   O767    1.223   .     D
C739   O768    1.399   .     S
C739   C744    1.490   .     S
C740   C741    1.416   .     A
C740   C742    1.417   .     A
C741   C160    1.410   1_556 S
C742   C158    1.428   1_556 S
C743   C744    1.433   .     A
C744   C745    1.415   .     A
H748   O766    1.014   .     S
H749   O768    1.014   .     S
H751   C596    1.086   1_655 S
H752   C1118   1.088   1_545 S
I758   C924    2.138   .     S
O760   Zn779   1.934   .     S
O760   Zn780   1.927   .     S
O760   Zn777   1.963   .     S
O760   Zn778   1.946   .     S
O761   Zn778   1.926   .     S
O762   Zn780   1.939   .     S
O763   Zn779   1.932   .     S
O764   Zn777   1.920   .     S
O769   Zn777   1.936   .     S
O770   Zn780   1.940   .     S
O771   Zn778   1.922   .     S
O772   Zn779   1.935   .     S
O773   Zn780   1.932   .     S
O774   Zn777   1.921   .     S
O775   Zn778   1.944   .     S
O776   Zn779   1.936   .     S
C781   C791    1.437   .     S
C781   O836    1.270   .     A
C781   O838    1.269   .     A
C782   C807    1.428   .     A
C782   C783    1.387   .     A
C782   I824    2.144   .     S
C783   H820    1.084   .     S
C783   C200    1.388   1_556 S
C784   O837    1.283   .     A
C784   C790    1.455   .     S
C784   O839    1.279   .     A
C785   C786    1.419   .     A
C785   C787    1.404   .     A
C786   C789    1.410   .     A
C786   C808    1.432   .     A
C787   C788    1.390   .     A
C787   H811    1.084   .     S
C788   H819    1.084   .     S
C788   C800    1.394   .     A
C789   C800    1.393   .     A
C789   H818    1.079   .     S
C790   C856    1.335   .     S
C790   H880    1.088   .     S
C791   C920    1.335   1_455 S
C791   H946    1.086   1_455 S
C792   C799    1.399   .     A
C792   H822    1.083   .     S
C792   C801    1.393   .     A
C793   C796    1.450   .     S
C793   C989    1.344   .     S
C793   H1012   1.088   .     S
C794   C795    1.428   .     S
C795   O840    1.274   .     A
C795   O834    1.276   .     A
C796   O835    1.260   .     A
C796   O841    1.275   .     A
C797   O828    1.274   .     A
C797   C800    1.452   .     S
C797   O826    1.277   .     A
C798   O827    1.282   .     A
C798   C799    1.471   .     S
C798   O829    1.285   .     A
C799   C803    1.395   .     A
C801   C806    1.414   .     A
C801   H821    1.082   .     S
C802   C810    1.484   .     S
C802   O830    1.223   .     D
C802   O831    1.397   .     S
C803   H812    1.079   .     S
C803   C805    1.402   .     A
C804   O832    1.223   .     D
C804   O833    1.399   .     S
C804   C809    1.490   .     S
C805   C806    1.416   .     A
C805   C807    1.417   .     A
C806   C225    1.410   1_556 S
C807   C223    1.428   1_556 S
C808   C809    1.433   .     A
C809   C810    1.415   .     A
H813   O831    1.014   .     S
H814   O833    1.014   .     S
H815   C920    1.088   1_455 S
H816   C856    1.086   .     S
I823   C989    2.138   .     S
O825   Zn844   1.934   .     S
O825   Zn845   1.927   .     S
O825   Zn842   1.963   .     S
O825   Zn843   1.946   .     S
O826   Zn843   1.926   .     S
O827   Zn845   1.939   .     S
O828   Zn844   1.932   .     S
O829   Zn842   1.920   .     S
O834   Zn842   1.936   .     S
O835   Zn845   1.940   .     S
O836   Zn843   1.922   .     S
O837   Zn844   1.935   .     S
O838   Zn845   1.932   .     S
O839   Zn842   1.921   .     S
O840   Zn843   1.944   .     S
O841   Zn844   1.936   .     S
C846   C856    1.437   .     S
C846   O901    1.270   .     A
C846   O903    1.269   .     A
C847   C872    1.428   .     A
C847   C848    1.387   .     A
C847   I889    2.144   .     S
C848   H885    1.084   .     S
C848   C265    1.388   1_556 S
C849   O902    1.283   .     A
C849   C855    1.455   .     S
C849   O904    1.279   .     A
C850   C851    1.419   .     A
C850   C852    1.404   .     A
C851   C854    1.410   .     A
C851   C873    1.432   .     A
C852   C853    1.390   .     A
C852   H876    1.084   .     S
C853   H884    1.084   .     S
C853   C865    1.394   .     A
C854   C865    1.393   .     A
C854   H883    1.079   .     S
C855   C921    1.335   .     S
C855   H945    1.088   .     S
C857   C864    1.399   .     A
C857   H887    1.083   .     S
C857   C866    1.393   .     A
C858   C861    1.450   .     S
C858   C1054   1.344   .     S
C858   H1077   1.088   .     S
C859   C860    1.428   .     S
C860   O905    1.274   .     A
C860   O899    1.276   .     A
C861   O900    1.260   .     A
C861   O906    1.275   .     A
C862   O893    1.274   .     A
C862   C865    1.452   .     S
C862   O891    1.277   .     A
C863   O892    1.282   .     A
C863   C864    1.471   .     S
C863   O894    1.285   .     A
C864   C868    1.395   .     A
C866   C871    1.414   .     A
C866   H886    1.082   .     S
C867   C875    1.484   .     S
C867   O895    1.223   .     D
C867   O896    1.397   .     S
C868   H877    1.079   .     S
C868   C870    1.402   .     A
C869   O897    1.223   .     D
C869   O898    1.399   .     S
C869   C874    1.490   .     S
C870   C871    1.416   .     A
C870   C872    1.417   .     A
C871   C290    1.410   1_556 S
C872   C288    1.428   1_556 S
C873   C874    1.433   .     A
C874   C875    1.415   .     A
H878   O896    1.014   .     S
H879   O898    1.014   .     S
H881   C921    1.086   .     S
I888   C1054   2.138   .     S
O890   Zn909   1.934   .     S
O890   Zn910   1.927   .     S
O890   Zn907   1.963   .     S
O890   Zn908   1.946   .     S
O891   Zn908   1.926   .     S
O892   Zn910   1.939   .     S
O893   Zn909   1.932   .     S
O894   Zn907   1.920   .     S
O899   Zn907   1.936   .     S
O900   Zn910   1.940   .     S
O901   Zn908   1.922   .     S
O902   Zn909   1.935   .     S
O903   Zn910   1.932   .     S
O904   Zn907   1.921   .     S
O905   Zn908   1.944   .     S
O906   Zn909   1.936   .     S
C911   C921    1.437   .     S
C911   O966    1.270   .     A
C911   O968    1.269   .     A
C912   C937    1.428   .     A
C912   C913    1.387   .     A
C912   I954    2.144   .     S
C913   H950    1.084   .     S
C913   C330    1.388   1_556 S
C914   O967    1.283   .     A
C914   C920    1.455   .     S
C914   O969    1.279   .     A
C915   C916    1.419   .     A
C915   C917    1.404   .     A
C916   C919    1.410   .     A
C916   C938    1.432   .     A
C917   C918    1.390   .     A
C917   H941    1.084   .     S
C918   H949    1.084   .     S
C918   C930    1.394   .     A
C919   C930    1.393   .     A
C919   H948    1.079   .     S
C920   C791    1.335   1_655 S
C920   H815    1.088   1_655 S
C922   C929    1.399   .     A
C922   H952    1.083   .     S
C922   C931    1.393   .     A
C923   C926    1.450   .     S
C923   C1119   1.344   .     S
C923   H1142   1.088   .     S
C924   C925    1.428   .     S
C925   O970    1.274   .     A
C925   O964    1.276   .     A
C926   O965    1.260   .     A
C926   O971    1.275   .     A
C927   O958    1.274   .     A
C927   C930    1.452   .     S
C927   O956    1.277   .     A
C928   O957    1.282   .     A
C928   C929    1.471   .     S
C928   O959    1.285   .     A
C929   C933    1.395   .     A
C931   C936    1.414   .     A
C931   H951    1.082   .     S
C932   C940    1.484   .     S
C932   O960    1.223   .     D
C932   O961    1.397   .     S
C933   H942    1.079   .     S
C933   C935    1.402   .     A
C934   O962    1.223   .     D
C934   O963    1.399   .     S
C934   C939    1.490   .     S
C935   C936    1.416   .     A
C935   C937    1.417   .     A
C936   C355    1.410   1_556 S
C937   C353    1.428   1_556 S
C938   C939    1.433   .     A
C939   C940    1.415   .     A
H943   O961    1.014   .     S
H944   O963    1.014   .     S
H946   C791    1.086   1_655 S
I953   C1119   2.138   .     S
O955   Zn974   1.934   .     S
O955   Zn975   1.927   .     S
O955   Zn972   1.963   .     S
O955   Zn973   1.946   .     S
O956   Zn973   1.926   .     S
O957   Zn975   1.939   .     S
O958   Zn974   1.932   .     S
O959   Zn972   1.920   .     S
O964   Zn972   1.936   .     S
O965   Zn975   1.940   .     S
O966   Zn973   1.922   .     S
O967   Zn974   1.935   .     S
O968   Zn975   1.932   .     S
O969   Zn972   1.921   .     S
O970   Zn973   1.944   .     S
O971   Zn974   1.936   .     S
C976   C986    1.437   .     S
C976   O1031   1.270   .     A
C976   O1033   1.269   .     A
C977   C1002   1.428   .     A
C977   C978    1.387   .     A
C977   I1019   2.144   .     S
C978   H1015   1.084   .     S
C978   C395    1.388   1_556 S
C979   O1032   1.283   .     A
C979   C985    1.455   .     S
C979   O1034   1.279   .     A
C980   C981    1.419   .     A
C980   C982    1.404   .     A
C981   C984    1.410   .     A
C981   C1003   1.432   .     A
C982   C983    1.390   .     A
C982   H1006   1.084   .     S
C983   H1014   1.084   .     S
C983   C995    1.394   .     A
C984   C995    1.393   .     A
C984   H1013   1.079   .     S
C985   C1051   1.335   .     S
C985   H1075   1.088   .     S
C986   C1115   1.335   1_455 S
C986   H1141   1.086   1_455 S
C987   C994    1.399   .     A
C987   H1017   1.083   .     S
C987   C996    1.393   .     A
C988   C991    1.450   .     S
C988   C599    1.344   1_565 S
C988   H622    1.088   1_565 S
C989   C990    1.428   .     S
C990   O1035   1.274   .     A
C990   O1029   1.276   .     A
C991   O1030   1.260   .     A
C991   O1036   1.275   .     A
C992   O1023   1.274   .     A
C992   C995    1.452   .     S
C992   O1021   1.277   .     A
C993   O1022   1.282   .     A
C993   C994    1.471   .     S
C993   O1024   1.285   .     A
C994   C998    1.395   .     A
C996   C1001   1.414   .     A
C996   H1016   1.082   .     S
C997   C1005   1.484   .     S
C997   O1025   1.223   .     D
C997   O1026   1.397   .     S
C998   H1007   1.079   .     S
C998   C1000   1.402   .     A
C999   O1027   1.223   .     D
C999   O1028   1.399   .     S
C999   C1004   1.490   .     S
C1000  C1001   1.416   .     A
C1000  C1002   1.417   .     A
C1001  C420    1.410   1_556 S
C1002  C418    1.428   1_556 S
C1003  C1004   1.433   .     A
C1004  C1005   1.415   .     A
H1008  O1026   1.014   .     S
H1009  O1028   1.014   .     S
H1010  C1115   1.088   1_455 S
H1011  C1051   1.086   .     S
I1018  C599    2.138   1_565 S
O1020  Zn1039  1.934   .     S
O1020  Zn1040  1.927   .     S
O1020  Zn1037  1.963   .     S
O1020  Zn1038  1.946   .     S
O1021  Zn1038  1.926   .     S
O1022  Zn1040  1.939   .     S
O1023  Zn1039  1.932   .     S
O1024  Zn1037  1.920   .     S
O1029  Zn1037  1.936   .     S
O1030  Zn1040  1.940   .     S
O1031  Zn1038  1.922   .     S
O1032  Zn1039  1.935   .     S
O1033  Zn1040  1.932   .     S
O1034  Zn1037  1.921   .     S
O1035  Zn1038  1.944   .     S
O1036  Zn1039  1.936   .     S
C1041  C1051   1.437   .     S
C1041  O1096   1.270   .     A
C1041  O1098   1.269   .     A
C1042  C1067   1.428   .     A
C1042  C1043   1.387   .     A
C1042  I1084   2.144   .     S
C1043  H1080   1.084   .     S
C1043  C460    1.388   1_556 S
C1044  O1097   1.283   .     A
C1044  C1050   1.455   .     S
C1044  O1099   1.279   .     A
C1045  C1046   1.419   .     A
C1045  C1047   1.404   .     A
C1046  C1049   1.410   .     A
C1046  C1068   1.432   .     A
C1047  C1048   1.390   .     A
C1047  H1071   1.084   .     S
C1048  H1079   1.084   .     S
C1048  C1060   1.394   .     A
C1049  C1060   1.393   .     A
C1049  H1078   1.079   .     S
C1050  C1116   1.335   .     S
C1050  H1140   1.088   .     S
C1052  C1059   1.399   .     A
C1052  H1082   1.083   .     S
C1052  C1061   1.393   .     A
C1053  C1056   1.450   .     S
C1053  C664    1.344   1_565 S
C1053  H687    1.088   1_565 S
C1054  C1055   1.428   .     S
C1055  O1100   1.274   .     A
C1055  O1094   1.276   .     A
C1056  O1095   1.260   .     A
C1056  O1101   1.275   .     A
C1057  O1088   1.274   .     A
C1057  C1060   1.452   .     S
C1057  O1086   1.277   .     A
C1058  O1087   1.282   .     A
C1058  C1059   1.471   .     S
C1058  O1089   1.285   .     A
C1059  C1063   1.395   .     A
C1061  C1066   1.414   .     A
C1061  H1081   1.082   .     S
C1062  C1070   1.484   .     S
C1062  O1090   1.223   .     D
C1062  O1091   1.397   .     S
C1063  H1072   1.079   .     S
C1063  C1065   1.402   .     A
C1064  O1092   1.223   .     D
C1064  O1093   1.399   .     S
C1064  C1069   1.490   .     S
C1065  C1066   1.416   .     A
C1065  C1067   1.417   .     A
C1066  C485    1.410   1_556 S
C1067  C483    1.428   1_556 S
C1068  C1069   1.433   .     A
C1069  C1070   1.415   .     A
H1073  O1091   1.014   .     S
H1074  O1093   1.014   .     S
H1076  C1116   1.086   .     S
I1083  C664    2.138   1_565 S
O1085  Zn1104  1.934   .     S
O1085  Zn1105  1.927   .     S
O1085  Zn1102  1.963   .     S
O1085  Zn1103  1.946   .     S
O1086  Zn1103  1.926   .     S
O1087  Zn1105  1.939   .     S
O1088  Zn1104  1.932   .     S
O1089  Zn1102  1.920   .     S
O1094  Zn1102  1.936   .     S
O1095  Zn1105  1.940   .     S
O1096  Zn1103  1.922   .     S
O1097  Zn1104  1.935   .     S
O1098  Zn1105  1.932   .     S
O1099  Zn1102  1.921   .     S
O1100  Zn1103  1.944   .     S
O1101  Zn1104  1.936   .     S
C1106  C1116   1.437   .     S
C1106  O1161   1.270   .     A
C1106  O1163   1.269   .     A
C1107  C1132   1.428   .     A
C1107  C1108   1.387   .     A
C1107  I1149   2.144   .     S
C1108  H1145   1.084   .     S
C1108  C525    1.388   1_556 S
C1109  O1162   1.283   .     A
C1109  C1115   1.455   .     S
C1109  O1164   1.279   .     A
C1110  C1111   1.419   .     A
C1110  C1112   1.404   .     A
C1111  C1114   1.410   .     A
C1111  C1133   1.432   .     A
C1112  C1113   1.390   .     A
C1112  H1136   1.084   .     S
C1113  H1144   1.084   .     S
C1113  C1125   1.394   .     A
C1114  C1125   1.393   .     A
C1114  H1143   1.079   .     S
C1115  C986    1.335   1_655 S
C1115  H1010   1.088   1_655 S
C1117  C1124   1.399   .     A
C1117  H1147   1.083   .     S
C1117  C1126   1.393   .     A
C1118  C1121   1.450   .     S
C1118  C729    1.344   1_565 S
C1118  H752    1.088   1_565 S
C1119  C1120   1.428   .     S
C1120  O1165   1.274   .     A
C1120  O1159   1.276   .     A
C1121  O1160   1.260   .     A
C1121  O1166   1.275   .     A
C1122  O1153   1.274   .     A
C1122  C1125   1.452   .     S
C1122  O1151   1.277   .     A
C1123  O1152   1.282   .     A
C1123  C1124   1.471   .     S
C1123  O1154   1.285   .     A
C1124  C1128   1.395   .     A
C1126  C1131   1.414   .     A
C1126  H1146   1.082   .     S
C1127  C1135   1.484   .     S
C1127  O1155   1.223   .     D
C1127  O1156   1.397   .     S
C1128  H1137   1.079   .     S
C1128  C1130   1.402   .     A
C1129  O1157   1.223   .     D
C1129  O1158   1.399   .     S
C1129  C1134   1.490   .     S
C1130  C1131   1.416   .     A
C1130  C1132   1.417   .     A
C1131  C550    1.410   1_556 S
C1132  C548    1.428   1_556 S
C1133  C1134   1.433   .     A
C1134  C1135   1.415   .     A
H1138  O1156   1.014   .     S
H1139  O1158   1.014   .     S
H1141  C986    1.086   1_655 S
I1148  C729    2.138   1_565 S
O1150  Zn1169  1.934   .     S
O1150  Zn1170  1.927   .     S
O1150  Zn1167  1.963   .     S
O1150  Zn1168  1.946   .     S
O1151  Zn1168  1.926   .     S
O1152  Zn1170  1.939   .     S
O1153  Zn1169  1.932   .     S
O1154  Zn1167  1.920   .     S
O1159  Zn1167  1.936   .     S
O1160  Zn1170  1.940   .     S
O1161  Zn1168  1.922   .     S
O1162  Zn1169  1.935   .     S
O1163  Zn1170  1.932   .     S
O1164  Zn1167  1.921   .     S
O1165  Zn1168  1.944   .     S
O1166  Zn1169  1.936   .     S
