data_str_m1_o10_o16_pcu_sym.221
_audit_creation_date              2020-01-03
_audit_creation_method            'Materials Studio'
_symmetry_space_group_name_H-M    'P1'
_symmetry_Int_Tables_number       1
_symmetry_cell_setting            triclinic
loop_
_symmetry_equiv_pos_as_xyz
  x,y,z
_cell_length_a                    32.7102
_cell_length_b                    32.5427
_cell_length_c                    30.9770
_cell_angle_alpha                 96.5144
_cell_angle_beta                  75.1434
_cell_angle_gamma                 98.7290
loop_
_atom_site_label
_atom_site_type_symbol
_atom_site_fract_x
_atom_site_fract_y
_atom_site_fract_z
_atom_site_U_iso_or_equiv
_atom_site_adp_type
_atom_site_occupancy
C1     C     0.05312   0.15991   0.25933   0.00000  Uiso   1.00
C2     C     0.18183   0.16688   0.05636   0.00000  Uiso   1.00
C3     C     0.19569   0.09734   0.06375   0.00000  Uiso   1.00
C4     C     0.28063   0.17361   0.24027   0.00000  Uiso   1.00
C5     C     0.14300   0.19408   0.41937   0.00000  Uiso   1.00
C6     C     0.32611   0.17583   0.23729   0.00000  Uiso   1.00
C7     C     0.00807   0.15595   0.26456   0.00000  Uiso   1.00
C8     C     0.18156   0.32287   0.23609   0.00000  Uiso   1.00
C9     C     0.15236   0.01166   0.26316   0.00000  Uiso   1.00
C10    C     0.15543   0.05595   0.26084   0.00000  Uiso   1.00
C11    C     0.17682   0.27796   0.24008   0.00000  Uiso   1.00
C12    C     0.14387   0.24983   0.47802   0.00000  Uiso   1.00
C13    C     0.18526   0.14772   0.12942   0.00000  Uiso   1.00
C14    C     0.14819   0.18419   0.37090   0.00000  Uiso   1.00
C15    C     0.18826   0.08419   0.02194   0.00000  Uiso   1.00
C16    C     0.19129   0.13831   0.08144   0.00000  Uiso   1.00
C17    C     0.13826   0.23547   0.43587   0.00000  Uiso   1.00
C18    C     0.31586   0.13013   0.29946   0.00000  Uiso   1.00
C19    C     0.21880   0.01018   0.20197   0.00000  Uiso   1.00
C20    C     0.12306   0.10110   0.40407   0.00000  Uiso   1.00
C21    C     0.15578   0.22369   0.00379   0.00000  Uiso   1.00
C22    C     0.15961   0.18126   0.48906   0.00000  Uiso   1.00
C23    C     0.14965   0.16544   0.44756   0.00000  Uiso   1.00
C24    C     0.17272   0.15402   0.01435   0.00000  Uiso   1.00
C25    C     0.17519   0.11163   0.49796   0.00000  Uiso   1.00
C26    C     0.16135   0.09594   0.45975   0.00000  Uiso   1.00
C27    C     0.14643   0.12169   0.43603   0.00000  Uiso   1.00
H28    H     0.20231   0.07490   0.08355   0.00000  Uiso   1.00
H29    H     0.23999   0.32092   0.18222   0.00000  Uiso   1.00
H30    H     0.20678   0.02534   0.17814   0.00000  Uiso   1.00
H31    H     0.23836   0.03411   0.21929   0.00000  Uiso   1.00
H32    H     0.12533   0.33047   0.28734   0.00000  Uiso   1.00
H33    H     0.16002   0.06279   0.44967   0.00000  Uiso   1.00
H34    H     0.19019   0.05183   0.00960   0.00000  Uiso   1.00
H35    H     0.17832   0.19771   0.07237   0.00000  Uiso   1.00
H36    H     0.13250   0.25756   0.41511   0.00000  Uiso   1.00
H37    H     0.16167   0.23791   0.03507   0.00000  Uiso   1.00
H38    H     0.14098   0.28210   0.48996   0.00000  Uiso   1.00
H39    H     0.01478   0.19438   0.21197   0.00000  Uiso   1.00
N40    N     0.29562   0.10949   0.32736   0.00000  Uiso   1.00
N41    N     0.10427   0.08450   0.37866   0.00000  Uiso   1.00
O42    O     0.16667   0.16667   0.25000   0.00000  Uiso   1.00
O43    O     0.15451   0.12637   0.15459   0.00000  Uiso   1.00
O44    O     0.12940   0.20391   0.34968   0.00000  Uiso   1.00
O45    O     0.20824   0.17759   0.14606   0.00000  Uiso   1.00
O46    O     0.17451   0.15880   0.34968   0.00000  Uiso   1.00
O47    O     0.17930   0.08019   0.28214   0.00000  Uiso   1.00
O48    O     0.14632   0.26085   0.27014   0.00000  Uiso   1.00
O49    O     0.07412   0.13291   0.23413   0.00000  Uiso   1.00
O50    O     0.26693   0.19272   0.21361   0.00000  Uiso   1.00
O51    O     0.07071   0.18878   0.28213   0.00000  Uiso   1.00
O52    O     0.25491   0.15226   0.27014   0.00000  Uiso   1.00
O53    O     0.13760   0.06944   0.23413   0.00000  Uiso   1.00
O54    O     0.20345   0.25620   0.21361   0.00000  Uiso   1.00
Zn55   Zn    0.19338   0.13994   0.28734   0.00000  Uiso   1.00
Zn56   Zn    0.13379   0.12458   0.21876   0.00000  Uiso   1.00
Zn57   Zn    0.21056   0.19775   0.20657   0.00000  Uiso   1.00
Zn58   Zn    0.12893   0.20439   0.28734   0.00000  Uiso   1.00
C59    C     0.38646   0.15991   0.25933   0.00000  Uiso   1.00
C60    C     0.51516   0.16688   0.05636   0.00000  Uiso   1.00
C61    C     0.52902   0.09734   0.06375   0.00000  Uiso   1.00
C62    C     0.61396   0.17361   0.24027   0.00000  Uiso   1.00
C63    C     0.47633   0.19408   0.41937   0.00000  Uiso   1.00
C64    C     0.65945   0.17583   0.23729   0.00000  Uiso   1.00
C65    C     0.34140   0.15595   0.26456   0.00000  Uiso   1.00
C66    C     0.51490   0.32287   0.23609   0.00000  Uiso   1.00
C67    C     0.48569   0.01166   0.26316   0.00000  Uiso   1.00
C68    C     0.48877   0.05595   0.26084   0.00000  Uiso   1.00
C69    C     0.51015   0.27796   0.24008   0.00000  Uiso   1.00
C70    C     0.47720   0.24983   0.47802   0.00000  Uiso   1.00
C71    C     0.51860   0.14772   0.12942   0.00000  Uiso   1.00
C72    C     0.48153   0.18419   0.37090   0.00000  Uiso   1.00
C73    C     0.52159   0.08419   0.02194   0.00000  Uiso   1.00
C74    C     0.52462   0.13831   0.08144   0.00000  Uiso   1.00
C75    C     0.47159   0.23547   0.43587   0.00000  Uiso   1.00
C76    C     0.64920   0.13013   0.29946   0.00000  Uiso   1.00
C77    C     0.55214   0.01018   0.20197   0.00000  Uiso   1.00
C78    C     0.45639   0.10110   0.40407   0.00000  Uiso   1.00
C79    C     0.48912   0.22369   0.00379   0.00000  Uiso   1.00
C80    C     0.49294   0.18126   0.48906   0.00000  Uiso   1.00
C81    C     0.48298   0.16544   0.44756   0.00000  Uiso   1.00
C82    C     0.50605   0.15402   0.01435   0.00000  Uiso   1.00
C83    C     0.50852   0.11163   0.49796   0.00000  Uiso   1.00
C84    C     0.49469   0.09594   0.45975   0.00000  Uiso   1.00
C85    C     0.47977   0.12169   0.43603   0.00000  Uiso   1.00
H86    H     0.53565   0.07490   0.08355   0.00000  Uiso   1.00
H87    H     0.57332   0.32092   0.18222   0.00000  Uiso   1.00
H88    H     0.54011   0.02534   0.17814   0.00000  Uiso   1.00
H89    H     0.57170   0.03411   0.21929   0.00000  Uiso   1.00
H90    H     0.45866   0.33047   0.28734   0.00000  Uiso   1.00
H91    H     0.49335   0.06279   0.44967   0.00000  Uiso   1.00
H92    H     0.52353   0.05183   0.00960   0.00000  Uiso   1.00
H93    H     0.51165   0.19771   0.07237   0.00000  Uiso   1.00
H94    H     0.46583   0.25756   0.41511   0.00000  Uiso   1.00
H95    H     0.49500   0.23791   0.03507   0.00000  Uiso   1.00
H96    H     0.47431   0.28210   0.48996   0.00000  Uiso   1.00
H97    H     0.34811   0.19438   0.21197   0.00000  Uiso   1.00
N98    N     0.62895   0.10949   0.32736   0.00000  Uiso   1.00
N99    N     0.43761   0.08450   0.37866   0.00000  Uiso   1.00
O100   O     0.50000   0.16667   0.25000   0.00000  Uiso   1.00
O101   O     0.48784   0.12637   0.15459   0.00000  Uiso   1.00
O102   O     0.46274   0.20391   0.34968   0.00000  Uiso   1.00
O103   O     0.54157   0.17759   0.14606   0.00000  Uiso   1.00
O104   O     0.50785   0.15880   0.34968   0.00000  Uiso   1.00
O105   O     0.51264   0.08019   0.28214   0.00000  Uiso   1.00
O106   O     0.47965   0.26085   0.27014   0.00000  Uiso   1.00
O107   O     0.40745   0.13291   0.23413   0.00000  Uiso   1.00
O108   O     0.60026   0.19272   0.21361   0.00000  Uiso   1.00
O109   O     0.40405   0.18878   0.28213   0.00000  Uiso   1.00
O110   O     0.58824   0.15226   0.27014   0.00000  Uiso   1.00
O111   O     0.47093   0.06944   0.23413   0.00000  Uiso   1.00
O112   O     0.53678   0.25620   0.21361   0.00000  Uiso   1.00
Zn113  Zn    0.52672   0.13994   0.28734   0.00000  Uiso   1.00
Zn114  Zn    0.46713   0.12458   0.21876   0.00000  Uiso   1.00
Zn115  Zn    0.54389   0.19775   0.20657   0.00000  Uiso   1.00
Zn116  Zn    0.46226   0.20439   0.28734   0.00000  Uiso   1.00
C117   C     0.71979   0.15991   0.25933   0.00000  Uiso   1.00
C118   C     0.84849   0.16688   0.05636   0.00000  Uiso   1.00
C119   C     0.86236   0.09734   0.06375   0.00000  Uiso   1.00
C120   C     0.94730   0.17361   0.24027   0.00000  Uiso   1.00
C121   C     0.80966   0.19408   0.41937   0.00000  Uiso   1.00
C122   C     0.99278   0.17583   0.23729   0.00000  Uiso   1.00
C123   C     0.67473   0.15595   0.26456   0.00000  Uiso   1.00
C124   C     0.84823   0.32287   0.23609   0.00000  Uiso   1.00
C125   C     0.81902   0.01166   0.26316   0.00000  Uiso   1.00
C126   C     0.82210   0.05595   0.26084   0.00000  Uiso   1.00
C127   C     0.84348   0.27796   0.24008   0.00000  Uiso   1.00
C128   C     0.81053   0.24983   0.47802   0.00000  Uiso   1.00
C129   C     0.85193   0.14772   0.12942   0.00000  Uiso   1.00
C130   C     0.81486   0.18419   0.37090   0.00000  Uiso   1.00
C131   C     0.85493   0.08419   0.02194   0.00000  Uiso   1.00
C132   C     0.85795   0.13831   0.08144   0.00000  Uiso   1.00
C133   C     0.80492   0.23547   0.43587   0.00000  Uiso   1.00
C134   C     0.98253   0.13013   0.29946   0.00000  Uiso   1.00
C135   C     0.88547   0.01018   0.20197   0.00000  Uiso   1.00
C136   C     0.78973   0.10110   0.40407   0.00000  Uiso   1.00
C137   C     0.82245   0.22369   0.00379   0.00000  Uiso   1.00
C138   C     0.82628   0.18126   0.48906   0.00000  Uiso   1.00
C139   C     0.81632   0.16544   0.44756   0.00000  Uiso   1.00
C140   C     0.83938   0.15402   0.01435   0.00000  Uiso   1.00
C141   C     0.84185   0.11163   0.49796   0.00000  Uiso   1.00
C142   C     0.82802   0.09594   0.45975   0.00000  Uiso   1.00
C143   C     0.81310   0.12169   0.43603   0.00000  Uiso   1.00
H144   H     0.86898   0.07490   0.08355   0.00000  Uiso   1.00
H145   H     0.90665   0.32092   0.18222   0.00000  Uiso   1.00
H146   H     0.87344   0.02534   0.17814   0.00000  Uiso   1.00
H147   H     0.90503   0.03411   0.21929   0.00000  Uiso   1.00
H148   H     0.79199   0.33047   0.28734   0.00000  Uiso   1.00
H149   H     0.82669   0.06279   0.44967   0.00000  Uiso   1.00
H150   H     0.85686   0.05183   0.00960   0.00000  Uiso   1.00
H151   H     0.84499   0.19771   0.07237   0.00000  Uiso   1.00
H152   H     0.79916   0.25756   0.41511   0.00000  Uiso   1.00
H153   H     0.82833   0.23791   0.03507   0.00000  Uiso   1.00
H154   H     0.80765   0.28210   0.48996   0.00000  Uiso   1.00
H155   H     0.68145   0.19438   0.21197   0.00000  Uiso   1.00
N156   N     0.96229   0.10949   0.32736   0.00000  Uiso   1.00
N157   N     0.77094   0.08450   0.37866   0.00000  Uiso   1.00
O158   O     0.83333   0.16667   0.25000   0.00000  Uiso   1.00
O159   O     0.82118   0.12637   0.15459   0.00000  Uiso   1.00
O160   O     0.79607   0.20391   0.34968   0.00000  Uiso   1.00
O161   O     0.87491   0.17759   0.14606   0.00000  Uiso   1.00
O162   O     0.84118   0.15880   0.34968   0.00000  Uiso   1.00
O163   O     0.84597   0.08019   0.28214   0.00000  Uiso   1.00
O164   O     0.81298   0.26085   0.27014   0.00000  Uiso   1.00
O165   O     0.74078   0.13291   0.23413   0.00000  Uiso   1.00
O166   O     0.93360   0.19272   0.21361   0.00000  Uiso   1.00
O167   O     0.73738   0.18878   0.28213   0.00000  Uiso   1.00
O168   O     0.92158   0.15226   0.27014   0.00000  Uiso   1.00
O169   O     0.80426   0.06944   0.23413   0.00000  Uiso   1.00
O170   O     0.87012   0.25620   0.21361   0.00000  Uiso   1.00
Zn171  Zn    0.86005   0.13994   0.28734   0.00000  Uiso   1.00
Zn172  Zn    0.80046   0.12458   0.21876   0.00000  Uiso   1.00
Zn173  Zn    0.87723   0.19775   0.20657   0.00000  Uiso   1.00
Zn174  Zn    0.79560   0.20439   0.28734   0.00000  Uiso   1.00
C175   C     0.05312   0.49324   0.25933   0.00000  Uiso   1.00
C176   C     0.18183   0.50021   0.05636   0.00000  Uiso   1.00
C177   C     0.19569   0.43068   0.06375   0.00000  Uiso   1.00
C178   C     0.28063   0.50694   0.24027   0.00000  Uiso   1.00
C179   C     0.14300   0.52742   0.41937   0.00000  Uiso   1.00
C180   C     0.32611   0.50916   0.23729   0.00000  Uiso   1.00
C181   C     0.00807   0.48929   0.26456   0.00000  Uiso   1.00
C182   C     0.18156   0.65620   0.23609   0.00000  Uiso   1.00
C183   C     0.15236   0.34500   0.26316   0.00000  Uiso   1.00
C184   C     0.15543   0.38928   0.26084   0.00000  Uiso   1.00
C185   C     0.17682   0.61129   0.24008   0.00000  Uiso   1.00
C186   C     0.14387   0.58316   0.47802   0.00000  Uiso   1.00
C187   C     0.18526   0.48105   0.12942   0.00000  Uiso   1.00
C188   C     0.14819   0.51752   0.37090   0.00000  Uiso   1.00
C189   C     0.18826   0.41752   0.02194   0.00000  Uiso   1.00
C190   C     0.19129   0.47164   0.08144   0.00000  Uiso   1.00
C191   C     0.13826   0.56880   0.43587   0.00000  Uiso   1.00
C192   C     0.31586   0.46347   0.29946   0.00000  Uiso   1.00
C193   C     0.21880   0.34351   0.20197   0.00000  Uiso   1.00
C194   C     0.12306   0.43444   0.40407   0.00000  Uiso   1.00
C195   C     0.15578   0.55703   0.00379   0.00000  Uiso   1.00
C196   C     0.15961   0.51459   0.48906   0.00000  Uiso   1.00
C197   C     0.14965   0.49878   0.44756   0.00000  Uiso   1.00
C198   C     0.17272   0.48735   0.01435   0.00000  Uiso   1.00
C199   C     0.17519   0.44497   0.49796   0.00000  Uiso   1.00
C200   C     0.16135   0.42928   0.45975   0.00000  Uiso   1.00
C201   C     0.14643   0.45502   0.43603   0.00000  Uiso   1.00
H202   H     0.20231   0.40823   0.08355   0.00000  Uiso   1.00
H203   H     0.23999   0.65425   0.18222   0.00000  Uiso   1.00
H204   H     0.20678   0.35867   0.17814   0.00000  Uiso   1.00
H205   H     0.23836   0.36744   0.21929   0.00000  Uiso   1.00
H206   H     0.12533   0.66381   0.28734   0.00000  Uiso   1.00
H207   H     0.16002   0.39612   0.44967   0.00000  Uiso   1.00
H208   H     0.19019   0.38516   0.00960   0.00000  Uiso   1.00
H209   H     0.17832   0.53105   0.07237   0.00000  Uiso   1.00
H210   H     0.13250   0.59090   0.41511   0.00000  Uiso   1.00
H211   H     0.16167   0.57124   0.03507   0.00000  Uiso   1.00
H212   H     0.14098   0.61544   0.48996   0.00000  Uiso   1.00
H213   H     0.01478   0.52771   0.21197   0.00000  Uiso   1.00
N214   N     0.29562   0.44282   0.32736   0.00000  Uiso   1.00
N215   N     0.10427   0.41783   0.37866   0.00000  Uiso   1.00
O216   O     0.16667   0.50000   0.25000   0.00000  Uiso   1.00
O217   O     0.15451   0.45970   0.15459   0.00000  Uiso   1.00
O218   O     0.12940   0.53724   0.34968   0.00000  Uiso   1.00
O219   O     0.20824   0.51092   0.14606   0.00000  Uiso   1.00
O220   O     0.17451   0.49213   0.34968   0.00000  Uiso   1.00
O221   O     0.17930   0.41352   0.28214   0.00000  Uiso   1.00
O222   O     0.14632   0.59418   0.27014   0.00000  Uiso   1.00
O223   O     0.07412   0.46625   0.23413   0.00000  Uiso   1.00
O224   O     0.26693   0.52605   0.21361   0.00000  Uiso   1.00
O225   O     0.07071   0.52211   0.28213   0.00000  Uiso   1.00
O226   O     0.25491   0.48559   0.27014   0.00000  Uiso   1.00
O227   O     0.13760   0.40277   0.23413   0.00000  Uiso   1.00
O228   O     0.20345   0.58953   0.21361   0.00000  Uiso   1.00
Zn229  Zn    0.19338   0.47327   0.28734   0.00000  Uiso   1.00
Zn230  Zn    0.13379   0.45791   0.21876   0.00000  Uiso   1.00
Zn231  Zn    0.21056   0.53109   0.20657   0.00000  Uiso   1.00
Zn232  Zn    0.12893   0.53773   0.28734   0.00000  Uiso   1.00
C233   C     0.38646   0.49324   0.25933   0.00000  Uiso   1.00
C234   C     0.51516   0.50021   0.05636   0.00000  Uiso   1.00
C235   C     0.52902   0.43068   0.06375   0.00000  Uiso   1.00
C236   C     0.61396   0.50694   0.24027   0.00000  Uiso   1.00
C237   C     0.47633   0.52742   0.41937   0.00000  Uiso   1.00
C238   C     0.65945   0.50916   0.23729   0.00000  Uiso   1.00
C239   C     0.34140   0.48929   0.26456   0.00000  Uiso   1.00
C240   C     0.51490   0.65620   0.23609   0.00000  Uiso   1.00
C241   C     0.48569   0.34500   0.26316   0.00000  Uiso   1.00
C242   C     0.48877   0.38928   0.26084   0.00000  Uiso   1.00
C243   C     0.51015   0.61129   0.24008   0.00000  Uiso   1.00
C244   C     0.47720   0.58316   0.47802   0.00000  Uiso   1.00
C245   C     0.51860   0.48105   0.12942   0.00000  Uiso   1.00
C246   C     0.48153   0.51752   0.37090   0.00000  Uiso   1.00
C247   C     0.52159   0.41752   0.02194   0.00000  Uiso   1.00
C248   C     0.52462   0.47164   0.08144   0.00000  Uiso   1.00
C249   C     0.47159   0.56880   0.43587   0.00000  Uiso   1.00
C250   C     0.64920   0.46347   0.29946   0.00000  Uiso   1.00
C251   C     0.55214   0.34351   0.20197   0.00000  Uiso   1.00
C252   C     0.45639   0.43444   0.40407   0.00000  Uiso   1.00
C253   C     0.48912   0.55703   0.00379   0.00000  Uiso   1.00
C254   C     0.49294   0.51459   0.48906   0.00000  Uiso   1.00
C255   C     0.48298   0.49878   0.44756   0.00000  Uiso   1.00
C256   C     0.50605   0.48735   0.01435   0.00000  Uiso   1.00
C257   C     0.50852   0.44497   0.49796   0.00000  Uiso   1.00
C258   C     0.49469   0.42928   0.45975   0.00000  Uiso   1.00
C259   C     0.47977   0.45502   0.43603   0.00000  Uiso   1.00
H260   H     0.53565   0.40823   0.08355   0.00000  Uiso   1.00
H261   H     0.57332   0.65425   0.18222   0.00000  Uiso   1.00
H262   H     0.54011   0.35867   0.17814   0.00000  Uiso   1.00
H263   H     0.57170   0.36744   0.21929   0.00000  Uiso   1.00
H264   H     0.45866   0.66381   0.28734   0.00000  Uiso   1.00
H265   H     0.49335   0.39612   0.44967   0.00000  Uiso   1.00
H266   H     0.52353   0.38516   0.00960   0.00000  Uiso   1.00
H267   H     0.51165   0.53105   0.07237   0.00000  Uiso   1.00
H268   H     0.46583   0.59090   0.41511   0.00000  Uiso   1.00
H269   H     0.49500   0.57124   0.03507   0.00000  Uiso   1.00
H270   H     0.47431   0.61544   0.48996   0.00000  Uiso   1.00
H271   H     0.34811   0.52771   0.21197   0.00000  Uiso   1.00
N272   N     0.62895   0.44282   0.32736   0.00000  Uiso   1.00
N273   N     0.43761   0.41783   0.37866   0.00000  Uiso   1.00
O274   O     0.50000   0.50000   0.25000   0.00000  Uiso   1.00
O275   O     0.48784   0.45970   0.15459   0.00000  Uiso   1.00
O276   O     0.46274   0.53724   0.34968   0.00000  Uiso   1.00
O277   O     0.54157   0.51092   0.14606   0.00000  Uiso   1.00
O278   O     0.50785   0.49213   0.34968   0.00000  Uiso   1.00
O279   O     0.51264   0.41352   0.28214   0.00000  Uiso   1.00
O280   O     0.47965   0.59418   0.27014   0.00000  Uiso   1.00
O281   O     0.40745   0.46625   0.23413   0.00000  Uiso   1.00
O282   O     0.60026   0.52605   0.21361   0.00000  Uiso   1.00
O283   O     0.40405   0.52211   0.28213   0.00000  Uiso   1.00
O284   O     0.58824   0.48559   0.27014   0.00000  Uiso   1.00
O285   O     0.47093   0.40277   0.23413   0.00000  Uiso   1.00
O286   O     0.53678   0.58953   0.21361   0.00000  Uiso   1.00
Zn287  Zn    0.52672   0.47327   0.28734   0.00000  Uiso   1.00
Zn288  Zn    0.46713   0.45791   0.21876   0.00000  Uiso   1.00
Zn289  Zn    0.54389   0.53109   0.20657   0.00000  Uiso   1.00
Zn290  Zn    0.46226   0.53773   0.28734   0.00000  Uiso   1.00
C291   C     0.71979   0.49324   0.25933   0.00000  Uiso   1.00
C292   C     0.84849   0.50021   0.05636   0.00000  Uiso   1.00
C293   C     0.86236   0.43068   0.06375   0.00000  Uiso   1.00
C294   C     0.94730   0.50694   0.24027   0.00000  Uiso   1.00
C295   C     0.80966   0.52742   0.41937   0.00000  Uiso   1.00
C296   C     0.99278   0.50916   0.23729   0.00000  Uiso   1.00
C297   C     0.67473   0.48929   0.26456   0.00000  Uiso   1.00
C298   C     0.84823   0.65620   0.23609   0.00000  Uiso   1.00
C299   C     0.81902   0.34500   0.26316   0.00000  Uiso   1.00
C300   C     0.82210   0.38928   0.26084   0.00000  Uiso   1.00
C301   C     0.84348   0.61129   0.24008   0.00000  Uiso   1.00
C302   C     0.81053   0.58316   0.47802   0.00000  Uiso   1.00
C303   C     0.85193   0.48105   0.12942   0.00000  Uiso   1.00
C304   C     0.81486   0.51752   0.37090   0.00000  Uiso   1.00
C305   C     0.85493   0.41752   0.02194   0.00000  Uiso   1.00
C306   C     0.85795   0.47164   0.08144   0.00000  Uiso   1.00
C307   C     0.80492   0.56880   0.43587   0.00000  Uiso   1.00
C308   C     0.98253   0.46347   0.29946   0.00000  Uiso   1.00
C309   C     0.88547   0.34351   0.20197   0.00000  Uiso   1.00
C310   C     0.78973   0.43444   0.40407   0.00000  Uiso   1.00
C311   C     0.82245   0.55703   0.00379   0.00000  Uiso   1.00
C312   C     0.82628   0.51459   0.48906   0.00000  Uiso   1.00
C313   C     0.81632   0.49878   0.44756   0.00000  Uiso   1.00
C314   C     0.83938   0.48735   0.01435   0.00000  Uiso   1.00
C315   C     0.84185   0.44497   0.49796   0.00000  Uiso   1.00
C316   C     0.82802   0.42928   0.45975   0.00000  Uiso   1.00
C317   C     0.81310   0.45502   0.43603   0.00000  Uiso   1.00
H318   H     0.86898   0.40823   0.08355   0.00000  Uiso   1.00
H319   H     0.90665   0.65425   0.18222   0.00000  Uiso   1.00
H320   H     0.87344   0.35867   0.17814   0.00000  Uiso   1.00
H321   H     0.90503   0.36744   0.21929   0.00000  Uiso   1.00
H322   H     0.79199   0.66381   0.28734   0.00000  Uiso   1.00
H323   H     0.82669   0.39612   0.44967   0.00000  Uiso   1.00
H324   H     0.85686   0.38516   0.00960   0.00000  Uiso   1.00
H325   H     0.84499   0.53105   0.07237   0.00000  Uiso   1.00
H326   H     0.79916   0.59090   0.41511   0.00000  Uiso   1.00
H327   H     0.82833   0.57124   0.03507   0.00000  Uiso   1.00
H328   H     0.80765   0.61544   0.48996   0.00000  Uiso   1.00
H329   H     0.68145   0.52771   0.21197   0.00000  Uiso   1.00
N330   N     0.96229   0.44282   0.32736   0.00000  Uiso   1.00
N331   N     0.77094   0.41783   0.37866   0.00000  Uiso   1.00
O332   O     0.83333   0.50000   0.25000   0.00000  Uiso   1.00
O333   O     0.82118   0.45970   0.15459   0.00000  Uiso   1.00
O334   O     0.79607   0.53724   0.34968   0.00000  Uiso   1.00
O335   O     0.87491   0.51092   0.14606   0.00000  Uiso   1.00
O336   O     0.84118   0.49213   0.34968   0.00000  Uiso   1.00
O337   O     0.84597   0.41352   0.28214   0.00000  Uiso   1.00
O338   O     0.81298   0.59418   0.27014   0.00000  Uiso   1.00
O339   O     0.74078   0.46625   0.23413   0.00000  Uiso   1.00
O340   O     0.93360   0.52605   0.21361   0.00000  Uiso   1.00
O341   O     0.73738   0.52211   0.28213   0.00000  Uiso   1.00
O342   O     0.92158   0.48559   0.27014   0.00000  Uiso   1.00
O343   O     0.80426   0.40277   0.23413   0.00000  Uiso   1.00
O344   O     0.87012   0.58953   0.21361   0.00000  Uiso   1.00
Zn345  Zn    0.86005   0.47327   0.28734   0.00000  Uiso   1.00
Zn346  Zn    0.80046   0.45791   0.21876   0.00000  Uiso   1.00
Zn347  Zn    0.87723   0.53109   0.20657   0.00000  Uiso   1.00
Zn348  Zn    0.79560   0.53773   0.28734   0.00000  Uiso   1.00
C349   C     0.05312   0.82658   0.25933   0.00000  Uiso   1.00
C350   C     0.18183   0.83354   0.05636   0.00000  Uiso   1.00
C351   C     0.19569   0.76401   0.06375   0.00000  Uiso   1.00
C352   C     0.28063   0.84028   0.24027   0.00000  Uiso   1.00
C353   C     0.14300   0.86075   0.41937   0.00000  Uiso   1.00
C354   C     0.32611   0.84250   0.23729   0.00000  Uiso   1.00
C355   C     0.00807   0.82262   0.26456   0.00000  Uiso   1.00
C356   C     0.18156   0.98954   0.23609   0.00000  Uiso   1.00
C357   C     0.15236   0.67833   0.26316   0.00000  Uiso   1.00
C358   C     0.15543   0.72261   0.26084   0.00000  Uiso   1.00
C359   C     0.17682   0.94463   0.24008   0.00000  Uiso   1.00
C360   C     0.14387   0.91649   0.47802   0.00000  Uiso   1.00
C361   C     0.18526   0.81439   0.12942   0.00000  Uiso   1.00
C362   C     0.14819   0.85085   0.37090   0.00000  Uiso   1.00
C363   C     0.18826   0.75085   0.02194   0.00000  Uiso   1.00
C364   C     0.19129   0.80498   0.08144   0.00000  Uiso   1.00
C365   C     0.13826   0.90214   0.43587   0.00000  Uiso   1.00
C366   C     0.31586   0.79680   0.29946   0.00000  Uiso   1.00
C367   C     0.21880   0.67684   0.20197   0.00000  Uiso   1.00
C368   C     0.12306   0.76777   0.40407   0.00000  Uiso   1.00
C369   C     0.15578   0.89036   0.00379   0.00000  Uiso   1.00
C370   C     0.15961   0.84793   0.48906   0.00000  Uiso   1.00
C371   C     0.14965   0.83211   0.44756   0.00000  Uiso   1.00
C372   C     0.17272   0.82068   0.01435   0.00000  Uiso   1.00
C373   C     0.17519   0.77830   0.49796   0.00000  Uiso   1.00
C374   C     0.16135   0.76261   0.45975   0.00000  Uiso   1.00
C375   C     0.14643   0.78835   0.43603   0.00000  Uiso   1.00
H376   H     0.20231   0.74156   0.08355   0.00000  Uiso   1.00
H377   H     0.23999   0.98759   0.18222   0.00000  Uiso   1.00
H378   H     0.20678   0.69200   0.17814   0.00000  Uiso   1.00
H379   H     0.23836   0.70077   0.21929   0.00000  Uiso   1.00
H380   H     0.12533   0.99714   0.28734   0.00000  Uiso   1.00
H381   H     0.16002   0.72946   0.44967   0.00000  Uiso   1.00
H382   H     0.19019   0.71850   0.00960   0.00000  Uiso   1.00
H383   H     0.17832   0.86438   0.07237   0.00000  Uiso   1.00
H384   H     0.13250   0.92423   0.41511   0.00000  Uiso   1.00
H385   H     0.16167   0.90458   0.03507   0.00000  Uiso   1.00
H386   H     0.14098   0.94877   0.48996   0.00000  Uiso   1.00
H387   H     0.01478   0.86105   0.21197   0.00000  Uiso   1.00
N388   N     0.29562   0.77616   0.32736   0.00000  Uiso   1.00
N389   N     0.10427   0.75116   0.37866   0.00000  Uiso   1.00
O390   O     0.16667   0.83333   0.25000   0.00000  Uiso   1.00
O391   O     0.15451   0.79304   0.15459   0.00000  Uiso   1.00
O392   O     0.12940   0.87058   0.34968   0.00000  Uiso   1.00
O393   O     0.20824   0.84425   0.14606   0.00000  Uiso   1.00
O394   O     0.17451   0.82546   0.34968   0.00000  Uiso   1.00
O395   O     0.17930   0.74686   0.28214   0.00000  Uiso   1.00
O396   O     0.14632   0.92751   0.27014   0.00000  Uiso   1.00
O397   O     0.07412   0.79958   0.23413   0.00000  Uiso   1.00
O398   O     0.26693   0.85939   0.21361   0.00000  Uiso   1.00
O399   O     0.07071   0.85544   0.28213   0.00000  Uiso   1.00
O400   O     0.25491   0.81892   0.27014   0.00000  Uiso   1.00
O401   O     0.13760   0.73610   0.23413   0.00000  Uiso   1.00
O402   O     0.20345   0.92286   0.21361   0.00000  Uiso   1.00
Zn403  Zn    0.19338   0.80661   0.28734   0.00000  Uiso   1.00
Zn404  Zn    0.13379   0.79124   0.21876   0.00000  Uiso   1.00
Zn405  Zn    0.21056   0.86442   0.20657   0.00000  Uiso   1.00
Zn406  Zn    0.12893   0.87106   0.28734   0.00000  Uiso   1.00
C407   C     0.38646   0.82658   0.25933   0.00000  Uiso   1.00
C408   C     0.51516   0.83354   0.05636   0.00000  Uiso   1.00
C409   C     0.52902   0.76401   0.06375   0.00000  Uiso   1.00
C410   C     0.61396   0.84028   0.24027   0.00000  Uiso   1.00
C411   C     0.47633   0.86075   0.41937   0.00000  Uiso   1.00
C412   C     0.65945   0.84250   0.23729   0.00000  Uiso   1.00
C413   C     0.34140   0.82262   0.26456   0.00000  Uiso   1.00
C414   C     0.51490   0.98954   0.23609   0.00000  Uiso   1.00
C415   C     0.48569   0.67833   0.26316   0.00000  Uiso   1.00
C416   C     0.48877   0.72261   0.26084   0.00000  Uiso   1.00
C417   C     0.51015   0.94463   0.24008   0.00000  Uiso   1.00
C418   C     0.47720   0.91649   0.47802   0.00000  Uiso   1.00
C419   C     0.51860   0.81439   0.12942   0.00000  Uiso   1.00
C420   C     0.48153   0.85085   0.37090   0.00000  Uiso   1.00
C421   C     0.52159   0.75085   0.02194   0.00000  Uiso   1.00
C422   C     0.52462   0.80498   0.08144   0.00000  Uiso   1.00
C423   C     0.47159   0.90214   0.43587   0.00000  Uiso   1.00
C424   C     0.64920   0.79680   0.29946   0.00000  Uiso   1.00
C425   C     0.55214   0.67684   0.20197   0.00000  Uiso   1.00
C426   C     0.45639   0.76777   0.40407   0.00000  Uiso   1.00
C427   C     0.48912   0.89036   0.00379   0.00000  Uiso   1.00
C428   C     0.49294   0.84793   0.48906   0.00000  Uiso   1.00
C429   C     0.48298   0.83211   0.44756   0.00000  Uiso   1.00
C430   C     0.50605   0.82068   0.01435   0.00000  Uiso   1.00
C431   C     0.50852   0.77830   0.49796   0.00000  Uiso   1.00
C432   C     0.49469   0.76261   0.45975   0.00000  Uiso   1.00
C433   C     0.47977   0.78835   0.43603   0.00000  Uiso   1.00
H434   H     0.53565   0.74156   0.08355   0.00000  Uiso   1.00
H435   H     0.57332   0.98759   0.18222   0.00000  Uiso   1.00
H436   H     0.54011   0.69200   0.17814   0.00000  Uiso   1.00
H437   H     0.57170   0.70077   0.21929   0.00000  Uiso   1.00
H438   H     0.45866   0.99714   0.28734   0.00000  Uiso   1.00
H439   H     0.49335   0.72946   0.44967   0.00000  Uiso   1.00
H440   H     0.52353   0.71850   0.00960   0.00000  Uiso   1.00
H441   H     0.51165   0.86438   0.07237   0.00000  Uiso   1.00
H442   H     0.46583   0.92423   0.41511   0.00000  Uiso   1.00
H443   H     0.49500   0.90458   0.03507   0.00000  Uiso   1.00
H444   H     0.47431   0.94877   0.48996   0.00000  Uiso   1.00
H445   H     0.34811   0.86105   0.21197   0.00000  Uiso   1.00
N446   N     0.62895   0.77616   0.32736   0.00000  Uiso   1.00
N447   N     0.43761   0.75116   0.37866   0.00000  Uiso   1.00
O448   O     0.50000   0.83333   0.25000   0.00000  Uiso   1.00
O449   O     0.48784   0.79304   0.15459   0.00000  Uiso   1.00
O450   O     0.46274   0.87058   0.34968   0.00000  Uiso   1.00
O451   O     0.54157   0.84425   0.14606   0.00000  Uiso   1.00
O452   O     0.50785   0.82546   0.34968   0.00000  Uiso   1.00
O453   O     0.51264   0.74686   0.28214   0.00000  Uiso   1.00
O454   O     0.47965   0.92751   0.27014   0.00000  Uiso   1.00
O455   O     0.40745   0.79958   0.23413   0.00000  Uiso   1.00
O456   O     0.60026   0.85939   0.21361   0.00000  Uiso   1.00
O457   O     0.40405   0.85544   0.28213   0.00000  Uiso   1.00
O458   O     0.58824   0.81892   0.27014   0.00000  Uiso   1.00
O459   O     0.47093   0.73610   0.23413   0.00000  Uiso   1.00
O460   O     0.53678   0.92286   0.21361   0.00000  Uiso   1.00
Zn461  Zn    0.52672   0.80661   0.28734   0.00000  Uiso   1.00
Zn462  Zn    0.46713   0.79124   0.21876   0.00000  Uiso   1.00
Zn463  Zn    0.54389   0.86442   0.20657   0.00000  Uiso   1.00
Zn464  Zn    0.46226   0.87106   0.28734   0.00000  Uiso   1.00
C465   C     0.71979   0.82658   0.25933   0.00000  Uiso   1.00
C466   C     0.84849   0.83354   0.05636   0.00000  Uiso   1.00
C467   C     0.86236   0.76401   0.06375   0.00000  Uiso   1.00
C468   C     0.94730   0.84028   0.24027   0.00000  Uiso   1.00
C469   C     0.80966   0.86075   0.41937   0.00000  Uiso   1.00
C470   C     0.99278   0.84250   0.23729   0.00000  Uiso   1.00
C471   C     0.67473   0.82262   0.26456   0.00000  Uiso   1.00
C472   C     0.84823   0.98954   0.23609   0.00000  Uiso   1.00
C473   C     0.81902   0.67833   0.26316   0.00000  Uiso   1.00
C474   C     0.82210   0.72261   0.26084   0.00000  Uiso   1.00
C475   C     0.84348   0.94463   0.24008   0.00000  Uiso   1.00
C476   C     0.81053   0.91649   0.47802   0.00000  Uiso   1.00
C477   C     0.85193   0.81439   0.12942   0.00000  Uiso   1.00
C478   C     0.81486   0.85085   0.37090   0.00000  Uiso   1.00
C479   C     0.85493   0.75085   0.02194   0.00000  Uiso   1.00
C480   C     0.85795   0.80498   0.08144   0.00000  Uiso   1.00
C481   C     0.80492   0.90214   0.43587   0.00000  Uiso   1.00
C482   C     0.98253   0.79680   0.29946   0.00000  Uiso   1.00
C483   C     0.88547   0.67684   0.20197   0.00000  Uiso   1.00
C484   C     0.78973   0.76777   0.40407   0.00000  Uiso   1.00
C485   C     0.82245   0.89036   0.00379   0.00000  Uiso   1.00
C486   C     0.82628   0.84793   0.48906   0.00000  Uiso   1.00
C487   C     0.81632   0.83211   0.44756   0.00000  Uiso   1.00
C488   C     0.83938   0.82068   0.01435   0.00000  Uiso   1.00
C489   C     0.84185   0.77830   0.49796   0.00000  Uiso   1.00
C490   C     0.82802   0.76261   0.45975   0.00000  Uiso   1.00
C491   C     0.81310   0.78835   0.43603   0.00000  Uiso   1.00
H492   H     0.86898   0.74156   0.08355   0.00000  Uiso   1.00
H493   H     0.90665   0.98759   0.18222   0.00000  Uiso   1.00
H494   H     0.87344   0.69200   0.17814   0.00000  Uiso   1.00
H495   H     0.90503   0.70077   0.21929   0.00000  Uiso   1.00
H496   H     0.79199   0.99714   0.28734   0.00000  Uiso   1.00
H497   H     0.82669   0.72946   0.44967   0.00000  Uiso   1.00
H498   H     0.85686   0.71850   0.00960   0.00000  Uiso   1.00
H499   H     0.84499   0.86438   0.07237   0.00000  Uiso   1.00
H500   H     0.79916   0.92423   0.41511   0.00000  Uiso   1.00
H501   H     0.82833   0.90458   0.03507   0.00000  Uiso   1.00
H502   H     0.80765   0.94877   0.48996   0.00000  Uiso   1.00
H503   H     0.68145   0.86105   0.21197   0.00000  Uiso   1.00
N504   N     0.96229   0.77616   0.32736   0.00000  Uiso   1.00
N505   N     0.77094   0.75116   0.37866   0.00000  Uiso   1.00
O506   O     0.83333   0.83333   0.25000   0.00000  Uiso   1.00
O507   O     0.82118   0.79304   0.15459   0.00000  Uiso   1.00
O508   O     0.79607   0.87058   0.34968   0.00000  Uiso   1.00
O509   O     0.87491   0.84425   0.14606   0.00000  Uiso   1.00
O510   O     0.84118   0.82546   0.34968   0.00000  Uiso   1.00
O511   O     0.84597   0.74686   0.28214   0.00000  Uiso   1.00
O512   O     0.81298   0.92751   0.27014   0.00000  Uiso   1.00
O513   O     0.74078   0.79958   0.23413   0.00000  Uiso   1.00
O514   O     0.93360   0.85939   0.21361   0.00000  Uiso   1.00
O515   O     0.73738   0.85544   0.28213   0.00000  Uiso   1.00
O516   O     0.92158   0.81892   0.27014   0.00000  Uiso   1.00
O517   O     0.80426   0.73610   0.23413   0.00000  Uiso   1.00
O518   O     0.87012   0.92286   0.21361   0.00000  Uiso   1.00
Zn519  Zn    0.86005   0.80661   0.28734   0.00000  Uiso   1.00
Zn520  Zn    0.80046   0.79124   0.21876   0.00000  Uiso   1.00
Zn521  Zn    0.87723   0.86442   0.20657   0.00000  Uiso   1.00
Zn522  Zn    0.79560   0.87106   0.28734   0.00000  Uiso   1.00
C523   C     0.05312   0.15991   0.75933   0.00000  Uiso   1.00
C524   C     0.18183   0.16688   0.55636   0.00000  Uiso   1.00
C525   C     0.19569   0.09734   0.56375   0.00000  Uiso   1.00
C526   C     0.28063   0.17361   0.74027   0.00000  Uiso   1.00
C527   C     0.14300   0.19408   0.91937   0.00000  Uiso   1.00
C528   C     0.32611   0.17583   0.73729   0.00000  Uiso   1.00
C529   C     0.00807   0.15595   0.76456   0.00000  Uiso   1.00
C530   C     0.18156   0.32287   0.73609   0.00000  Uiso   1.00
C531   C     0.15236   0.01166   0.76316   0.00000  Uiso   1.00
C532   C     0.15543   0.05595   0.76084   0.00000  Uiso   1.00
C533   C     0.17682   0.27796   0.74008   0.00000  Uiso   1.00
C534   C     0.14387   0.24983   0.97802   0.00000  Uiso   1.00
C535   C     0.18526   0.14772   0.62942   0.00000  Uiso   1.00
C536   C     0.14819   0.18419   0.87090   0.00000  Uiso   1.00
C537   C     0.18826   0.08419   0.52194   0.00000  Uiso   1.00
C538   C     0.19129   0.13831   0.58144   0.00000  Uiso   1.00
C539   C     0.13826   0.23547   0.93587   0.00000  Uiso   1.00
C540   C     0.31586   0.13013   0.79946   0.00000  Uiso   1.00
C541   C     0.21880   0.01018   0.70197   0.00000  Uiso   1.00
C542   C     0.12306   0.10110   0.90407   0.00000  Uiso   1.00
C543   C     0.15578   0.22369   0.50379   0.00000  Uiso   1.00
C544   C     0.15961   0.18126   0.98906   0.00000  Uiso   1.00
C545   C     0.14965   0.16544   0.94756   0.00000  Uiso   1.00
C546   C     0.17272   0.15402   0.51435   0.00000  Uiso   1.00
C547   C     0.17519   0.11163   0.99796   0.00000  Uiso   1.00
C548   C     0.16135   0.09594   0.95975   0.00000  Uiso   1.00
C549   C     0.14643   0.12169   0.93603   0.00000  Uiso   1.00
H550   H     0.20231   0.07490   0.58355   0.00000  Uiso   1.00
H551   H     0.23999   0.32092   0.68222   0.00000  Uiso   1.00
H552   H     0.20678   0.02534   0.67814   0.00000  Uiso   1.00
H553   H     0.23836   0.03411   0.71929   0.00000  Uiso   1.00
H554   H     0.12533   0.33047   0.78734   0.00000  Uiso   1.00
H555   H     0.16002   0.06279   0.94967   0.00000  Uiso   1.00
H556   H     0.19019   0.05183   0.50960   0.00000  Uiso   1.00
H557   H     0.17832   0.19771   0.57237   0.00000  Uiso   1.00
H558   H     0.13250   0.25756   0.91511   0.00000  Uiso   1.00
H559   H     0.16167   0.23791   0.53507   0.00000  Uiso   1.00
H560   H     0.14098   0.28210   0.98996   0.00000  Uiso   1.00
H561   H     0.01478   0.19438   0.71197   0.00000  Uiso   1.00
N562   N     0.29562   0.10949   0.82736   0.00000  Uiso   1.00
N563   N     0.10427   0.08450   0.87866   0.00000  Uiso   1.00
O564   O     0.16667   0.16667   0.75000   0.00000  Uiso   1.00
O565   O     0.15451   0.12637   0.65459   0.00000  Uiso   1.00
O566   O     0.12940   0.20391   0.84968   0.00000  Uiso   1.00
O567   O     0.20824   0.17759   0.64606   0.00000  Uiso   1.00
O568   O     0.17451   0.15880   0.84968   0.00000  Uiso   1.00
O569   O     0.17930   0.08019   0.78214   0.00000  Uiso   1.00
O570   O     0.14632   0.26085   0.77014   0.00000  Uiso   1.00
O571   O     0.07412   0.13291   0.73413   0.00000  Uiso   1.00
O572   O     0.26693   0.19272   0.71361   0.00000  Uiso   1.00
O573   O     0.07071   0.18878   0.78213   0.00000  Uiso   1.00
O574   O     0.25491   0.15226   0.77014   0.00000  Uiso   1.00
O575   O     0.13760   0.06944   0.73413   0.00000  Uiso   1.00
O576   O     0.20345   0.25620   0.71361   0.00000  Uiso   1.00
Zn577  Zn    0.19338   0.13994   0.78734   0.00000  Uiso   1.00
Zn578  Zn    0.13379   0.12458   0.71876   0.00000  Uiso   1.00
Zn579  Zn    0.21056   0.19775   0.70657   0.00000  Uiso   1.00
Zn580  Zn    0.12893   0.20439   0.78734   0.00000  Uiso   1.00
C581   C     0.38646   0.15991   0.75933   0.00000  Uiso   1.00
C582   C     0.51516   0.16688   0.55636   0.00000  Uiso   1.00
C583   C     0.52902   0.09734   0.56375   0.00000  Uiso   1.00
C584   C     0.61396   0.17361   0.74027   0.00000  Uiso   1.00
C585   C     0.47633   0.19408   0.91937   0.00000  Uiso   1.00
C586   C     0.65945   0.17583   0.73729   0.00000  Uiso   1.00
C587   C     0.34140   0.15595   0.76456   0.00000  Uiso   1.00
C588   C     0.51490   0.32287   0.73609   0.00000  Uiso   1.00
C589   C     0.48569   0.01166   0.76316   0.00000  Uiso   1.00
C590   C     0.48877   0.05595   0.76084   0.00000  Uiso   1.00
C591   C     0.51015   0.27796   0.74008   0.00000  Uiso   1.00
C592   C     0.47720   0.24983   0.97802   0.00000  Uiso   1.00
C593   C     0.51860   0.14772   0.62942   0.00000  Uiso   1.00
C594   C     0.48153   0.18419   0.87090   0.00000  Uiso   1.00
C595   C     0.52159   0.08419   0.52194   0.00000  Uiso   1.00
C596   C     0.52462   0.13831   0.58144   0.00000  Uiso   1.00
C597   C     0.47159   0.23547   0.93587   0.00000  Uiso   1.00
C598   C     0.64920   0.13013   0.79946   0.00000  Uiso   1.00
C599   C     0.55214   0.01018   0.70197   0.00000  Uiso   1.00
C600   C     0.45639   0.10110   0.90407   0.00000  Uiso   1.00
C601   C     0.48912   0.22369   0.50379   0.00000  Uiso   1.00
C602   C     0.49294   0.18126   0.98906   0.00000  Uiso   1.00
C603   C     0.48298   0.16544   0.94756   0.00000  Uiso   1.00
C604   C     0.50605   0.15402   0.51435   0.00000  Uiso   1.00
C605   C     0.50852   0.11163   0.99796   0.00000  Uiso   1.00
C606   C     0.49469   0.09594   0.95975   0.00000  Uiso   1.00
C607   C     0.47977   0.12169   0.93603   0.00000  Uiso   1.00
H608   H     0.53565   0.07490   0.58355   0.00000  Uiso   1.00
H609   H     0.57332   0.32092   0.68222   0.00000  Uiso   1.00
H610   H     0.54011   0.02534   0.67814   0.00000  Uiso   1.00
H611   H     0.57170   0.03411   0.71929   0.00000  Uiso   1.00
H612   H     0.45866   0.33047   0.78734   0.00000  Uiso   1.00
H613   H     0.49335   0.06279   0.94967   0.00000  Uiso   1.00
H614   H     0.52353   0.05183   0.50960   0.00000  Uiso   1.00
H615   H     0.51165   0.19771   0.57237   0.00000  Uiso   1.00
H616   H     0.46583   0.25756   0.91511   0.00000  Uiso   1.00
H617   H     0.49500   0.23791   0.53507   0.00000  Uiso   1.00
H618   H     0.47431   0.28210   0.98996   0.00000  Uiso   1.00
H619   H     0.34811   0.19438   0.71197   0.00000  Uiso   1.00
N620   N     0.62895   0.10949   0.82736   0.00000  Uiso   1.00
N621   N     0.43761   0.08450   0.87866   0.00000  Uiso   1.00
O622   O     0.50000   0.16667   0.75000   0.00000  Uiso   1.00
O623   O     0.48784   0.12637   0.65459   0.00000  Uiso   1.00
O624   O     0.46274   0.20391   0.84968   0.00000  Uiso   1.00
O625   O     0.54157   0.17759   0.64606   0.00000  Uiso   1.00
O626   O     0.50785   0.15880   0.84968   0.00000  Uiso   1.00
O627   O     0.51264   0.08019   0.78214   0.00000  Uiso   1.00
O628   O     0.47965   0.26085   0.77014   0.00000  Uiso   1.00
O629   O     0.40745   0.13291   0.73413   0.00000  Uiso   1.00
O630   O     0.60026   0.19272   0.71361   0.00000  Uiso   1.00
O631   O     0.40405   0.18878   0.78213   0.00000  Uiso   1.00
O632   O     0.58824   0.15226   0.77014   0.00000  Uiso   1.00
O633   O     0.47093   0.06944   0.73413   0.00000  Uiso   1.00
O634   O     0.53678   0.25620   0.71361   0.00000  Uiso   1.00
Zn635  Zn    0.52672   0.13994   0.78734   0.00000  Uiso   1.00
Zn636  Zn    0.46713   0.12458   0.71876   0.00000  Uiso   1.00
Zn637  Zn    0.54389   0.19775   0.70657   0.00000  Uiso   1.00
Zn638  Zn    0.46226   0.20439   0.78734   0.00000  Uiso   1.00
C639   C     0.71979   0.15991   0.75933   0.00000  Uiso   1.00
C640   C     0.84849   0.16688   0.55636   0.00000  Uiso   1.00
C641   C     0.86236   0.09734   0.56375   0.00000  Uiso   1.00
C642   C     0.94730   0.17361   0.74027   0.00000  Uiso   1.00
C643   C     0.80966   0.19408   0.91937   0.00000  Uiso   1.00
C644   C     0.99278   0.17583   0.73729   0.00000  Uiso   1.00
C645   C     0.67473   0.15595   0.76456   0.00000  Uiso   1.00
C646   C     0.84823   0.32287   0.73609   0.00000  Uiso   1.00
C647   C     0.81902   0.01166   0.76316   0.00000  Uiso   1.00
C648   C     0.82210   0.05595   0.76084   0.00000  Uiso   1.00
C649   C     0.84348   0.27796   0.74008   0.00000  Uiso   1.00
C650   C     0.81053   0.24983   0.97802   0.00000  Uiso   1.00
C651   C     0.85193   0.14772   0.62942   0.00000  Uiso   1.00
C652   C     0.81486   0.18419   0.87090   0.00000  Uiso   1.00
C653   C     0.85493   0.08419   0.52194   0.00000  Uiso   1.00
C654   C     0.85795   0.13831   0.58144   0.00000  Uiso   1.00
C655   C     0.80492   0.23547   0.93587   0.00000  Uiso   1.00
C656   C     0.98253   0.13013   0.79946   0.00000  Uiso   1.00
C657   C     0.88547   0.01018   0.70197   0.00000  Uiso   1.00
C658   C     0.78973   0.10110   0.90407   0.00000  Uiso   1.00
C659   C     0.82245   0.22369   0.50379   0.00000  Uiso   1.00
C660   C     0.82628   0.18126   0.98906   0.00000  Uiso   1.00
C661   C     0.81632   0.16544   0.94756   0.00000  Uiso   1.00
C662   C     0.83938   0.15402   0.51435   0.00000  Uiso   1.00
C663   C     0.84185   0.11163   0.99796   0.00000  Uiso   1.00
C664   C     0.82802   0.09594   0.95975   0.00000  Uiso   1.00
C665   C     0.81310   0.12169   0.93603   0.00000  Uiso   1.00
H666   H     0.86898   0.07490   0.58355   0.00000  Uiso   1.00
H667   H     0.90665   0.32092   0.68222   0.00000  Uiso   1.00
H668   H     0.87344   0.02534   0.67814   0.00000  Uiso   1.00
H669   H     0.90503   0.03411   0.71929   0.00000  Uiso   1.00
H670   H     0.79199   0.33047   0.78734   0.00000  Uiso   1.00
H671   H     0.82669   0.06279   0.94967   0.00000  Uiso   1.00
H672   H     0.85686   0.05183   0.50960   0.00000  Uiso   1.00
H673   H     0.84499   0.19771   0.57237   0.00000  Uiso   1.00
H674   H     0.79916   0.25756   0.91511   0.00000  Uiso   1.00
H675   H     0.82833   0.23791   0.53507   0.00000  Uiso   1.00
H676   H     0.80765   0.28210   0.98996   0.00000  Uiso   1.00
H677   H     0.68145   0.19438   0.71197   0.00000  Uiso   1.00
N678   N     0.96229   0.10949   0.82736   0.00000  Uiso   1.00
N679   N     0.77094   0.08450   0.87866   0.00000  Uiso   1.00
O680   O     0.83333   0.16667   0.75000   0.00000  Uiso   1.00
O681   O     0.82118   0.12637   0.65459   0.00000  Uiso   1.00
O682   O     0.79607   0.20391   0.84968   0.00000  Uiso   1.00
O683   O     0.87491   0.17759   0.64606   0.00000  Uiso   1.00
O684   O     0.84118   0.15880   0.84968   0.00000  Uiso   1.00
O685   O     0.84597   0.08019   0.78214   0.00000  Uiso   1.00
O686   O     0.81298   0.26085   0.77014   0.00000  Uiso   1.00
O687   O     0.74078   0.13291   0.73413   0.00000  Uiso   1.00
O688   O     0.93360   0.19272   0.71361   0.00000  Uiso   1.00
O689   O     0.73738   0.18878   0.78213   0.00000  Uiso   1.00
O690   O     0.92158   0.15226   0.77014   0.00000  Uiso   1.00
O691   O     0.80426   0.06944   0.73413   0.00000  Uiso   1.00
O692   O     0.87012   0.25620   0.71361   0.00000  Uiso   1.00
Zn693  Zn    0.86005   0.13994   0.78734   0.00000  Uiso   1.00
Zn694  Zn    0.80046   0.12458   0.71876   0.00000  Uiso   1.00
Zn695  Zn    0.87723   0.19775   0.70657   0.00000  Uiso   1.00
Zn696  Zn    0.79560   0.20439   0.78734   0.00000  Uiso   1.00
C697   C     0.05312   0.49324   0.75933   0.00000  Uiso   1.00
C698   C     0.18183   0.50021   0.55636   0.00000  Uiso   1.00
C699   C     0.19569   0.43068   0.56375   0.00000  Uiso   1.00
C700   C     0.28063   0.50694   0.74027   0.00000  Uiso   1.00
C701   C     0.14300   0.52742   0.91937   0.00000  Uiso   1.00
C702   C     0.32611   0.50916   0.73729   0.00000  Uiso   1.00
C703   C     0.00807   0.48929   0.76456   0.00000  Uiso   1.00
C704   C     0.18156   0.65620   0.73609   0.00000  Uiso   1.00
C705   C     0.15236   0.34500   0.76316   0.00000  Uiso   1.00
C706   C     0.15543   0.38928   0.76084   0.00000  Uiso   1.00
C707   C     0.17682   0.61129   0.74008   0.00000  Uiso   1.00
C708   C     0.14387   0.58316   0.97802   0.00000  Uiso   1.00
C709   C     0.18526   0.48105   0.62942   0.00000  Uiso   1.00
C710   C     0.14819   0.51752   0.87090   0.00000  Uiso   1.00
C711   C     0.18826   0.41752   0.52194   0.00000  Uiso   1.00
C712   C     0.19129   0.47164   0.58144   0.00000  Uiso   1.00
C713   C     0.13826   0.56880   0.93587   0.00000  Uiso   1.00
C714   C     0.31586   0.46347   0.79946   0.00000  Uiso   1.00
C715   C     0.21880   0.34351   0.70197   0.00000  Uiso   1.00
C716   C     0.12306   0.43444   0.90407   0.00000  Uiso   1.00
C717   C     0.15578   0.55703   0.50379   0.00000  Uiso   1.00
C718   C     0.15961   0.51459   0.98906   0.00000  Uiso   1.00
C719   C     0.14965   0.49878   0.94756   0.00000  Uiso   1.00
C720   C     0.17272   0.48735   0.51435   0.00000  Uiso   1.00
C721   C     0.17519   0.44497   0.99796   0.00000  Uiso   1.00
C722   C     0.16135   0.42928   0.95975   0.00000  Uiso   1.00
C723   C     0.14643   0.45502   0.93603   0.00000  Uiso   1.00
H724   H     0.20231   0.40823   0.58355   0.00000  Uiso   1.00
H725   H     0.23999   0.65425   0.68222   0.00000  Uiso   1.00
H726   H     0.20678   0.35867   0.67814   0.00000  Uiso   1.00
H727   H     0.23836   0.36744   0.71929   0.00000  Uiso   1.00
H728   H     0.12533   0.66381   0.78734   0.00000  Uiso   1.00
H729   H     0.16002   0.39612   0.94967   0.00000  Uiso   1.00
H730   H     0.19019   0.38516   0.50960   0.00000  Uiso   1.00
H731   H     0.17832   0.53105   0.57237   0.00000  Uiso   1.00
H732   H     0.13250   0.59090   0.91511   0.00000  Uiso   1.00
H733   H     0.16167   0.57124   0.53507   0.00000  Uiso   1.00
H734   H     0.14098   0.61544   0.98996   0.00000  Uiso   1.00
H735   H     0.01478   0.52771   0.71197   0.00000  Uiso   1.00
N736   N     0.29562   0.44282   0.82736   0.00000  Uiso   1.00
N737   N     0.10427   0.41783   0.87866   0.00000  Uiso   1.00
O738   O     0.16667   0.50000   0.75000   0.00000  Uiso   1.00
O739   O     0.15451   0.45970   0.65459   0.00000  Uiso   1.00
O740   O     0.12940   0.53724   0.84968   0.00000  Uiso   1.00
O741   O     0.20824   0.51092   0.64606   0.00000  Uiso   1.00
O742   O     0.17451   0.49213   0.84968   0.00000  Uiso   1.00
O743   O     0.17930   0.41352   0.78214   0.00000  Uiso   1.00
O744   O     0.14632   0.59418   0.77014   0.00000  Uiso   1.00
O745   O     0.07412   0.46625   0.73413   0.00000  Uiso   1.00
O746   O     0.26693   0.52605   0.71361   0.00000  Uiso   1.00
O747   O     0.07071   0.52211   0.78213   0.00000  Uiso   1.00
O748   O     0.25491   0.48559   0.77014   0.00000  Uiso   1.00
O749   O     0.13760   0.40277   0.73413   0.00000  Uiso   1.00
O750   O     0.20345   0.58953   0.71361   0.00000  Uiso   1.00
Zn751  Zn    0.19338   0.47327   0.78734   0.00000  Uiso   1.00
Zn752  Zn    0.13379   0.45791   0.71876   0.00000  Uiso   1.00
Zn753  Zn    0.21056   0.53109   0.70657   0.00000  Uiso   1.00
Zn754  Zn    0.12893   0.53773   0.78734   0.00000  Uiso   1.00
C755   C     0.38646   0.49324   0.75933   0.00000  Uiso   1.00
C756   C     0.51516   0.50021   0.55636   0.00000  Uiso   1.00
C757   C     0.52902   0.43068   0.56375   0.00000  Uiso   1.00
C758   C     0.61396   0.50694   0.74027   0.00000  Uiso   1.00
C759   C     0.47633   0.52742   0.91937   0.00000  Uiso   1.00
C760   C     0.65945   0.50916   0.73729   0.00000  Uiso   1.00
C761   C     0.34140   0.48929   0.76456   0.00000  Uiso   1.00
C762   C     0.51490   0.65620   0.73609   0.00000  Uiso   1.00
C763   C     0.48569   0.34500   0.76316   0.00000  Uiso   1.00
C764   C     0.48877   0.38928   0.76084   0.00000  Uiso   1.00
C765   C     0.51015   0.61129   0.74008   0.00000  Uiso   1.00
C766   C     0.47720   0.58316   0.97802   0.00000  Uiso   1.00
C767   C     0.51860   0.48105   0.62942   0.00000  Uiso   1.00
C768   C     0.48153   0.51752   0.87090   0.00000  Uiso   1.00
C769   C     0.52159   0.41752   0.52194   0.00000  Uiso   1.00
C770   C     0.52462   0.47164   0.58144   0.00000  Uiso   1.00
C771   C     0.47159   0.56880   0.93587   0.00000  Uiso   1.00
C772   C     0.64920   0.46347   0.79946   0.00000  Uiso   1.00
C773   C     0.55214   0.34351   0.70197   0.00000  Uiso   1.00
C774   C     0.45639   0.43444   0.90407   0.00000  Uiso   1.00
C775   C     0.48912   0.55703   0.50379   0.00000  Uiso   1.00
C776   C     0.49294   0.51459   0.98906   0.00000  Uiso   1.00
C777   C     0.48298   0.49878   0.94756   0.00000  Uiso   1.00
C778   C     0.50605   0.48735   0.51435   0.00000  Uiso   1.00
C779   C     0.50852   0.44497   0.99796   0.00000  Uiso   1.00
C780   C     0.49469   0.42928   0.95975   0.00000  Uiso   1.00
C781   C     0.47977   0.45502   0.93603   0.00000  Uiso   1.00
H782   H     0.53565   0.40823   0.58355   0.00000  Uiso   1.00
H783   H     0.57332   0.65425   0.68222   0.00000  Uiso   1.00
H784   H     0.54011   0.35867   0.67814   0.00000  Uiso   1.00
H785   H     0.57170   0.36744   0.71929   0.00000  Uiso   1.00
H786   H     0.45866   0.66381   0.78734   0.00000  Uiso   1.00
H787   H     0.49335   0.39612   0.94967   0.00000  Uiso   1.00
H788   H     0.52353   0.38516   0.50960   0.00000  Uiso   1.00
H789   H     0.51165   0.53105   0.57237   0.00000  Uiso   1.00
H790   H     0.46583   0.59090   0.91511   0.00000  Uiso   1.00
H791   H     0.49500   0.57124   0.53507   0.00000  Uiso   1.00
H792   H     0.47431   0.61544   0.98996   0.00000  Uiso   1.00
H793   H     0.34811   0.52771   0.71197   0.00000  Uiso   1.00
N794   N     0.62895   0.44282   0.82736   0.00000  Uiso   1.00
N795   N     0.43761   0.41783   0.87866   0.00000  Uiso   1.00
O796   O     0.50000   0.50000   0.75000   0.00000  Uiso   1.00
O797   O     0.48784   0.45970   0.65459   0.00000  Uiso   1.00
O798   O     0.46274   0.53724   0.84968   0.00000  Uiso   1.00
O799   O     0.54157   0.51092   0.64606   0.00000  Uiso   1.00
O800   O     0.50785   0.49213   0.84968   0.00000  Uiso   1.00
O801   O     0.51264   0.41352   0.78214   0.00000  Uiso   1.00
O802   O     0.47965   0.59418   0.77014   0.00000  Uiso   1.00
O803   O     0.40745   0.46625   0.73413   0.00000  Uiso   1.00
O804   O     0.60026   0.52605   0.71361   0.00000  Uiso   1.00
O805   O     0.40405   0.52211   0.78213   0.00000  Uiso   1.00
O806   O     0.58824   0.48559   0.77014   0.00000  Uiso   1.00
O807   O     0.47093   0.40277   0.73413   0.00000  Uiso   1.00
O808   O     0.53678   0.58953   0.71361   0.00000  Uiso   1.00
Zn809  Zn    0.52672   0.47327   0.78734   0.00000  Uiso   1.00
Zn810  Zn    0.46713   0.45791   0.71876   0.00000  Uiso   1.00
Zn811  Zn    0.54389   0.53109   0.70657   0.00000  Uiso   1.00
Zn812  Zn    0.46226   0.53773   0.78734   0.00000  Uiso   1.00
C813   C     0.71979   0.49324   0.75933   0.00000  Uiso   1.00
C814   C     0.84849   0.50021   0.55636   0.00000  Uiso   1.00
C815   C     0.86236   0.43068   0.56375   0.00000  Uiso   1.00
C816   C     0.94730   0.50694   0.74027   0.00000  Uiso   1.00
C817   C     0.80966   0.52742   0.91937   0.00000  Uiso   1.00
C818   C     0.99278   0.50916   0.73729   0.00000  Uiso   1.00
C819   C     0.67473   0.48929   0.76456   0.00000  Uiso   1.00
C820   C     0.84823   0.65620   0.73609   0.00000  Uiso   1.00
C821   C     0.81902   0.34500   0.76316   0.00000  Uiso   1.00
C822   C     0.82210   0.38928   0.76084   0.00000  Uiso   1.00
C823   C     0.84348   0.61129   0.74008   0.00000  Uiso   1.00
C824   C     0.81053   0.58316   0.97802   0.00000  Uiso   1.00
C825   C     0.85193   0.48105   0.62942   0.00000  Uiso   1.00
C826   C     0.81486   0.51752   0.87090   0.00000  Uiso   1.00
C827   C     0.85493   0.41752   0.52194   0.00000  Uiso   1.00
C828   C     0.85795   0.47164   0.58144   0.00000  Uiso   1.00
C829   C     0.80492   0.56880   0.93587   0.00000  Uiso   1.00
C830   C     0.98253   0.46347   0.79946   0.00000  Uiso   1.00
C831   C     0.88547   0.34351   0.70197   0.00000  Uiso   1.00
C832   C     0.78973   0.43444   0.90407   0.00000  Uiso   1.00
C833   C     0.82245   0.55703   0.50379   0.00000  Uiso   1.00
C834   C     0.82628   0.51459   0.98906   0.00000  Uiso   1.00
C835   C     0.81632   0.49878   0.94756   0.00000  Uiso   1.00
C836   C     0.83938   0.48735   0.51435   0.00000  Uiso   1.00
C837   C     0.84185   0.44497   0.99796   0.00000  Uiso   1.00
C838   C     0.82802   0.42928   0.95975   0.00000  Uiso   1.00
C839   C     0.81310   0.45502   0.93603   0.00000  Uiso   1.00
H840   H     0.86898   0.40823   0.58355   0.00000  Uiso   1.00
H841   H     0.90665   0.65425   0.68222   0.00000  Uiso   1.00
H842   H     0.87344   0.35867   0.67814   0.00000  Uiso   1.00
H843   H     0.90503   0.36744   0.71929   0.00000  Uiso   1.00
H844   H     0.79199   0.66381   0.78734   0.00000  Uiso   1.00
H845   H     0.82669   0.39612   0.94967   0.00000  Uiso   1.00
H846   H     0.85686   0.38516   0.50960   0.00000  Uiso   1.00
H847   H     0.84499   0.53105   0.57237   0.00000  Uiso   1.00
H848   H     0.79916   0.59090   0.91511   0.00000  Uiso   1.00
H849   H     0.82833   0.57124   0.53507   0.00000  Uiso   1.00
H850   H     0.80765   0.61544   0.98996   0.00000  Uiso   1.00
H851   H     0.68145   0.52771   0.71197   0.00000  Uiso   1.00
N852   N     0.96229   0.44282   0.82736   0.00000  Uiso   1.00
N853   N     0.77094   0.41783   0.87866   0.00000  Uiso   1.00
O854   O     0.83333   0.50000   0.75000   0.00000  Uiso   1.00
O855   O     0.82118   0.45970   0.65459   0.00000  Uiso   1.00
O856   O     0.79607   0.53724   0.84968   0.00000  Uiso   1.00
O857   O     0.87491   0.51092   0.64606   0.00000  Uiso   1.00
O858   O     0.84118   0.49213   0.84968   0.00000  Uiso   1.00
O859   O     0.84597   0.41352   0.78214   0.00000  Uiso   1.00
O860   O     0.81298   0.59418   0.77014   0.00000  Uiso   1.00
O861   O     0.74078   0.46625   0.73413   0.00000  Uiso   1.00
O862   O     0.93360   0.52605   0.71361   0.00000  Uiso   1.00
O863   O     0.73738   0.52211   0.78213   0.00000  Uiso   1.00
O864   O     0.92158   0.48559   0.77014   0.00000  Uiso   1.00
O865   O     0.80426   0.40277   0.73413   0.00000  Uiso   1.00
O866   O     0.87012   0.58953   0.71361   0.00000  Uiso   1.00
Zn867  Zn    0.86005   0.47327   0.78734   0.00000  Uiso   1.00
Zn868  Zn    0.80046   0.45791   0.71876   0.00000  Uiso   1.00
Zn869  Zn    0.87723   0.53109   0.70657   0.00000  Uiso   1.00
Zn870  Zn    0.79560   0.53773   0.78734   0.00000  Uiso   1.00
C871   C     0.05312   0.82658   0.75933   0.00000  Uiso   1.00
C872   C     0.18183   0.83354   0.55636   0.00000  Uiso   1.00
C873   C     0.19569   0.76401   0.56375   0.00000  Uiso   1.00
C874   C     0.28063   0.84028   0.74027   0.00000  Uiso   1.00
C875   C     0.14300   0.86075   0.91937   0.00000  Uiso   1.00
C876   C     0.32611   0.84250   0.73729   0.00000  Uiso   1.00
C877   C     0.00807   0.82262   0.76456   0.00000  Uiso   1.00
C878   C     0.18156   0.98954   0.73609   0.00000  Uiso   1.00
C879   C     0.15236   0.67833   0.76316   0.00000  Uiso   1.00
C880   C     0.15543   0.72261   0.76084   0.00000  Uiso   1.00
C881   C     0.17682   0.94463   0.74008   0.00000  Uiso   1.00
C882   C     0.14387   0.91649   0.97802   0.00000  Uiso   1.00
C883   C     0.18526   0.81439   0.62942   0.00000  Uiso   1.00
C884   C     0.14819   0.85085   0.87090   0.00000  Uiso   1.00
C885   C     0.18826   0.75085   0.52194   0.00000  Uiso   1.00
C886   C     0.19129   0.80498   0.58144   0.00000  Uiso   1.00
C887   C     0.13826   0.90214   0.93587   0.00000  Uiso   1.00
C888   C     0.31586   0.79680   0.79946   0.00000  Uiso   1.00
C889   C     0.21880   0.67684   0.70197   0.00000  Uiso   1.00
C890   C     0.12306   0.76777   0.90407   0.00000  Uiso   1.00
C891   C     0.15578   0.89036   0.50379   0.00000  Uiso   1.00
C892   C     0.15961   0.84793   0.98906   0.00000  Uiso   1.00
C893   C     0.14965   0.83211   0.94756   0.00000  Uiso   1.00
C894   C     0.17272   0.82068   0.51435   0.00000  Uiso   1.00
C895   C     0.17519   0.77830   0.99796   0.00000  Uiso   1.00
C896   C     0.16135   0.76261   0.95975   0.00000  Uiso   1.00
C897   C     0.14643   0.78835   0.93603   0.00000  Uiso   1.00
H898   H     0.20231   0.74156   0.58355   0.00000  Uiso   1.00
H899   H     0.23999   0.98759   0.68222   0.00000  Uiso   1.00
H900   H     0.20678   0.69200   0.67814   0.00000  Uiso   1.00
H901   H     0.23836   0.70077   0.71929   0.00000  Uiso   1.00
H902   H     0.12533   0.99714   0.78734   0.00000  Uiso   1.00
H903   H     0.16002   0.72946   0.94967   0.00000  Uiso   1.00
H904   H     0.19019   0.71850   0.50960   0.00000  Uiso   1.00
H905   H     0.17832   0.86438   0.57237   0.00000  Uiso   1.00
H906   H     0.13250   0.92423   0.91511   0.00000  Uiso   1.00
H907   H     0.16167   0.90458   0.53507   0.00000  Uiso   1.00
H908   H     0.14098   0.94877   0.98996   0.00000  Uiso   1.00
H909   H     0.01478   0.86105   0.71197   0.00000  Uiso   1.00
N910   N     0.29562   0.77616   0.82736   0.00000  Uiso   1.00
N911   N     0.10427   0.75116   0.87866   0.00000  Uiso   1.00
O912   O     0.16667   0.83333   0.75000   0.00000  Uiso   1.00
O913   O     0.15451   0.79304   0.65459   0.00000  Uiso   1.00
O914   O     0.12940   0.87058   0.84968   0.00000  Uiso   1.00
O915   O     0.20824   0.84425   0.64606   0.00000  Uiso   1.00
O916   O     0.17451   0.82546   0.84968   0.00000  Uiso   1.00
O917   O     0.17930   0.74686   0.78214   0.00000  Uiso   1.00
O918   O     0.14632   0.92751   0.77014   0.00000  Uiso   1.00
O919   O     0.07412   0.79958   0.73413   0.00000  Uiso   1.00
O920   O     0.26693   0.85939   0.71361   0.00000  Uiso   1.00
O921   O     0.07071   0.85544   0.78213   0.00000  Uiso   1.00
O922   O     0.25491   0.81892   0.77014   0.00000  Uiso   1.00
O923   O     0.13760   0.73610   0.73413   0.00000  Uiso   1.00
O924   O     0.20345   0.92286   0.71361   0.00000  Uiso   1.00
Zn925  Zn    0.19338   0.80661   0.78734   0.00000  Uiso   1.00
Zn926  Zn    0.13379   0.79124   0.71876   0.00000  Uiso   1.00
Zn927  Zn    0.21056   0.86442   0.70657   0.00000  Uiso   1.00
Zn928  Zn    0.12893   0.87106   0.78734   0.00000  Uiso   1.00
C929   C     0.38646   0.82658   0.75933   0.00000  Uiso   1.00
C930   C     0.51516   0.83354   0.55636   0.00000  Uiso   1.00
C931   C     0.52902   0.76401   0.56375   0.00000  Uiso   1.00
C932   C     0.61396   0.84028   0.74027   0.00000  Uiso   1.00
C933   C     0.47633   0.86075   0.91937   0.00000  Uiso   1.00
C934   C     0.65945   0.84250   0.73729   0.00000  Uiso   1.00
C935   C     0.34140   0.82262   0.76456   0.00000  Uiso   1.00
C936   C     0.51490   0.98954   0.73609   0.00000  Uiso   1.00
C937   C     0.48569   0.67833   0.76316   0.00000  Uiso   1.00
C938   C     0.48877   0.72261   0.76084   0.00000  Uiso   1.00
C939   C     0.51015   0.94463   0.74008   0.00000  Uiso   1.00
C940   C     0.47720   0.91649   0.97802   0.00000  Uiso   1.00
C941   C     0.51860   0.81439   0.62942   0.00000  Uiso   1.00
C942   C     0.48153   0.85085   0.87090   0.00000  Uiso   1.00
C943   C     0.52159   0.75085   0.52194   0.00000  Uiso   1.00
C944   C     0.52462   0.80498   0.58144   0.00000  Uiso   1.00
C945   C     0.47159   0.90214   0.93587   0.00000  Uiso   1.00
C946   C     0.64920   0.79680   0.79946   0.00000  Uiso   1.00
C947   C     0.55214   0.67684   0.70197   0.00000  Uiso   1.00
C948   C     0.45639   0.76777   0.90407   0.00000  Uiso   1.00
C949   C     0.48912   0.89036   0.50379   0.00000  Uiso   1.00
C950   C     0.49294   0.84793   0.98906   0.00000  Uiso   1.00
C951   C     0.48298   0.83211   0.94756   0.00000  Uiso   1.00
C952   C     0.50605   0.82068   0.51435   0.00000  Uiso   1.00
C953   C     0.50852   0.77830   0.99796   0.00000  Uiso   1.00
C954   C     0.49469   0.76261   0.95975   0.00000  Uiso   1.00
C955   C     0.47977   0.78835   0.93603   0.00000  Uiso   1.00
H956   H     0.53565   0.74156   0.58355   0.00000  Uiso   1.00
H957   H     0.57332   0.98759   0.68222   0.00000  Uiso   1.00
H958   H     0.54011   0.69200   0.67814   0.00000  Uiso   1.00
H959   H     0.57170   0.70077   0.71929   0.00000  Uiso   1.00
H960   H     0.45866   0.99714   0.78734   0.00000  Uiso   1.00
H961   H     0.49335   0.72946   0.94967   0.00000  Uiso   1.00
H962   H     0.52353   0.71850   0.50960   0.00000  Uiso   1.00
H963   H     0.51165   0.86438   0.57237   0.00000  Uiso   1.00
H964   H     0.46583   0.92423   0.91511   0.00000  Uiso   1.00
H965   H     0.49500   0.90458   0.53507   0.00000  Uiso   1.00
H966   H     0.47431   0.94877   0.98996   0.00000  Uiso   1.00
H967   H     0.34811   0.86105   0.71197   0.00000  Uiso   1.00
N968   N     0.62895   0.77616   0.82736   0.00000  Uiso   1.00
N969   N     0.43761   0.75116   0.87866   0.00000  Uiso   1.00
O970   O     0.50000   0.83333   0.75000   0.00000  Uiso   1.00
O971   O     0.48784   0.79304   0.65459   0.00000  Uiso   1.00
O972   O     0.46274   0.87058   0.84968   0.00000  Uiso   1.00
O973   O     0.54157   0.84425   0.64606   0.00000  Uiso   1.00
O974   O     0.50785   0.82546   0.84968   0.00000  Uiso   1.00
O975   O     0.51264   0.74686   0.78214   0.00000  Uiso   1.00
O976   O     0.47965   0.92751   0.77014   0.00000  Uiso   1.00
O977   O     0.40745   0.79958   0.73413   0.00000  Uiso   1.00
O978   O     0.60026   0.85939   0.71361   0.00000  Uiso   1.00
O979   O     0.40405   0.85544   0.78213   0.00000  Uiso   1.00
O980   O     0.58824   0.81892   0.77014   0.00000  Uiso   1.00
O981   O     0.47093   0.73610   0.73413   0.00000  Uiso   1.00
O982   O     0.53678   0.92286   0.71361   0.00000  Uiso   1.00
Zn983  Zn    0.52672   0.80661   0.78734   0.00000  Uiso   1.00
Zn984  Zn    0.46713   0.79124   0.71876   0.00000  Uiso   1.00
Zn985  Zn    0.54389   0.86442   0.70657   0.00000  Uiso   1.00
Zn986  Zn    0.46226   0.87106   0.78734   0.00000  Uiso   1.00
C987   C     0.71979   0.82658   0.75933   0.00000  Uiso   1.00
C988   C     0.84849   0.83354   0.55636   0.00000  Uiso   1.00
C989   C     0.86236   0.76401   0.56375   0.00000  Uiso   1.00
C990   C     0.94730   0.84028   0.74027   0.00000  Uiso   1.00
C991   C     0.80966   0.86075   0.91937   0.00000  Uiso   1.00
C992   C     0.99278   0.84250   0.73729   0.00000  Uiso   1.00
C993   C     0.67473   0.82262   0.76456   0.00000  Uiso   1.00
C994   C     0.84823   0.98954   0.73609   0.00000  Uiso   1.00
C995   C     0.81902   0.67833   0.76316   0.00000  Uiso   1.00
C996   C     0.82210   0.72261   0.76084   0.00000  Uiso   1.00
C997   C     0.84348   0.94463   0.74008   0.00000  Uiso   1.00
C998   C     0.81053   0.91649   0.97802   0.00000  Uiso   1.00
C999   C     0.85193   0.81439   0.62942   0.00000  Uiso   1.00
C1000  C     0.81486   0.85085   0.87090   0.00000  Uiso   1.00
C1001  C     0.85493   0.75085   0.52194   0.00000  Uiso   1.00
C1002  C     0.85795   0.80498   0.58144   0.00000  Uiso   1.00
C1003  C     0.80492   0.90214   0.93587   0.00000  Uiso   1.00
C1004  C     0.98253   0.79680   0.79946   0.00000  Uiso   1.00
C1005  C     0.88547   0.67684   0.70197   0.00000  Uiso   1.00
C1006  C     0.78973   0.76777   0.90407   0.00000  Uiso   1.00
C1007  C     0.82245   0.89036   0.50379   0.00000  Uiso   1.00
C1008  C     0.82628   0.84793   0.98906   0.00000  Uiso   1.00
C1009  C     0.81632   0.83211   0.94756   0.00000  Uiso   1.00
C1010  C     0.83938   0.82068   0.51435   0.00000  Uiso   1.00
C1011  C     0.84185   0.77830   0.99796   0.00000  Uiso   1.00
C1012  C     0.82802   0.76261   0.95975   0.00000  Uiso   1.00
C1013  C     0.81310   0.78835   0.93603   0.00000  Uiso   1.00
H1014  H     0.86898   0.74156   0.58355   0.00000  Uiso   1.00
H1015  H     0.90665   0.98759   0.68222   0.00000  Uiso   1.00
H1016  H     0.87344   0.69200   0.67814   0.00000  Uiso   1.00
H1017  H     0.90503   0.70077   0.71929   0.00000  Uiso   1.00
H1018  H     0.79199   0.99714   0.78734   0.00000  Uiso   1.00
H1019  H     0.82669   0.72946   0.94967   0.00000  Uiso   1.00
H1020  H     0.85686   0.71850   0.50960   0.00000  Uiso   1.00
H1021  H     0.84499   0.86438   0.57237   0.00000  Uiso   1.00
H1022  H     0.79916   0.92423   0.91511   0.00000  Uiso   1.00
H1023  H     0.82833   0.90458   0.53507   0.00000  Uiso   1.00
H1024  H     0.80765   0.94877   0.98996   0.00000  Uiso   1.00
H1025  H     0.68145   0.86105   0.71197   0.00000  Uiso   1.00
N1026  N     0.96229   0.77616   0.82736   0.00000  Uiso   1.00
N1027  N     0.77094   0.75116   0.87866   0.00000  Uiso   1.00
O1028  O     0.83333   0.83333   0.75000   0.00000  Uiso   1.00
O1029  O     0.82118   0.79304   0.65459   0.00000  Uiso   1.00
O1030  O     0.79607   0.87058   0.84968   0.00000  Uiso   1.00
O1031  O     0.87491   0.84425   0.64606   0.00000  Uiso   1.00
O1032  O     0.84118   0.82546   0.84968   0.00000  Uiso   1.00
O1033  O     0.84597   0.74686   0.78214   0.00000  Uiso   1.00
O1034  O     0.81298   0.92751   0.77014   0.00000  Uiso   1.00
O1035  O     0.74078   0.79958   0.73413   0.00000  Uiso   1.00
O1036  O     0.93360   0.85939   0.71361   0.00000  Uiso   1.00
O1037  O     0.73738   0.85544   0.78213   0.00000  Uiso   1.00
O1038  O     0.92158   0.81892   0.77014   0.00000  Uiso   1.00
O1039  O     0.80426   0.73610   0.73413   0.00000  Uiso   1.00
O1040  O     0.87012   0.92286   0.71361   0.00000  Uiso   1.00
Zn1041 Zn    0.86005   0.80661   0.78734   0.00000  Uiso   1.00
Zn1042 Zn    0.80046   0.79124   0.71876   0.00000  Uiso   1.00
Zn1043 Zn    0.87723   0.86442   0.70657   0.00000  Uiso   1.00
Zn1044 Zn    0.79560   0.87106   0.78734   0.00000  Uiso   1.00
loop_
_geom_bond_atom_site_label_1
_geom_bond_atom_site_label_2
_geom_bond_distance
_geom_bond_site_symmetry_2
_ccdc_geom_bond_type
C1     O51     1.267   .     A
C1     C7      1.428   .     S
C1     O49     1.267   .     A
C2     H35     1.077   .     S
C2     C16     1.392   .     A
C2     C24     1.412   .     A
C3     H28     1.084   .     S
C3     C15     1.387   .     A
C3     C16     1.397   .     A
C4     O52     1.271   .     A
C4     C6      1.458   .     S
C4     O50     1.289   .     A
C5     C23     1.422   .     A
C5     C14     1.471   .     S
C5     C17     1.402   .     A
C6     C65     1.349   .     S
C6     H97     1.088   .     S
C7     C122    1.349   1_455 S
C7     C134    1.450   1_455 S
C8     C11     1.462   .     S
C8     C183    1.340   .     S
C8     C193    1.518   .     S
C9     C10     1.438   .     S
C9     C356    1.340   1_545 S
C9     H380    1.086   1_545 S
C10    O47     1.275   .     A
C10    O53     1.275   .     A
C11    O48     1.283   .     A
C11    O54     1.274   .     A
C12    C17     1.384   .     A
C12    H38     1.083   .     S
C12    C543    1.388   .     S
C13    C16     1.451   .     S
C13    O45     1.280   .     A
C13    O43     1.269   .     A
C14    O46     1.288   .     A
C14    O44     1.282   .     A
C15    H34     1.084   .     S
C15    C547    1.401   1_554 S
C17    H36     1.084   .     S
C18    N40     1.158   .     T
C18    C65     1.450   .     S
C19    H31     1.111   .     S
C19    H30     1.111   .     S
C19    C356    1.518   1_545 S
C19    H377    1.109   1_545 S
C20    N41     1.158   .     T
C20    C27     1.448   .     S
C21    H37     1.076   .     S
C21    C534    1.388   1_554 S
C21    C544    1.418   1_554 S
C22    C23     1.427   .     A
C22    C543    1.418   .     S
C22    C546    1.424   .     S
C23    C27     1.423   .     A
C24    C544    1.424   1_554 S
C24    C547    1.422   1_554 S
C25    C26     1.391   .     A
C25    C546    1.422   .     S
C25    C537    1.401   .     S
C26    H33     1.086   .     S
C26    C27     1.388   .     A
H29    C193    1.109   .     S
H32    C183    1.086   .     S
H39    C122    1.088   1_455 S
O42    Zn55    1.958   .     S
O42    Zn58    1.943   .     S
O42    Zn57    1.942   .     S
O42    Zn56    1.938   .     S
O43    Zn56    1.933   .     S
O44    Zn58    1.937   .     S
O45    Zn57    1.931   .     S
O46    Zn55    1.929   .     S
O47    Zn55    1.927   .     S
O48    Zn58    1.932   .     S
O49    Zn56    1.941   .     S
O50    Zn57    1.944   .     S
O51    Zn58    1.938   .     S
O52    Zn55    1.936   .     S
O53    Zn56    1.938   .     S
O54    Zn57    1.932   .     S
C59    O109    1.267   .     A
C59    C65     1.428   .     S
C59    O107    1.267   .     A
C60    H93     1.077   .     S
C60    C74     1.392   .     A
C60    C82     1.412   .     A
C61    H86     1.084   .     S
C61    C73     1.387   .     A
C61    C74     1.397   .     A
C62    O110    1.271   .     A
C62    C64     1.458   .     S
C62    O108    1.289   .     A
C63    C81     1.422   .     A
C63    C72     1.471   .     S
C63    C75     1.402   .     A
C64    C123    1.349   .     S
C64    H155    1.088   .     S
C66    C69     1.462   .     S
C66    C241    1.340   .     S
C66    C251    1.518   .     S
C67    C68     1.438   .     S
C67    C414    1.340   1_545 S
C67    H438    1.086   1_545 S
C68    O105    1.275   .     A
C68    O111    1.275   .     A
C69    O106    1.283   .     A
C69    O112    1.274   .     A
C70    C75     1.384   .     A
C70    H96     1.083   .     S
C70    C601    1.388   .     S
C71    C74     1.451   .     S
C71    O103    1.280   .     A
C71    O101    1.269   .     A
C72    O104    1.288   .     A
C72    O102    1.282   .     A
C73    H92     1.084   .     S
C73    C605    1.401   1_554 S
C75    H94     1.084   .     S
C76    N98     1.158   .     T
C76    C123    1.450   .     S
C77    H89     1.111   .     S
C77    H88     1.111   .     S
C77    C414    1.518   1_545 S
C77    H435    1.109   1_545 S
C78    N99     1.158   .     T
C78    C85     1.448   .     S
C79    H95     1.076   .     S
C79    C592    1.388   1_554 S
C79    C602    1.418   1_554 S
C80    C81     1.427   .     A
C80    C601    1.418   .     S
C80    C604    1.424   .     S
C81    C85     1.423   .     A
C82    C602    1.424   1_554 S
C82    C605    1.422   1_554 S
C83    C84     1.391   .     A
C83    C604    1.422   .     S
C83    C595    1.401   .     S
C84    H91     1.086   .     S
C84    C85     1.388   .     A
H87    C251    1.109   .     S
H90    C241    1.086   .     S
O100   Zn113   1.958   .     S
O100   Zn116   1.943   .     S
O100   Zn115   1.942   .     S
O100   Zn114   1.938   .     S
O101   Zn114   1.933   .     S
O102   Zn116   1.937   .     S
O103   Zn115   1.931   .     S
O104   Zn113   1.929   .     S
O105   Zn113   1.927   .     S
O106   Zn116   1.932   .     S
O107   Zn114   1.941   .     S
O108   Zn115   1.944   .     S
O109   Zn116   1.938   .     S
O110   Zn113   1.936   .     S
O111   Zn114   1.938   .     S
O112   Zn115   1.932   .     S
C117   O167    1.267   .     A
C117   C123    1.428   .     S
C117   O165    1.267   .     A
C118   H151    1.077   .     S
C118   C132    1.392   .     A
C118   C140    1.412   .     A
C119   H144    1.084   .     S
C119   C131    1.387   .     A
C119   C132    1.397   .     A
C120   O168    1.271   .     A
C120   C122    1.458   .     S
C120   O166    1.289   .     A
C121   C139    1.422   .     A
C121   C130    1.471   .     S
C121   C133    1.402   .     A
C122   C7      1.349   1_655 S
C122   H39     1.088   1_655 S
C124   C127    1.462   .     S
C124   C299    1.340   .     S
C124   C309    1.518   .     S
C125   C126    1.438   .     S
C125   C472    1.340   1_545 S
C125   H496    1.086   1_545 S
C126   O163    1.275   .     A
C126   O169    1.275   .     A
C127   O164    1.283   .     A
C127   O170    1.274   .     A
C128   C133    1.384   .     A
C128   H154    1.083   .     S
C128   C659    1.388   .     S
C129   C132    1.451   .     S
C129   O161    1.280   .     A
C129   O159    1.269   .     A
C130   O162    1.288   .     A
C130   O160    1.282   .     A
C131   H150    1.084   .     S
C131   C663    1.401   1_554 S
C133   H152    1.084   .     S
C134   N156    1.158   .     T
C134   C7      1.450   1_655 S
C135   H147    1.111   .     S
C135   H146    1.111   .     S
C135   C472    1.518   1_545 S
C135   H493    1.109   1_545 S
C136   N157    1.158   .     T
C136   C143    1.448   .     S
C137   H153    1.076   .     S
C137   C650    1.388   1_554 S
C137   C660    1.418   1_554 S
C138   C139    1.427   .     A
C138   C659    1.418   .     S
C138   C662    1.424   .     S
C139   C143    1.423   .     A
C140   C660    1.424   1_554 S
C140   C663    1.422   1_554 S
C141   C142    1.391   .     A
C141   C662    1.422   .     S
C141   C653    1.401   .     S
C142   H149    1.086   .     S
C142   C143    1.388   .     A
H145   C309    1.109   .     S
H148   C299    1.086   .     S
O158   Zn171   1.958   .     S
O158   Zn174   1.943   .     S
O158   Zn173   1.942   .     S
O158   Zn172   1.938   .     S
O159   Zn172   1.933   .     S
O160   Zn174   1.937   .     S
O161   Zn173   1.931   .     S
O162   Zn171   1.929   .     S
O163   Zn171   1.927   .     S
O164   Zn174   1.932   .     S
O165   Zn172   1.941   .     S
O166   Zn173   1.944   .     S
O167   Zn174   1.938   .     S
O168   Zn171   1.936   .     S
O169   Zn172   1.938   .     S
O170   Zn173   1.932   .     S
C175   O225    1.267   .     A
C175   C181    1.428   .     S
C175   O223    1.267   .     A
C176   H209    1.077   .     S
C176   C190    1.392   .     A
C176   C198    1.412   .     A
C177   H202    1.084   .     S
C177   C189    1.387   .     A
C177   C190    1.397   .     A
C178   O226    1.271   .     A
C178   C180    1.458   .     S
C178   O224    1.289   .     A
C179   C197    1.422   .     A
C179   C188    1.471   .     S
C179   C191    1.402   .     A
C180   C239    1.349   .     S
C180   H271    1.088   .     S
C181   C296    1.349   1_455 S
C181   C308    1.450   1_455 S
C182   C185    1.462   .     S
C182   C357    1.340   .     S
C182   C367    1.518   .     S
C183   C184    1.438   .     S
C184   O221    1.275   .     A
C184   O227    1.275   .     A
C185   O222    1.283   .     A
C185   O228    1.274   .     A
C186   C191    1.384   .     A
C186   H212    1.083   .     S
C186   C717    1.388   .     S
C187   C190    1.451   .     S
C187   O219    1.280   .     A
C187   O217    1.269   .     A
C188   O220    1.288   .     A
C188   O218    1.282   .     A
C189   H208    1.084   .     S
C189   C721    1.401   1_554 S
C191   H210    1.084   .     S
C192   N214    1.158   .     T
C192   C239    1.450   .     S
C193   H205    1.111   .     S
C193   H204    1.111   .     S
C194   N215    1.158   .     T
C194   C201    1.448   .     S
C195   H211    1.076   .     S
C195   C708    1.388   1_554 S
C195   C718    1.418   1_554 S
C196   C197    1.427   .     A
C196   C717    1.418   .     S
C196   C720    1.424   .     S
C197   C201    1.423   .     A
C198   C718    1.424   1_554 S
C198   C721    1.422   1_554 S
C199   C200    1.391   .     A
C199   C720    1.422   .     S
C199   C711    1.401   .     S
C200   H207    1.086   .     S
C200   C201    1.388   .     A
H203   C367    1.109   .     S
H206   C357    1.086   .     S
H213   C296    1.088   1_455 S
O216   Zn229   1.958   .     S
O216   Zn232   1.943   .     S
O216   Zn231   1.942   .     S
O216   Zn230   1.938   .     S
O217   Zn230   1.933   .     S
O218   Zn232   1.937   .     S
O219   Zn231   1.931   .     S
O220   Zn229   1.929   .     S
O221   Zn229   1.927   .     S
O222   Zn232   1.932   .     S
O223   Zn230   1.941   .     S
O224   Zn231   1.944   .     S
O225   Zn232   1.938   .     S
O226   Zn229   1.936   .     S
O227   Zn230   1.938   .     S
O228   Zn231   1.932   .     S
C233   O283    1.267   .     A
C233   C239    1.428   .     S
C233   O281    1.267   .     A
C234   H267    1.077   .     S
C234   C248    1.392   .     A
C234   C256    1.412   .     A
C235   H260    1.084   .     S
C235   C247    1.387   .     A
C235   C248    1.397   .     A
C236   O284    1.271   .     A
C236   C238    1.458   .     S
C236   O282    1.289   .     A
C237   C255    1.422   .     A
C237   C246    1.471   .     S
C237   C249    1.402   .     A
C238   C297    1.349   .     S
C238   H329    1.088   .     S
C240   C243    1.462   .     S
C240   C415    1.340   .     S
C240   C425    1.518   .     S
C241   C242    1.438   .     S
C242   O279    1.275   .     A
C242   O285    1.275   .     A
C243   O280    1.283   .     A
C243   O286    1.274   .     A
C244   C249    1.384   .     A
C244   H270    1.083   .     S
C244   C775    1.388   .     S
C245   C248    1.451   .     S
C245   O277    1.280   .     A
C245   O275    1.269   .     A
C246   O278    1.288   .     A
C246   O276    1.282   .     A
C247   H266    1.084   .     S
C247   C779    1.401   1_554 S
C249   H268    1.084   .     S
C250   N272    1.158   .     T
C250   C297    1.450   .     S
C251   H263    1.111   .     S
C251   H262    1.111   .     S
C252   N273    1.158   .     T
C252   C259    1.448   .     S
C253   H269    1.076   .     S
C253   C766    1.388   1_554 S
C253   C776    1.418   1_554 S
C254   C255    1.427   .     A
C254   C775    1.418   .     S
C254   C778    1.424   .     S
C255   C259    1.423   .     A
C256   C776    1.424   1_554 S
C256   C779    1.422   1_554 S
C257   C258    1.391   .     A
C257   C778    1.422   .     S
C257   C769    1.401   .     S
C258   H265    1.086   .     S
C258   C259    1.388   .     A
H261   C425    1.109   .     S
H264   C415    1.086   .     S
O274   Zn287   1.958   .     S
O274   Zn290   1.943   .     S
O274   Zn289   1.942   .     S
O274   Zn288   1.938   .     S
O275   Zn288   1.933   .     S
O276   Zn290   1.937   .     S
O277   Zn289   1.931   .     S
O278   Zn287   1.929   .     S
O279   Zn287   1.927   .     S
O280   Zn290   1.932   .     S
O281   Zn288   1.941   .     S
O282   Zn289   1.944   .     S
O283   Zn290   1.938   .     S
O284   Zn287   1.936   .     S
O285   Zn288   1.938   .     S
O286   Zn289   1.932   .     S
C291   O341    1.267   .     A
C291   C297    1.428   .     S
C291   O339    1.267   .     A
C292   H325    1.077   .     S
C292   C306    1.392   .     A
C292   C314    1.412   .     A
C293   H318    1.084   .     S
C293   C305    1.387   .     A
C293   C306    1.397   .     A
C294   O342    1.271   .     A
C294   C296    1.458   .     S
C294   O340    1.289   .     A
C295   C313    1.422   .     A
C295   C304    1.471   .     S
C295   C307    1.402   .     A
C296   C181    1.349   1_655 S
C296   H213    1.088   1_655 S
C298   C301    1.462   .     S
C298   C473    1.340   .     S
C298   C483    1.518   .     S
C299   C300    1.438   .     S
C300   O337    1.275   .     A
C300   O343    1.275   .     A
C301   O338    1.283   .     A
C301   O344    1.274   .     A
C302   C307    1.384   .     A
C302   H328    1.083   .     S
C302   C833    1.388   .     S
C303   C306    1.451   .     S
C303   O335    1.280   .     A
C303   O333    1.269   .     A
C304   O336    1.288   .     A
C304   O334    1.282   .     A
C305   H324    1.084   .     S
C305   C837    1.401   1_554 S
C307   H326    1.084   .     S
C308   N330    1.158   .     T
C308   C181    1.450   1_655 S
C309   H321    1.111   .     S
C309   H320    1.111   .     S
C310   N331    1.158   .     T
C310   C317    1.448   .     S
C311   H327    1.076   .     S
C311   C824    1.388   1_554 S
C311   C834    1.418   1_554 S
C312   C313    1.427   .     A
C312   C833    1.418   .     S
C312   C836    1.424   .     S
C313   C317    1.423   .     A
C314   C834    1.424   1_554 S
C314   C837    1.422   1_554 S
C315   C316    1.391   .     A
C315   C836    1.422   .     S
C315   C827    1.401   .     S
C316   H323    1.086   .     S
C316   C317    1.388   .     A
H319   C483    1.109   .     S
H322   C473    1.086   .     S
O332   Zn345   1.958   .     S
O332   Zn348   1.943   .     S
O332   Zn347   1.942   .     S
O332   Zn346   1.938   .     S
O333   Zn346   1.933   .     S
O334   Zn348   1.937   .     S
O335   Zn347   1.931   .     S
O336   Zn345   1.929   .     S
O337   Zn345   1.927   .     S
O338   Zn348   1.932   .     S
O339   Zn346   1.941   .     S
O340   Zn347   1.944   .     S
O341   Zn348   1.938   .     S
O342   Zn345   1.936   .     S
O343   Zn346   1.938   .     S
O344   Zn347   1.932   .     S
C349   O399    1.267   .     A
C349   C355    1.428   .     S
C349   O397    1.267   .     A
C350   H383    1.077   .     S
C350   C364    1.392   .     A
C350   C372    1.412   .     A
C351   H376    1.084   .     S
C351   C363    1.387   .     A
C351   C364    1.397   .     A
C352   O400    1.271   .     A
C352   C354    1.458   .     S
C352   O398    1.289   .     A
C353   C371    1.422   .     A
C353   C362    1.471   .     S
C353   C365    1.402   .     A
C354   C413    1.349   .     S
C354   H445    1.088   .     S
C355   C470    1.349   1_455 S
C355   C482    1.450   1_455 S
C356   C359    1.462   .     S
C356   C9      1.340   1_565 S
C356   C19     1.518   1_565 S
C357   C358    1.438   .     S
C358   O395    1.275   .     A
C358   O401    1.275   .     A
C359   O396    1.283   .     A
C359   O402    1.274   .     A
C360   C365    1.384   .     A
C360   H386    1.083   .     S
C360   C891    1.388   .     S
C361   C364    1.451   .     S
C361   O393    1.280   .     A
C361   O391    1.269   .     A
C362   O394    1.288   .     A
C362   O392    1.282   .     A
C363   H382    1.084   .     S
C363   C895    1.401   1_554 S
C365   H384    1.084   .     S
C366   N388    1.158   .     T
C366   C413    1.450   .     S
C367   H379    1.111   .     S
C367   H378    1.111   .     S
C368   N389    1.158   .     T
C368   C375    1.448   .     S
C369   H385    1.076   .     S
C369   C882    1.388   1_554 S
C369   C892    1.418   1_554 S
C370   C371    1.427   .     A
C370   C891    1.418   .     S
C370   C894    1.424   .     S
C371   C375    1.423   .     A
C372   C892    1.424   1_554 S
C372   C895    1.422   1_554 S
C373   C374    1.391   .     A
C373   C894    1.422   .     S
C373   C885    1.401   .     S
C374   H381    1.086   .     S
C374   C375    1.388   .     A
H377   C19     1.109   1_565 S
H380   C9      1.086   1_565 S
H387   C470    1.088   1_455 S
O390   Zn403   1.958   .     S
O390   Zn406   1.943   .     S
O390   Zn405   1.942   .     S
O390   Zn404   1.938   .     S
O391   Zn404   1.933   .     S
O392   Zn406   1.937   .     S
O393   Zn405   1.931   .     S
O394   Zn403   1.929   .     S
O395   Zn403   1.927   .     S
O396   Zn406   1.932   .     S
O397   Zn404   1.941   .     S
O398   Zn405   1.944   .     S
O399   Zn406   1.938   .     S
O400   Zn403   1.936   .     S
O401   Zn404   1.938   .     S
O402   Zn405   1.932   .     S
C407   O457    1.267   .     A
C407   C413    1.428   .     S
C407   O455    1.267   .     A
C408   H441    1.077   .     S
C408   C422    1.392   .     A
C408   C430    1.412   .     A
C409   H434    1.084   .     S
C409   C421    1.387   .     A
C409   C422    1.397   .     A
C410   O458    1.271   .     A
C410   C412    1.458   .     S
C410   O456    1.289   .     A
C411   C429    1.422   .     A
C411   C420    1.471   .     S
C411   C423    1.402   .     A
C412   C471    1.349   .     S
C412   H503    1.088   .     S
C414   C417    1.462   .     S
C414   C67     1.340   1_565 S
C414   C77     1.518   1_565 S
C415   C416    1.438   .     S
C416   O453    1.275   .     A
C416   O459    1.275   .     A
C417   O454    1.283   .     A
C417   O460    1.274   .     A
C418   C423    1.384   .     A
C418   H444    1.083   .     S
C418   C949    1.388   .     S
C419   C422    1.451   .     S
C419   O451    1.280   .     A
C419   O449    1.269   .     A
C420   O452    1.288   .     A
C420   O450    1.282   .     A
C421   H440    1.084   .     S
C421   C953    1.401   1_554 S
C423   H442    1.084   .     S
C424   N446    1.158   .     T
C424   C471    1.450   .     S
C425   H437    1.111   .     S
C425   H436    1.111   .     S
C426   N447    1.158   .     T
C426   C433    1.448   .     S
C427   H443    1.076   .     S
C427   C940    1.388   1_554 S
C427   C950    1.418   1_554 S
C428   C429    1.427   .     A
C428   C949    1.418   .     S
C428   C952    1.424   .     S
C429   C433    1.423   .     A
C430   C950    1.424   1_554 S
C430   C953    1.422   1_554 S
C431   C432    1.391   .     A
C431   C952    1.422   .     S
C431   C943    1.401   .     S
C432   H439    1.086   .     S
C432   C433    1.388   .     A
H435   C77     1.109   1_565 S
H438   C67     1.086   1_565 S
O448   Zn461   1.958   .     S
O448   Zn464   1.943   .     S
O448   Zn463   1.942   .     S
O448   Zn462   1.938   .     S
O449   Zn462   1.933   .     S
O450   Zn464   1.937   .     S
O451   Zn463   1.931   .     S
O452   Zn461   1.929   .     S
O453   Zn461   1.927   .     S
O454   Zn464   1.932   .     S
O455   Zn462   1.941   .     S
O456   Zn463   1.944   .     S
O457   Zn464   1.938   .     S
O458   Zn461   1.936   .     S
O459   Zn462   1.938   .     S
O460   Zn463   1.932   .     S
C465   O515    1.267   .     A
C465   C471    1.428   .     S
C465   O513    1.267   .     A
C466   H499    1.077   .     S
C466   C480    1.392   .     A
C466   C488    1.412   .     A
C467   H492    1.084   .     S
C467   C479    1.387   .     A
C467   C480    1.397   .     A
C468   O516    1.271   .     A
C468   C470    1.458   .     S
C468   O514    1.289   .     A
C469   C487    1.422   .     A
C469   C478    1.471   .     S
C469   C481    1.402   .     A
C470   C355    1.349   1_655 S
C470   H387    1.088   1_655 S
C472   C475    1.462   .     S
C472   C125    1.340   1_565 S
C472   C135    1.518   1_565 S
C473   C474    1.438   .     S
C474   O511    1.275   .     A
C474   O517    1.275   .     A
C475   O512    1.283   .     A
C475   O518    1.274   .     A
C476   C481    1.384   .     A
C476   H502    1.083   .     S
C476   C1007   1.388   .     S
C477   C480    1.451   .     S
C477   O509    1.280   .     A
C477   O507    1.269   .     A
C478   O510    1.288   .     A
C478   O508    1.282   .     A
C479   H498    1.084   .     S
C479   C1011   1.401   1_554 S
C481   H500    1.084   .     S
C482   N504    1.158   .     T
C482   C355    1.450   1_655 S
C483   H495    1.111   .     S
C483   H494    1.111   .     S
C484   N505    1.158   .     T
C484   C491    1.448   .     S
C485   H501    1.076   .     S
C485   C998    1.388   1_554 S
C485   C1008   1.418   1_554 S
C486   C487    1.427   .     A
C486   C1007   1.418   .     S
C486   C1010   1.424   .     S
C487   C491    1.423   .     A
C488   C1008   1.424   1_554 S
C488   C1011   1.422   1_554 S
C489   C490    1.391   .     A
C489   C1010   1.422   .     S
C489   C1001   1.401   .     S
C490   H497    1.086   .     S
C490   C491    1.388   .     A
H493   C135    1.109   1_565 S
H496   C125    1.086   1_565 S
O506   Zn519   1.958   .     S
O506   Zn522   1.943   .     S
O506   Zn521   1.942   .     S
O506   Zn520   1.938   .     S
O507   Zn520   1.933   .     S
O508   Zn522   1.937   .     S
O509   Zn521   1.931   .     S
O510   Zn519   1.929   .     S
O511   Zn519   1.927   .     S
O512   Zn522   1.932   .     S
O513   Zn520   1.941   .     S
O514   Zn521   1.944   .     S
O515   Zn522   1.938   .     S
O516   Zn519   1.936   .     S
O517   Zn520   1.938   .     S
O518   Zn521   1.932   .     S
C523   O573    1.267   .     A
C523   C529    1.428   .     S
C523   O571    1.267   .     A
C524   H557    1.077   .     S
C524   C538    1.392   .     A
C524   C546    1.412   .     A
C525   H550    1.084   .     S
C525   C537    1.387   .     A
C525   C538    1.397   .     A
C526   O574    1.271   .     A
C526   C528    1.458   .     S
C526   O572    1.289   .     A
C527   C545    1.422   .     A
C527   C536    1.471   .     S
C527   C539    1.402   .     A
C528   C587    1.349   .     S
C528   H619    1.088   .     S
C529   C644    1.349   1_455 S
C529   C656    1.450   1_455 S
C530   C533    1.462   .     S
C530   C705    1.340   .     S
C530   C715    1.518   .     S
C531   C532    1.438   .     S
C531   C878    1.340   1_545 S
C531   H902    1.086   1_545 S
C532   O569    1.275   .     A
C532   O575    1.275   .     A
C533   O570    1.283   .     A
C533   O576    1.274   .     A
C534   C539    1.384   .     A
C534   H560    1.083   .     S
C534   C21     1.388   1_556 S
C535   C538    1.451   .     S
C535   O567    1.280   .     A
C535   O565    1.269   .     A
C536   O568    1.288   .     A
C536   O566    1.282   .     A
C537   H556    1.084   .     S
C539   H558    1.084   .     S
C540   N562    1.158   .     T
C540   C587    1.450   .     S
C541   H553    1.111   .     S
C541   H552    1.111   .     S
C541   C878    1.518   1_545 S
C541   H899    1.109   1_545 S
C542   N563    1.158   .     T
C542   C549    1.448   .     S
C543   H559    1.076   .     S
C544   C545    1.427   .     A
C544   C21     1.418   1_556 S
C544   C24     1.424   1_556 S
C545   C549    1.423   .     A
C547   C548    1.391   .     A
C547   C24     1.422   1_556 S
C547   C15     1.401   1_556 S
C548   H555    1.086   .     S
C548   C549    1.388   .     A
H551   C715    1.109   .     S
H554   C705    1.086   .     S
H561   C644    1.088   1_455 S
O564   Zn577   1.958   .     S
O564   Zn580   1.943   .     S
O564   Zn579   1.942   .     S
O564   Zn578   1.938   .     S
O565   Zn578   1.933   .     S
O566   Zn580   1.937   .     S
O567   Zn579   1.931   .     S
O568   Zn577   1.929   .     S
O569   Zn577   1.927   .     S
O570   Zn580   1.932   .     S
O571   Zn578   1.941   .     S
O572   Zn579   1.944   .     S
O573   Zn580   1.938   .     S
O574   Zn577   1.936   .     S
O575   Zn578   1.938   .     S
O576   Zn579   1.932   .     S
C581   O631    1.267   .     A
C581   C587    1.428   .     S
C581   O629    1.267   .     A
C582   H615    1.077   .     S
C582   C596    1.392   .     A
C582   C604    1.412   .     A
C583   H608    1.084   .     S
C583   C595    1.387   .     A
C583   C596    1.397   .     A
C584   O632    1.271   .     A
C584   C586    1.458   .     S
C584   O630    1.289   .     A
C585   C603    1.422   .     A
C585   C594    1.471   .     S
C585   C597    1.402   .     A
C586   C645    1.349   .     S
C586   H677    1.088   .     S
C588   C591    1.462   .     S
C588   C763    1.340   .     S
C588   C773    1.518   .     S
C589   C590    1.438   .     S
C589   C936    1.340   1_545 S
C589   H960    1.086   1_545 S
C590   O627    1.275   .     A
C590   O633    1.275   .     A
C591   O628    1.283   .     A
C591   O634    1.274   .     A
C592   C597    1.384   .     A
C592   H618    1.083   .     S
C592   C79     1.388   1_556 S
C593   C596    1.451   .     S
C593   O625    1.280   .     A
C593   O623    1.269   .     A
C594   O626    1.288   .     A
C594   O624    1.282   .     A
C595   H614    1.084   .     S
C597   H616    1.084   .     S
C598   N620    1.158   .     T
C598   C645    1.450   .     S
C599   H611    1.111   .     S
C599   H610    1.111   .     S
C599   C936    1.518   1_545 S
C599   H957    1.109   1_545 S
C600   N621    1.158   .     T
C600   C607    1.448   .     S
C601   H617    1.076   .     S
C602   C603    1.427   .     A
C602   C79     1.418   1_556 S
C602   C82     1.424   1_556 S
C603   C607    1.423   .     A
C605   C606    1.391   .     A
C605   C82     1.422   1_556 S
C605   C73     1.401   1_556 S
C606   H613    1.086   .     S
C606   C607    1.388   .     A
H609   C773    1.109   .     S
H612   C763    1.086   .     S
O622   Zn635   1.958   .     S
O622   Zn638   1.943   .     S
O622   Zn637   1.942   .     S
O622   Zn636   1.938   .     S
O623   Zn636   1.933   .     S
O624   Zn638   1.937   .     S
O625   Zn637   1.931   .     S
O626   Zn635   1.929   .     S
O627   Zn635   1.927   .     S
O628   Zn638   1.932   .     S
O629   Zn636   1.941   .     S
O630   Zn637   1.944   .     S
O631   Zn638   1.938   .     S
O632   Zn635   1.936   .     S
O633   Zn636   1.938   .     S
O634   Zn637   1.932   .     S
C639   O689    1.267   .     A
C639   C645    1.428   .     S
C639   O687    1.267   .     A
C640   H673    1.077   .     S
C640   C654    1.392   .     A
C640   C662    1.412   .     A
C641   H666    1.084   .     S
C641   C653    1.387   .     A
C641   C654    1.397   .     A
C642   O690    1.271   .     A
C642   C644    1.458   .     S
C642   O688    1.289   .     A
C643   C661    1.422   .     A
C643   C652    1.471   .     S
C643   C655    1.402   .     A
C644   C529    1.349   1_655 S
C644   H561    1.088   1_655 S
C646   C649    1.462   .     S
C646   C821    1.340   .     S
C646   C831    1.518   .     S
C647   C648    1.438   .     S
C647   C994    1.340   1_545 S
C647   H1018   1.086   1_545 S
C648   O685    1.275   .     A
C648   O691    1.275   .     A
C649   O686    1.283   .     A
C649   O692    1.274   .     A
C650   C655    1.384   .     A
C650   H676    1.083   .     S
C650   C137    1.388   1_556 S
C651   C654    1.451   .     S
C651   O683    1.280   .     A
C651   O681    1.269   .     A
C652   O684    1.288   .     A
C652   O682    1.282   .     A
C653   H672    1.084   .     S
C655   H674    1.084   .     S
C656   N678    1.158   .     T
C656   C529    1.450   1_655 S
C657   H669    1.111   .     S
C657   H668    1.111   .     S
C657   C994    1.518   1_545 S
C657   H1015   1.109   1_545 S
C658   N679    1.158   .     T
C658   C665    1.448   .     S
C659   H675    1.076   .     S
C660   C661    1.427   .     A
C660   C137    1.418   1_556 S
C660   C140    1.424   1_556 S
C661   C665    1.423   .     A
C663   C664    1.391   .     A
C663   C140    1.422   1_556 S
C663   C131    1.401   1_556 S
C664   H671    1.086   .     S
C664   C665    1.388   .     A
H667   C831    1.109   .     S
H670   C821    1.086   .     S
O680   Zn693   1.958   .     S
O680   Zn696   1.943   .     S
O680   Zn695   1.942   .     S
O680   Zn694   1.938   .     S
O681   Zn694   1.933   .     S
O682   Zn696   1.937   .     S
O683   Zn695   1.931   .     S
O684   Zn693   1.929   .     S
O685   Zn693   1.927   .     S
O686   Zn696   1.932   .     S
O687   Zn694   1.941   .     S
O688   Zn695   1.944   .     S
O689   Zn696   1.938   .     S
O690   Zn693   1.936   .     S
O691   Zn694   1.938   .     S
O692   Zn695   1.932   .     S
C697   O747    1.267   .     A
C697   C703    1.428   .     S
C697   O745    1.267   .     A
C698   H731    1.077   .     S
C698   C712    1.392   .     A
C698   C720    1.412   .     A
C699   H724    1.084   .     S
C699   C711    1.387   .     A
C699   C712    1.397   .     A
C700   O748    1.271   .     A
C700   C702    1.458   .     S
C700   O746    1.289   .     A
C701   C719    1.422   .     A
C701   C710    1.471   .     S
C701   C713    1.402   .     A
C702   C761    1.349   .     S
C702   H793    1.088   .     S
C703   C818    1.349   1_455 S
C703   C830    1.450   1_455 S
C704   C707    1.462   .     S
C704   C879    1.340   .     S
C704   C889    1.518   .     S
C705   C706    1.438   .     S
C706   O743    1.275   .     A
C706   O749    1.275   .     A
C707   O744    1.283   .     A
C707   O750    1.274   .     A
C708   C713    1.384   .     A
C708   H734    1.083   .     S
C708   C195    1.388   1_556 S
C709   C712    1.451   .     S
C709   O741    1.280   .     A
C709   O739    1.269   .     A
C710   O742    1.288   .     A
C710   O740    1.282   .     A
C711   H730    1.084   .     S
C713   H732    1.084   .     S
C714   N736    1.158   .     T
C714   C761    1.450   .     S
C715   H727    1.111   .     S
C715   H726    1.111   .     S
C716   N737    1.158   .     T
C716   C723    1.448   .     S
C717   H733    1.076   .     S
C718   C719    1.427   .     A
C718   C195    1.418   1_556 S
C718   C198    1.424   1_556 S
C719   C723    1.423   .     A
C721   C722    1.391   .     A
C721   C198    1.422   1_556 S
C721   C189    1.401   1_556 S
C722   H729    1.086   .     S
C722   C723    1.388   .     A
H725   C889    1.109   .     S
H728   C879    1.086   .     S
H735   C818    1.088   1_455 S
O738   Zn751   1.958   .     S
O738   Zn754   1.943   .     S
O738   Zn753   1.942   .     S
O738   Zn752   1.938   .     S
O739   Zn752   1.933   .     S
O740   Zn754   1.937   .     S
O741   Zn753   1.931   .     S
O742   Zn751   1.929   .     S
O743   Zn751   1.927   .     S
O744   Zn754   1.932   .     S
O745   Zn752   1.941   .     S
O746   Zn753   1.944   .     S
O747   Zn754   1.938   .     S
O748   Zn751   1.936   .     S
O749   Zn752   1.938   .     S
O750   Zn753   1.932   .     S
C755   O805    1.267   .     A
C755   C761    1.428   .     S
C755   O803    1.267   .     A
C756   H789    1.077   .     S
C756   C770    1.392   .     A
C756   C778    1.412   .     A
C757   H782    1.084   .     S
C757   C769    1.387   .     A
C757   C770    1.397   .     A
C758   O806    1.271   .     A
C758   C760    1.458   .     S
C758   O804    1.289   .     A
C759   C777    1.422   .     A
C759   C768    1.471   .     S
C759   C771    1.402   .     A
C760   C819    1.349   .     S
C760   H851    1.088   .     S
C762   C765    1.462   .     S
C762   C937    1.340   .     S
C762   C947    1.518   .     S
C763   C764    1.438   .     S
C764   O801    1.275   .     A
C764   O807    1.275   .     A
C765   O802    1.283   .     A
C765   O808    1.274   .     A
C766   C771    1.384   .     A
C766   H792    1.083   .     S
C766   C253    1.388   1_556 S
C767   C770    1.451   .     S
C767   O799    1.280   .     A
C767   O797    1.269   .     A
C768   O800    1.288   .     A
C768   O798    1.282   .     A
C769   H788    1.084   .     S
C771   H790    1.084   .     S
C772   N794    1.158   .     T
C772   C819    1.450   .     S
C773   H785    1.111   .     S
C773   H784    1.111   .     S
C774   N795    1.158   .     T
C774   C781    1.448   .     S
C775   H791    1.076   .     S
C776   C777    1.427   .     A
C776   C253    1.418   1_556 S
C776   C256    1.424   1_556 S
C777   C781    1.423   .     A
C779   C780    1.391   .     A
C779   C256    1.422   1_556 S
C779   C247    1.401   1_556 S
C780   H787    1.086   .     S
C780   C781    1.388   .     A
H783   C947    1.109   .     S
H786   C937    1.086   .     S
O796   Zn809   1.958   .     S
O796   Zn812   1.943   .     S
O796   Zn811   1.942   .     S
O796   Zn810   1.938   .     S
O797   Zn810   1.933   .     S
O798   Zn812   1.937   .     S
O799   Zn811   1.931   .     S
O800   Zn809   1.929   .     S
O801   Zn809   1.927   .     S
O802   Zn812   1.932   .     S
O803   Zn810   1.941   .     S
O804   Zn811   1.944   .     S
O805   Zn812   1.938   .     S
O806   Zn809   1.936   .     S
O807   Zn810   1.938   .     S
O808   Zn811   1.932   .     S
C813   O863    1.267   .     A
C813   C819    1.428   .     S
C813   O861    1.267   .     A
C814   H847    1.077   .     S
C814   C828    1.392   .     A
C814   C836    1.412   .     A
C815   H840    1.084   .     S
C815   C827    1.387   .     A
C815   C828    1.397   .     A
C816   O864    1.271   .     A
C816   C818    1.458   .     S
C816   O862    1.289   .     A
C817   C835    1.422   .     A
C817   C826    1.471   .     S
C817   C829    1.402   .     A
C818   C703    1.349   1_655 S
C818   H735    1.088   1_655 S
C820   C823    1.462   .     S
C820   C995    1.340   .     S
C820   C1005   1.518   .     S
C821   C822    1.438   .     S
C822   O859    1.275   .     A
C822   O865    1.275   .     A
C823   O860    1.283   .     A
C823   O866    1.274   .     A
C824   C829    1.384   .     A
C824   H850    1.083   .     S
C824   C311    1.388   1_556 S
C825   C828    1.451   .     S
C825   O857    1.280   .     A
C825   O855    1.269   .     A
C826   O858    1.288   .     A
C826   O856    1.282   .     A
C827   H846    1.084   .     S
C829   H848    1.084   .     S
C830   N852    1.158   .     T
C830   C703    1.450   1_655 S
C831   H843    1.111   .     S
C831   H842    1.111   .     S
C832   N853    1.158   .     T
C832   C839    1.448   .     S
C833   H849    1.076   .     S
C834   C835    1.427   .     A
C834   C311    1.418   1_556 S
C834   C314    1.424   1_556 S
C835   C839    1.423   .     A
C837   C838    1.391   .     A
C837   C314    1.422   1_556 S
C837   C305    1.401   1_556 S
C838   H845    1.086   .     S
C838   C839    1.388   .     A
H841   C1005   1.109   .     S
H844   C995    1.086   .     S
O854   Zn867   1.958   .     S
O854   Zn870   1.943   .     S
O854   Zn869   1.942   .     S
O854   Zn868   1.938   .     S
O855   Zn868   1.933   .     S
O856   Zn870   1.937   .     S
O857   Zn869   1.931   .     S
O858   Zn867   1.929   .     S
O859   Zn867   1.927   .     S
O860   Zn870   1.932   .     S
O861   Zn868   1.941   .     S
O862   Zn869   1.944   .     S
O863   Zn870   1.938   .     S
O864   Zn867   1.936   .     S
O865   Zn868   1.938   .     S
O866   Zn869   1.932   .     S
C871   O921    1.267   .     A
C871   C877    1.428   .     S
C871   O919    1.267   .     A
C872   H905    1.077   .     S
C872   C886    1.392   .     A
C872   C894    1.412   .     A
C873   H898    1.084   .     S
C873   C885    1.387   .     A
C873   C886    1.397   .     A
C874   O922    1.271   .     A
C874   C876    1.458   .     S
C874   O920    1.289   .     A
C875   C893    1.422   .     A
C875   C884    1.471   .     S
C875   C887    1.402   .     A
C876   C935    1.349   .     S
C876   H967    1.088   .     S
C877   C992    1.349   1_455 S
C877   C1004   1.450   1_455 S
C878   C881    1.462   .     S
C878   C531    1.340   1_565 S
C878   C541    1.518   1_565 S
C879   C880    1.438   .     S
C880   O917    1.275   .     A
C880   O923    1.275   .     A
C881   O918    1.283   .     A
C881   O924    1.274   .     A
C882   C887    1.384   .     A
C882   H908    1.083   .     S
C882   C369    1.388   1_556 S
C883   C886    1.451   .     S
C883   O915    1.280   .     A
C883   O913    1.269   .     A
C884   O916    1.288   .     A
C884   O914    1.282   .     A
C885   H904    1.084   .     S
C887   H906    1.084   .     S
C888   N910    1.158   .     T
C888   C935    1.450   .     S
C889   H901    1.111   .     S
C889   H900    1.111   .     S
C890   N911    1.158   .     T
C890   C897    1.448   .     S
C891   H907    1.076   .     S
C892   C893    1.427   .     A
C892   C369    1.418   1_556 S
C892   C372    1.424   1_556 S
C893   C897    1.423   .     A
C895   C896    1.391   .     A
C895   C372    1.422   1_556 S
C895   C363    1.401   1_556 S
C896   H903    1.086   .     S
C896   C897    1.388   .     A
H899   C541    1.109   1_565 S
H902   C531    1.086   1_565 S
H909   C992    1.088   1_455 S
O912   Zn925   1.958   .     S
O912   Zn928   1.943   .     S
O912   Zn927   1.942   .     S
O912   Zn926   1.938   .     S
O913   Zn926   1.933   .     S
O914   Zn928   1.937   .     S
O915   Zn927   1.931   .     S
O916   Zn925   1.929   .     S
O917   Zn925   1.927   .     S
O918   Zn928   1.932   .     S
O919   Zn926   1.941   .     S
O920   Zn927   1.944   .     S
O921   Zn928   1.938   .     S
O922   Zn925   1.936   .     S
O923   Zn926   1.938   .     S
O924   Zn927   1.932   .     S
C929   O979    1.267   .     A
C929   C935    1.428   .     S
C929   O977    1.267   .     A
C930   H963    1.077   .     S
C930   C944    1.392   .     A
C930   C952    1.412   .     A
C931   H956    1.084   .     S
C931   C943    1.387   .     A
C931   C944    1.397   .     A
C932   O980    1.271   .     A
C932   C934    1.458   .     S
C932   O978    1.289   .     A
C933   C951    1.422   .     A
C933   C942    1.471   .     S
C933   C945    1.402   .     A
C934   C993    1.349   .     S
C934   H1025   1.088   .     S
C936   C939    1.462   .     S
C936   C589    1.340   1_565 S
C936   C599    1.518   1_565 S
C937   C938    1.438   .     S
C938   O975    1.275   .     A
C938   O981    1.275   .     A
C939   O976    1.283   .     A
C939   O982    1.274   .     A
C940   C945    1.384   .     A
C940   H966    1.083   .     S
C940   C427    1.388   1_556 S
C941   C944    1.451   .     S
C941   O973    1.280   .     A
C941   O971    1.269   .     A
C942   O974    1.288   .     A
C942   O972    1.282   .     A
C943   H962    1.084   .     S
C945   H964    1.084   .     S
C946   N968    1.158   .     T
C946   C993    1.450   .     S
C947   H959    1.111   .     S
C947   H958    1.111   .     S
C948   N969    1.158   .     T
C948   C955    1.448   .     S
C949   H965    1.076   .     S
C950   C951    1.427   .     A
C950   C427    1.418   1_556 S
C950   C430    1.424   1_556 S
C951   C955    1.423   .     A
C953   C954    1.391   .     A
C953   C430    1.422   1_556 S
C953   C421    1.401   1_556 S
C954   H961    1.086   .     S
C954   C955    1.388   .     A
H957   C599    1.109   1_565 S
H960   C589    1.086   1_565 S
O970   Zn983   1.958   .     S
O970   Zn986   1.943   .     S
O970   Zn985   1.942   .     S
O970   Zn984   1.938   .     S
O971   Zn984   1.933   .     S
O972   Zn986   1.937   .     S
O973   Zn985   1.931   .     S
O974   Zn983   1.929   .     S
O975   Zn983   1.927   .     S
O976   Zn986   1.932   .     S
O977   Zn984   1.941   .     S
O978   Zn985   1.944   .     S
O979   Zn986   1.938   .     S
O980   Zn983   1.936   .     S
O981   Zn984   1.938   .     S
O982   Zn985   1.932   .     S
C987   O1037   1.267   .     A
C987   C993    1.428   .     S
C987   O1035   1.267   .     A
C988   H1021   1.077   .     S
C988   C1002   1.392   .     A
C988   C1010   1.412   .     A
C989   H1014   1.084   .     S
C989   C1001   1.387   .     A
C989   C1002   1.397   .     A
C990   O1038   1.271   .     A
C990   C992    1.458   .     S
C990   O1036   1.289   .     A
C991   C1009   1.422   .     A
C991   C1000   1.471   .     S
C991   C1003   1.402   .     A
C992   C877    1.349   1_655 S
C992   H909    1.088   1_655 S
C994   C997    1.462   .     S
C994   C647    1.340   1_565 S
C994   C657    1.518   1_565 S
C995   C996    1.438   .     S
C996   O1033   1.275   .     A
C996   O1039   1.275   .     A
C997   O1034   1.283   .     A
C997   O1040   1.274   .     A
C998   C1003   1.384   .     A
C998   H1024   1.083   .     S
C998   C485    1.388   1_556 S
C999   C1002   1.451   .     S
C999   O1031   1.280   .     A
C999   O1029   1.269   .     A
C1000  O1032   1.288   .     A
C1000  O1030   1.282   .     A
C1001  H1020   1.084   .     S
C1003  H1022   1.084   .     S
C1004  N1026   1.158   .     T
C1004  C877    1.450   1_655 S
C1005  H1017   1.111   .     S
C1005  H1016   1.111   .     S
C1006  N1027   1.158   .     T
C1006  C1013   1.448   .     S
C1007  H1023   1.076   .     S
C1008  C1009   1.427   .     A
C1008  C485    1.418   1_556 S
C1008  C488    1.424   1_556 S
C1009  C1013   1.423   .     A
C1011  C1012   1.391   .     A
C1011  C488    1.422   1_556 S
C1011  C479    1.401   1_556 S
C1012  H1019   1.086   .     S
C1012  C1013   1.388   .     A
H1015  C657    1.109   1_565 S
H1018  C647    1.086   1_565 S
O1028  Zn1041  1.958   .     S
O1028  Zn1044  1.943   .     S
O1028  Zn1043  1.942   .     S
O1028  Zn1042  1.938   .     S
O1029  Zn1042  1.933   .     S
O1030  Zn1044  1.937   .     S
O1031  Zn1043  1.931   .     S
O1032  Zn1041  1.929   .     S
O1033  Zn1041  1.927   .     S
O1034  Zn1044  1.932   .     S
O1035  Zn1042  1.941   .     S
O1036  Zn1043  1.944   .     S
O1037  Zn1044  1.938   .     S
O1038  Zn1041  1.936   .     S
O1039  Zn1042  1.938   .     S
O1040  Zn1043  1.932   .     S
