data_str_m1_o5_o17_pcu_sym.26
_audit_creation_date              2020-01-03
_audit_creation_method            'Materials Studio'
_symmetry_space_group_name_H-M    'P1'
_symmetry_Int_Tables_number       1
_symmetry_cell_setting            triclinic
loop_
_symmetry_equiv_pos_as_xyz
  x,y,z
_cell_length_a                    31.7762
_cell_length_b                    31.7760
_cell_length_c                    34.5971
_cell_angle_alpha                 89.9996
_cell_angle_beta                  89.9995
_cell_angle_gamma                 89.9818
loop_
_atom_site_label
_atom_site_type_symbol
_atom_site_fract_x
_atom_site_fract_y
_atom_site_fract_z
_atom_site_U_iso_or_equiv
_atom_site_adp_type
_atom_site_occupancy
C1     C     0.25000   0.00000   0.35584   0.00000  Uiso   1.00
C2     C     0.33001   0.41999   0.75000   0.00000  Uiso   1.00
C3     C     0.43730   0.29393   0.02001   0.00000  Uiso   1.00
C4     C     0.20620   0.06278   0.97999   0.00000  Uiso   1.00
C5     C     0.29380   0.43722   0.02001   0.00000  Uiso   1.00
C6     C     0.43730   0.29393   0.97999   0.00000  Uiso   1.00
C7     C     0.06270   0.20607   0.02001   0.00000  Uiso   1.00
C8     C     0.45282   0.31338   0.39641   0.00000  Uiso   1.00
C9     C     0.04718   0.18662   0.60359   0.00000  Uiso   1.00
C10    C     0.18668   0.04726   0.39641   0.00000  Uiso   1.00
C11    C     0.31332   0.45274   0.60359   0.00000  Uiso   1.00
C12    C     0.04718   0.18662   0.39641   0.00000  Uiso   1.00
C13    C     0.41999   0.16999   0.25000   0.00000  Uiso   1.00
C14    C     0.45282   0.31338   0.60360   0.00000  Uiso   1.00
C15    C     0.31332   0.45274   0.39641   0.00000  Uiso   1.00
C16    C     0.18668   0.04726   0.60359   0.00000  Uiso   1.00
C17    C     0.20265   0.06325   0.89641   0.00000  Uiso   1.00
C18    C     0.29735   0.43675   0.10359   0.00000  Uiso   1.00
C19    C     0.43683   0.29745   0.89641   0.00000  Uiso   1.00
C20    C     0.06317   0.20255   0.10359   0.00000  Uiso   1.00
C21    C     0.29733   0.43673   0.89641   0.00000  Uiso   1.00
C22    C     0.20267   0.06327   0.10359   0.00000  Uiso   1.00
C23    C     0.06317   0.20253   0.89642   0.00000  Uiso   1.00
C24    C     0.08001   0.33001   0.75000   0.00000  Uiso   1.00
C25    C     0.43683   0.29747   0.10359   0.00000  Uiso   1.00
C26    C     0.33001   0.41999   0.25000   0.00000  Uiso   1.00
C27    C     0.16999   0.08001   0.75000   0.00000  Uiso   1.00
C28    C     0.08001   0.33001   0.25000   0.00000  Uiso   1.00
C29    C     0.41999   0.16999   0.75000   0.00000  Uiso   1.00
C30    C     0.16999   0.41999   0.75000   0.00000  Uiso   1.00
C31    C     0.33001   0.08001   0.25000   0.00000  Uiso   1.00
C32    C     0.41999   0.33001   0.75000   0.00000  Uiso   1.00
C33    C     0.25000   0.00000   0.64416   0.00000  Uiso   1.00
C34    C     0.08001   0.16999   0.25000   0.00000  Uiso   1.00
C35    C     0.33001   0.08001   0.75000   0.00000  Uiso   1.00
C36    C     0.16999   0.41999   0.25000   0.00000  Uiso   1.00
C37    C     0.08001   0.16999   0.75000   0.00000  Uiso   1.00
C38    C     0.41999   0.33001   0.25000   0.00000  Uiso   1.00
C39    C     0.13833   0.38833   0.25000   0.00000  Uiso   1.00
C40    C     0.36167   0.11167   0.75000   0.00000  Uiso   1.00
C41    C     0.11167   0.13834   0.25000   0.00000  Uiso   1.00
C42    C     0.38834   0.36167   0.75000   0.00000  Uiso   1.00
C43    C     0.36167   0.11167   0.25000   0.00000  Uiso   1.00
C44    C     0.00000   0.25000   0.35584   0.00000  Uiso   1.00
C45    C     0.13833   0.38833   0.75000   0.00000  Uiso   1.00
C46    C     0.38834   0.36167   0.25000   0.00000  Uiso   1.00
C47    C     0.11167   0.13834   0.75000   0.00000  Uiso   1.00
C48    C     0.13834   0.11167   0.75000   0.00000  Uiso   1.00
C49    C     0.36167   0.38834   0.25000   0.00000  Uiso   1.00
C50    C     0.11167   0.36167   0.75000   0.00000  Uiso   1.00
C51    C     0.38833   0.13833   0.25000   0.00000  Uiso   1.00
C52    C     0.36167   0.38834   0.75000   0.00000  Uiso   1.00
C53    C     0.13834   0.11167   0.25000   0.00000  Uiso   1.00
C54    C     0.38833   0.13833   0.75000   0.00000  Uiso   1.00
C55    C     0.00000   0.25000   0.64416   0.00000  Uiso   1.00
C56    C     0.11167   0.36167   0.25000   0.00000  Uiso   1.00
C57    C     0.47681   0.28096   0.41830   0.00000  Uiso   1.00
C58    C     0.02319   0.21904   0.58170   0.00000  Uiso   1.00
C59    C     0.21907   0.02323   0.41830   0.00000  Uiso   1.00
C60    C     0.28093   0.47677   0.58170   0.00000  Uiso   1.00
C61    C     0.02319   0.21904   0.41830   0.00000  Uiso   1.00
C62    C     0.47681   0.28096   0.58170   0.00000  Uiso   1.00
C63    C     0.28093   0.47677   0.41830   0.00000  Uiso   1.00
C64    C     0.21907   0.02323   0.58170   0.00000  Uiso   1.00
C65    C     0.22672   0.03090   0.91830   0.00000  Uiso   1.00
C66    C     0.00000   0.25000   0.85584   0.00000  Uiso   1.00
C67    C     0.27328   0.46910   0.08170   0.00000  Uiso   1.00
C68    C     0.46915   0.27333   0.91830   0.00000  Uiso   1.00
C69    C     0.03085   0.22667   0.08170   0.00000  Uiso   1.00
C70    C     0.27327   0.46910   0.91830   0.00000  Uiso   1.00
C71    C     0.22673   0.03090   0.08170   0.00000  Uiso   1.00
C72    C     0.03085   0.22666   0.91830   0.00000  Uiso   1.00
C73    C     0.46915   0.27334   0.08170   0.00000  Uiso   1.00
C74    C    -0.00000   0.25000   0.39819   0.00000  Uiso   1.00
C75    C     0.00000   0.25000   0.60181   0.00000  Uiso   1.00
C76    C     0.25000  -0.00000   0.39820   0.00000  Uiso   1.00
C77    C    -0.00000   0.25000   0.14416   0.00000  Uiso   1.00
C78    C     0.25000   0.00000   0.60180   0.00000  Uiso   1.00
C79    C     0.25000  -0.00000   0.89820   0.00000  Uiso   1.00
C80    C     0.25000   0.00000   0.10180   0.00000  Uiso   1.00
C81    C     0.00000   0.25000   0.89820   0.00000  Uiso   1.00
C82    C    -0.00000   0.25000   0.10180   0.00000  Uiso   1.00
C83    C     0.02272   0.21872   0.45907   0.00000  Uiso   1.00
C84    C     0.47728   0.28129   0.54093   0.00000  Uiso   1.00
C85    C     0.28125   0.47724   0.45907   0.00000  Uiso   1.00
C86    C     0.21875   0.02276   0.54093   0.00000  Uiso   1.00
C87    C     0.47728   0.28129   0.45907   0.00000  Uiso   1.00
C88    C     0.25000   0.00000   0.85584   0.00000  Uiso   1.00
C89    C     0.02272   0.21872   0.54093   0.00000  Uiso   1.00
C90    C     0.21875   0.02276   0.45907   0.00000  Uiso   1.00
C91    C     0.28125   0.47724   0.54093   0.00000  Uiso   1.00
C92    C     0.27281   0.46878   0.95907   0.00000  Uiso   1.00
C93    C     0.22719   0.03122   0.04093   0.00000  Uiso   1.00
C94    C     0.03117   0.22712   0.95907   0.00000  Uiso   1.00
C95    C     0.46883   0.27288   0.04093   0.00000  Uiso   1.00
C96    C     0.22719   0.03122   0.95907   0.00000  Uiso   1.00
C97    C     0.27281   0.46878   0.04093   0.00000  Uiso   1.00
C98    C     0.46883   0.27287   0.95907   0.00000  Uiso   1.00
C99    C     0.25000  -0.00000   0.14416   0.00000  Uiso   1.00
C100   C     0.03117   0.22713   0.04093   0.00000  Uiso   1.00
C101   C     0.00000   0.25000   0.47948   0.00000  Uiso   1.00
C102   C     0.00000   0.25000   0.52052   0.00000  Uiso   1.00
C103   C     0.25000   0.00000   0.47948   0.00000  Uiso   1.00
C104   C     0.25000   0.00000   0.52052   0.00000  Uiso   1.00
C105   C     0.25000   0.00000   0.97948   0.00000  Uiso   1.00
C106   C     0.25000   0.00000   0.02052   0.00000  Uiso   1.00
C107   C     0.00000   0.25000   0.97948   0.00000  Uiso   1.00
C108   C     0.00000   0.25000   0.02052   0.00000  Uiso   1.00
C109   C     0.04360   0.18708   0.47999   0.00000  Uiso   1.00
C110   C     0.16999   0.08001   0.25000   0.00000  Uiso   1.00
C111   C     0.45640   0.31292   0.52001   0.00000  Uiso   1.00
C112   C     0.31286   0.45630   0.47999   0.00000  Uiso   1.00
C113   C     0.18714   0.04370   0.52001   0.00000  Uiso   1.00
C114   C     0.45640   0.31292   0.47999   0.00000  Uiso   1.00
C115   C     0.04360   0.18708   0.52001   0.00000  Uiso   1.00
C116   C     0.18714   0.04370   0.47999   0.00000  Uiso   1.00
C117   C     0.31286   0.45630   0.52001   0.00000  Uiso   1.00
C118   C     0.29380   0.43722   0.97999   0.00000  Uiso   1.00
C119   C     0.20620   0.06278   0.02001   0.00000  Uiso   1.00
C120   C     0.06270   0.20607   0.97999   0.00000  Uiso   1.00
H121   H     0.05989   0.16153   0.46577   0.00000  Uiso   1.00
H122   H     0.18982   0.08828   0.03423   0.00000  Uiso   1.00
H123   H     0.08816   0.18964   0.96577   0.00000  Uiso   1.00
H124   H     0.41184   0.31036   0.03423   0.00000  Uiso   1.00
H125   H     0.18982   0.08827   0.96577   0.00000  Uiso   1.00
H126   H     0.31018   0.41173   0.03423   0.00000  Uiso   1.00
H127   H     0.41184   0.31036   0.96577   0.00000  Uiso   1.00
H128   H     0.08816   0.18964   0.03423   0.00000  Uiso   1.00
H129   H     0.39653   0.33979   0.38487   0.00000  Uiso   1.00
H130   H     0.10347   0.16021   0.61513   0.00000  Uiso   1.00
H131   H     0.16036   0.10358   0.38484   0.00000  Uiso   1.00
H132   H     0.44011   0.33847   0.53423   0.00000  Uiso   1.00
H133   H     0.33964   0.39642   0.61516   0.00000  Uiso   1.00
H134   H     0.10347   0.16021   0.38486   0.00000  Uiso   1.00
H135   H     0.39653   0.33979   0.61514   0.00000  Uiso   1.00
H136   H     0.33964   0.39642   0.38484   0.00000  Uiso   1.00
H137   H     0.16036   0.10358   0.61516   0.00000  Uiso   1.00
H138   H     0.14629   0.08948   0.88483   0.00000  Uiso   1.00
H139   H     0.35371   0.41052   0.11517   0.00000  Uiso   1.00
H140   H     0.41069   0.35386   0.88482   0.00000  Uiso   1.00
H141   H     0.08931   0.14614   0.11518   0.00000  Uiso   1.00
H142   H     0.35368   0.41047   0.88483   0.00000  Uiso   1.00
H143   H     0.33838   0.43997   0.46577   0.00000  Uiso   1.00
H144   H     0.14632   0.08953   0.11517   0.00000  Uiso   1.00
H145   H     0.08928   0.14611   0.88483   0.00000  Uiso   1.00
H146   H     0.41072   0.35389   0.11518   0.00000  Uiso   1.00
H147   H     0.16162   0.06003   0.53423   0.00000  Uiso   1.00
H148   H     0.44011   0.33847   0.46577   0.00000  Uiso   1.00
H149   H     0.05990   0.16153   0.53423   0.00000  Uiso   1.00
H150   H     0.16162   0.06003   0.46577   0.00000  Uiso   1.00
H151   H     0.33838   0.43997   0.53423   0.00000  Uiso   1.00
H152   H     0.31018   0.41172   0.96577   0.00000  Uiso   1.00
O153   O     0.25000   0.00000   0.25000   0.00000  Uiso   1.00
O154   O     0.25000   0.46539   0.66251   0.00000  Uiso   1.00
O155   O     0.46539   0.25000   0.33749   0.00000  Uiso   1.00
O156   O     0.03462   0.25000   0.66251   0.00000  Uiso   1.00
O157   O     0.00000   0.21539   0.83749   0.00000  Uiso   1.00
O158   O     0.00000   0.28462   0.16251   0.00000  Uiso   1.00
O159   O     0.28462   0.00000   0.83749   0.00000  Uiso   1.00
O160   O     0.21539   0.00000   0.16251   0.00000  Uiso   1.00
O161   O     0.00000   0.28462   0.83749   0.00000  Uiso   1.00
O162   O     0.00000   0.21539   0.16251   0.00000  Uiso   1.00
O163   O     0.21539   0.00000   0.83749   0.00000  Uiso   1.00
O164   O     0.25000   0.00000   0.75000   0.00000  Uiso   1.00
O165   O     0.28462   0.00000   0.16251   0.00000  Uiso   1.00
O166   O     0.20127   0.08332   0.27298   0.00000  Uiso   1.00
O167   O     0.29874   0.41668   0.72702   0.00000  Uiso   1.00
O168   O     0.41668   0.20127   0.27298   0.00000  Uiso   1.00
O169   O     0.08332   0.29874   0.72702   0.00000  Uiso   1.00
O170   O     0.29874   0.41668   0.27298   0.00000  Uiso   1.00
O171   O     0.20127   0.08332   0.72702   0.00000  Uiso   1.00
O172   O     0.08332   0.29874   0.27298   0.00000  Uiso   1.00
O173   O     0.41668   0.20127   0.72702   0.00000  Uiso   1.00
O174   O     0.20127   0.41668   0.72702   0.00000  Uiso   1.00
O175   O     0.00000   0.25000   0.25000   0.00000  Uiso   1.00
O176   O     0.29874   0.08332   0.27298   0.00000  Uiso   1.00
O177   O     0.41668   0.29874   0.72702   0.00000  Uiso   1.00
O178   O     0.08332   0.20127   0.27298   0.00000  Uiso   1.00
O179   O     0.29874   0.08332   0.72702   0.00000  Uiso   1.00
O180   O     0.20127   0.41668   0.27298   0.00000  Uiso   1.00
O181   O     0.08332   0.20127   0.72702   0.00000  Uiso   1.00
O182   O     0.41668   0.29874   0.27298   0.00000  Uiso   1.00
O183   O     0.45127   0.33332   0.77298   0.00000  Uiso   1.00
O184   O     0.04874   0.16668   0.22702   0.00000  Uiso   1.00
O185   O     0.16668   0.45127   0.77298   0.00000  Uiso   1.00
O186   O     0.00000   0.25000   0.75000   0.00000  Uiso   1.00
O187   O     0.33332   0.04874   0.22702   0.00000  Uiso   1.00
O188   O     0.04874   0.16668   0.77298   0.00000  Uiso   1.00
O189   O     0.45127   0.33332   0.22702   0.00000  Uiso   1.00
O190   O     0.33332   0.04874   0.77298   0.00000  Uiso   1.00
O191   O     0.16668   0.45127   0.22702   0.00000  Uiso   1.00
O192   O     0.45127   0.16668   0.22702   0.00000  Uiso   1.00
O193   O     0.04874   0.33332   0.77298   0.00000  Uiso   1.00
O194   O     0.16668   0.04874   0.22702   0.00000  Uiso   1.00
O195   O     0.33332   0.45127   0.77298   0.00000  Uiso   1.00
O196   O     0.04874   0.33332   0.22702   0.00000  Uiso   1.00
O197   O     0.25000   0.46539   0.33749   0.00000  Uiso   1.00
O198   O     0.45127   0.16668   0.77298   0.00000  Uiso   1.00
O199   O     0.33332   0.45127   0.22702   0.00000  Uiso   1.00
O200   O     0.16668   0.04874   0.77298   0.00000  Uiso   1.00
O201   O     0.47106   0.33642   0.37359   0.00000  Uiso   1.00
O202   O     0.40934   0.31695   0.40160   0.00000  Uiso   1.00
O203   O     0.02894   0.16358   0.62642   0.00000  Uiso   1.00
O204   O     0.09066   0.18305   0.59840   0.00000  Uiso   1.00
O205   O     0.16360   0.02903   0.37360   0.00000  Uiso   1.00
O206   O     0.18318   0.09075   0.40158   0.00000  Uiso   1.00
O207   O     0.33640   0.47097   0.62640   0.00000  Uiso   1.00
O208   O     0.25000   0.03462   0.66251   0.00000  Uiso   1.00
O209   O     0.31682   0.40925   0.59842   0.00000  Uiso   1.00
O210   O     0.02893   0.16358   0.37359   0.00000  Uiso   1.00
O211   O     0.09066   0.18304   0.40160   0.00000  Uiso   1.00
O212   O     0.47107   0.33642   0.62642   0.00000  Uiso   1.00
O213   O     0.40934   0.31696   0.59840   0.00000  Uiso   1.00
O214   O     0.33640   0.47096   0.37360   0.00000  Uiso   1.00
O215   O     0.31682   0.40925   0.40158   0.00000  Uiso   1.00
O216   O     0.16360   0.02904   0.62640   0.00000  Uiso   1.00
O217   O     0.18318   0.09075   0.59842   0.00000  Uiso   1.00
O218   O     0.22085   0.08638   0.87363   0.00000  Uiso   1.00
O219   O     0.03462   0.25000   0.33749   0.00000  Uiso   1.00
O220   O     0.15915   0.06667   0.90156   0.00000  Uiso   1.00
O221   O     0.27915   0.41362   0.12637   0.00000  Uiso   1.00
O222   O     0.34085   0.43333   0.09844   0.00000  Uiso   1.00
O223   O     0.41366   0.27929   0.87365   0.00000  Uiso   1.00
O224   O     0.43348   0.34096   0.90155   0.00000  Uiso   1.00
O225   O     0.08634   0.22071   0.12636   0.00000  Uiso   1.00
O226   O     0.06652   0.15904   0.09845   0.00000  Uiso   1.00
O227   O     0.27912   0.41362   0.87362   0.00000  Uiso   1.00
O228   O     0.34083   0.43329   0.90156   0.00000  Uiso   1.00
O229   O     0.22088   0.08638   0.12638   0.00000  Uiso   1.00
O230   O     0.46539   0.25000   0.66251   0.00000  Uiso   1.00
O231   O     0.15917   0.06671   0.09844   0.00000  Uiso   1.00
O232   O     0.08634   0.22069   0.87365   0.00000  Uiso   1.00
O233   O     0.06650   0.15902   0.90156   0.00000  Uiso   1.00
O234   O     0.41366   0.27931   0.12636   0.00000  Uiso   1.00
O235   O     0.43350   0.34098   0.09844   0.00000  Uiso   1.00
O236   O     0.25000   0.03462   0.33749   0.00000  Uiso   1.00
Zn237  Zn    0.20053   0.00000   0.21730   0.00000  Uiso   1.00
Zn238  Zn    0.04948   0.25000   0.28270   0.00000  Uiso   1.00
Zn239  Zn    0.25000   0.45053   0.71730   0.00000  Uiso   1.00
Zn240  Zn    0.25000   0.04948   0.28270   0.00000  Uiso   1.00
Zn241  Zn    0.04948   0.25000   0.71730   0.00000  Uiso   1.00
Zn242  Zn    0.45053   0.25000   0.28270   0.00000  Uiso   1.00
Zn243  Zn    0.25000   0.04948   0.71730   0.00000  Uiso   1.00
Zn244  Zn    0.25000   0.45053   0.28270   0.00000  Uiso   1.00
Zn245  Zn    0.29948   0.00000   0.78270   0.00000  Uiso   1.00
Zn246  Zn    0.00000   0.20053   0.21730   0.00000  Uiso   1.00
Zn247  Zn    0.00000   0.29948   0.78270   0.00000  Uiso   1.00
Zn248  Zn    0.29948   0.00000   0.21730   0.00000  Uiso   1.00
Zn249  Zn    0.20053   0.00000   0.78270   0.00000  Uiso   1.00
Zn250  Zn    0.00000   0.29948   0.21730   0.00000  Uiso   1.00
Zn251  Zn    0.00000   0.20053   0.78270   0.00000  Uiso   1.00
Zn252  Zn    0.45053   0.25000   0.71730   0.00000  Uiso   1.00
C253   C     0.75000   0.00000   0.35584   0.00000  Uiso   1.00
C254   C     0.83001   0.41999   0.75000   0.00000  Uiso   1.00
C255   C     0.93730   0.29393   0.02001   0.00000  Uiso   1.00
C256   C     0.70620   0.06278   0.97999   0.00000  Uiso   1.00
C257   C     0.79380   0.43722   0.02001   0.00000  Uiso   1.00
C258   C     0.93730   0.29393   0.97999   0.00000  Uiso   1.00
C259   C     0.56270   0.20607   0.02001   0.00000  Uiso   1.00
C260   C     0.95282   0.31338   0.39641   0.00000  Uiso   1.00
C261   C     0.54718   0.18662   0.60359   0.00000  Uiso   1.00
C262   C     0.68668   0.04726   0.39641   0.00000  Uiso   1.00
C263   C     0.81332   0.45274   0.60359   0.00000  Uiso   1.00
C264   C     0.54718   0.18662   0.39641   0.00000  Uiso   1.00
C265   C     0.91999   0.16999   0.25000   0.00000  Uiso   1.00
C266   C     0.95282   0.31338   0.60360   0.00000  Uiso   1.00
C267   C     0.81332   0.45274   0.39641   0.00000  Uiso   1.00
C268   C     0.68668   0.04726   0.60359   0.00000  Uiso   1.00
C269   C     0.70265   0.06325   0.89641   0.00000  Uiso   1.00
C270   C     0.79735   0.43675   0.10359   0.00000  Uiso   1.00
C271   C     0.93683   0.29745   0.89641   0.00000  Uiso   1.00
C272   C     0.56317   0.20255   0.10359   0.00000  Uiso   1.00
C273   C     0.79733   0.43673   0.89641   0.00000  Uiso   1.00
C274   C     0.70267   0.06327   0.10359   0.00000  Uiso   1.00
C275   C     0.56317   0.20253   0.89642   0.00000  Uiso   1.00
C276   C     0.58001   0.33001   0.75000   0.00000  Uiso   1.00
C277   C     0.93683   0.29747   0.10359   0.00000  Uiso   1.00
C278   C     0.83001   0.41999   0.25000   0.00000  Uiso   1.00
C279   C     0.66999   0.08001   0.75000   0.00000  Uiso   1.00
C280   C     0.58001   0.33001   0.25000   0.00000  Uiso   1.00
C281   C     0.91999   0.16999   0.75000   0.00000  Uiso   1.00
C282   C     0.66999   0.41999   0.75000   0.00000  Uiso   1.00
C283   C     0.83001   0.08001   0.25000   0.00000  Uiso   1.00
C284   C     0.91999   0.33001   0.75000   0.00000  Uiso   1.00
C285   C     0.75000   0.00000   0.64416   0.00000  Uiso   1.00
C286   C     0.58001   0.16999   0.25000   0.00000  Uiso   1.00
C287   C     0.83001   0.08001   0.75000   0.00000  Uiso   1.00
C288   C     0.66999   0.41999   0.25000   0.00000  Uiso   1.00
C289   C     0.58001   0.16999   0.75000   0.00000  Uiso   1.00
C290   C     0.91999   0.33001   0.25000   0.00000  Uiso   1.00
C291   C     0.63833   0.38833   0.25000   0.00000  Uiso   1.00
C292   C     0.86167   0.11167   0.75000   0.00000  Uiso   1.00
C293   C     0.61167   0.13834   0.25000   0.00000  Uiso   1.00
C294   C     0.88834   0.36167   0.75000   0.00000  Uiso   1.00
C295   C     0.86167   0.11167   0.25000   0.00000  Uiso   1.00
C296   C     0.50000   0.25000   0.35584   0.00000  Uiso   1.00
C297   C     0.63833   0.38833   0.75000   0.00000  Uiso   1.00
C298   C     0.88834   0.36167   0.25000   0.00000  Uiso   1.00
C299   C     0.61167   0.13834   0.75000   0.00000  Uiso   1.00
C300   C     0.63834   0.11167   0.75000   0.00000  Uiso   1.00
C301   C     0.86167   0.38834   0.25000   0.00000  Uiso   1.00
C302   C     0.61167   0.36167   0.75000   0.00000  Uiso   1.00
C303   C     0.88833   0.13833   0.25000   0.00000  Uiso   1.00
C304   C     0.86167   0.38834   0.75000   0.00000  Uiso   1.00
C305   C     0.63834   0.11167   0.25000   0.00000  Uiso   1.00
C306   C     0.88833   0.13833   0.75000   0.00000  Uiso   1.00
C307   C     0.50000   0.25000   0.64416   0.00000  Uiso   1.00
C308   C     0.61167   0.36167   0.25000   0.00000  Uiso   1.00
C309   C     0.97681   0.28096   0.41830   0.00000  Uiso   1.00
C310   C     0.52319   0.21904   0.58170   0.00000  Uiso   1.00
C311   C     0.71907   0.02323   0.41830   0.00000  Uiso   1.00
C312   C     0.78093   0.47677   0.58170   0.00000  Uiso   1.00
C313   C     0.52319   0.21904   0.41830   0.00000  Uiso   1.00
C314   C     0.97681   0.28096   0.58170   0.00000  Uiso   1.00
C315   C     0.78093   0.47677   0.41830   0.00000  Uiso   1.00
C316   C     0.71907   0.02323   0.58170   0.00000  Uiso   1.00
C317   C     0.72672   0.03090   0.91830   0.00000  Uiso   1.00
C318   C     0.50000   0.25000   0.85584   0.00000  Uiso   1.00
C319   C     0.77328   0.46910   0.08170   0.00000  Uiso   1.00
C320   C     0.96915   0.27333   0.91830   0.00000  Uiso   1.00
C321   C     0.53085   0.22667   0.08170   0.00000  Uiso   1.00
C322   C     0.77327   0.46910   0.91830   0.00000  Uiso   1.00
C323   C     0.72673   0.03090   0.08170   0.00000  Uiso   1.00
C324   C     0.53085   0.22666   0.91830   0.00000  Uiso   1.00
C325   C     0.96915   0.27334   0.08170   0.00000  Uiso   1.00
C326   C     0.50000   0.25000   0.39819   0.00000  Uiso   1.00
C327   C     0.50000   0.25000   0.60181   0.00000  Uiso   1.00
C328   C     0.75000  -0.00000   0.39820   0.00000  Uiso   1.00
C329   C     0.50000   0.25000   0.14416   0.00000  Uiso   1.00
C330   C     0.75000   0.00000   0.60180   0.00000  Uiso   1.00
C331   C     0.75000  -0.00000   0.89820   0.00000  Uiso   1.00
C332   C     0.75000   0.00000   0.10180   0.00000  Uiso   1.00
C333   C     0.50000   0.25000   0.89820   0.00000  Uiso   1.00
C334   C     0.50000   0.25000   0.10180   0.00000  Uiso   1.00
C335   C     0.52272   0.21872   0.45907   0.00000  Uiso   1.00
C336   C     0.97728   0.28129   0.54093   0.00000  Uiso   1.00
C337   C     0.78125   0.47724   0.45907   0.00000  Uiso   1.00
C338   C     0.71875   0.02276   0.54093   0.00000  Uiso   1.00
C339   C     0.97728   0.28129   0.45907   0.00000  Uiso   1.00
C340   C     0.75000   0.00000   0.85584   0.00000  Uiso   1.00
C341   C     0.52272   0.21872   0.54093   0.00000  Uiso   1.00
C342   C     0.71875   0.02276   0.45907   0.00000  Uiso   1.00
C343   C     0.78125   0.47724   0.54093   0.00000  Uiso   1.00
C344   C     0.77281   0.46878   0.95907   0.00000  Uiso   1.00
C345   C     0.72719   0.03122   0.04093   0.00000  Uiso   1.00
C346   C     0.53117   0.22712   0.95907   0.00000  Uiso   1.00
C347   C     0.96883   0.27288   0.04093   0.00000  Uiso   1.00
C348   C     0.72719   0.03122   0.95907   0.00000  Uiso   1.00
C349   C     0.77281   0.46878   0.04093   0.00000  Uiso   1.00
C350   C     0.96883   0.27287   0.95907   0.00000  Uiso   1.00
C351   C     0.75000  -0.00000   0.14416   0.00000  Uiso   1.00
C352   C     0.53117   0.22713   0.04093   0.00000  Uiso   1.00
C353   C     0.50000   0.25000   0.47948   0.00000  Uiso   1.00
C354   C     0.50000   0.25000   0.52052   0.00000  Uiso   1.00
C355   C     0.75000   0.00000   0.47948   0.00000  Uiso   1.00
C356   C     0.75000   0.00000   0.52052   0.00000  Uiso   1.00
C357   C     0.75000   0.00000   0.97948   0.00000  Uiso   1.00
C358   C     0.75000   0.00000   0.02052   0.00000  Uiso   1.00
C359   C     0.50000   0.25000   0.97948   0.00000  Uiso   1.00
C360   C     0.50000   0.25000   0.02052   0.00000  Uiso   1.00
C361   C     0.54360   0.18708   0.47999   0.00000  Uiso   1.00
C362   C     0.66999   0.08001   0.25000   0.00000  Uiso   1.00
C363   C     0.95640   0.31292   0.52001   0.00000  Uiso   1.00
C364   C     0.81286   0.45630   0.47999   0.00000  Uiso   1.00
C365   C     0.68714   0.04370   0.52001   0.00000  Uiso   1.00
C366   C     0.95640   0.31292   0.47999   0.00000  Uiso   1.00
C367   C     0.54360   0.18708   0.52001   0.00000  Uiso   1.00
C368   C     0.68714   0.04370   0.47999   0.00000  Uiso   1.00
C369   C     0.81286   0.45630   0.52001   0.00000  Uiso   1.00
C370   C     0.79380   0.43722   0.97999   0.00000  Uiso   1.00
C371   C     0.70620   0.06278   0.02001   0.00000  Uiso   1.00
C372   C     0.56270   0.20607   0.97999   0.00000  Uiso   1.00
H373   H     0.55989   0.16153   0.46577   0.00000  Uiso   1.00
H374   H     0.68982   0.08828   0.03423   0.00000  Uiso   1.00
H375   H     0.58816   0.18964   0.96577   0.00000  Uiso   1.00
H376   H     0.91184   0.31036   0.03423   0.00000  Uiso   1.00
H377   H     0.68982   0.08827   0.96577   0.00000  Uiso   1.00
H378   H     0.81018   0.41173   0.03423   0.00000  Uiso   1.00
H379   H     0.91184   0.31036   0.96577   0.00000  Uiso   1.00
H380   H     0.58816   0.18964   0.03423   0.00000  Uiso   1.00
H381   H     0.89653   0.33979   0.38487   0.00000  Uiso   1.00
H382   H     0.60347   0.16021   0.61513   0.00000  Uiso   1.00
H383   H     0.66036   0.10358   0.38484   0.00000  Uiso   1.00
H384   H     0.94011   0.33847   0.53423   0.00000  Uiso   1.00
H385   H     0.83964   0.39642   0.61516   0.00000  Uiso   1.00
H386   H     0.60347   0.16021   0.38486   0.00000  Uiso   1.00
H387   H     0.89653   0.33979   0.61514   0.00000  Uiso   1.00
H388   H     0.83964   0.39642   0.38484   0.00000  Uiso   1.00
H389   H     0.66036   0.10358   0.61516   0.00000  Uiso   1.00
H390   H     0.64629   0.08948   0.88483   0.00000  Uiso   1.00
H391   H     0.85371   0.41052   0.11517   0.00000  Uiso   1.00
H392   H     0.91069   0.35386   0.88482   0.00000  Uiso   1.00
H393   H     0.58931   0.14614   0.11518   0.00000  Uiso   1.00
H394   H     0.85368   0.41047   0.88483   0.00000  Uiso   1.00
H395   H     0.83838   0.43997   0.46577   0.00000  Uiso   1.00
H396   H     0.64632   0.08953   0.11517   0.00000  Uiso   1.00
H397   H     0.58928   0.14611   0.88483   0.00000  Uiso   1.00
H398   H     0.91072   0.35389   0.11518   0.00000  Uiso   1.00
H399   H     0.66162   0.06003   0.53423   0.00000  Uiso   1.00
H400   H     0.94011   0.33847   0.46577   0.00000  Uiso   1.00
H401   H     0.55990   0.16153   0.53423   0.00000  Uiso   1.00
H402   H     0.66162   0.06003   0.46577   0.00000  Uiso   1.00
H403   H     0.83838   0.43997   0.53423   0.00000  Uiso   1.00
H404   H     0.81018   0.41172   0.96577   0.00000  Uiso   1.00
O405   O     0.75000   0.00000   0.25000   0.00000  Uiso   1.00
O406   O     0.75000   0.46539   0.66251   0.00000  Uiso   1.00
O407   O     0.96539   0.25000   0.33749   0.00000  Uiso   1.00
O408   O     0.53462   0.25000   0.66251   0.00000  Uiso   1.00
O409   O     0.50000   0.21539   0.83749   0.00000  Uiso   1.00
O410   O     0.50000   0.28462   0.16251   0.00000  Uiso   1.00
O411   O     0.78462   0.00000   0.83749   0.00000  Uiso   1.00
O412   O     0.71539   0.00000   0.16251   0.00000  Uiso   1.00
O413   O     0.50000   0.28462   0.83749   0.00000  Uiso   1.00
O414   O     0.50000   0.21539   0.16251   0.00000  Uiso   1.00
O415   O     0.71539   0.00000   0.83749   0.00000  Uiso   1.00
O416   O     0.75000   0.00000   0.75000   0.00000  Uiso   1.00
O417   O     0.78462   0.00000   0.16251   0.00000  Uiso   1.00
O418   O     0.70127   0.08332   0.27298   0.00000  Uiso   1.00
O419   O     0.79874   0.41668   0.72702   0.00000  Uiso   1.00
O420   O     0.91668   0.20127   0.27298   0.00000  Uiso   1.00
O421   O     0.58332   0.29874   0.72702   0.00000  Uiso   1.00
O422   O     0.79874   0.41668   0.27298   0.00000  Uiso   1.00
O423   O     0.70127   0.08332   0.72702   0.00000  Uiso   1.00
O424   O     0.58332   0.29874   0.27298   0.00000  Uiso   1.00
O425   O     0.91668   0.20127   0.72702   0.00000  Uiso   1.00
O426   O     0.70127   0.41668   0.72702   0.00000  Uiso   1.00
O427   O     0.50000   0.25000   0.25000   0.00000  Uiso   1.00
O428   O     0.79874   0.08332   0.27298   0.00000  Uiso   1.00
O429   O     0.91668   0.29874   0.72702   0.00000  Uiso   1.00
O430   O     0.58332   0.20127   0.27298   0.00000  Uiso   1.00
O431   O     0.79874   0.08332   0.72702   0.00000  Uiso   1.00
O432   O     0.70127   0.41668   0.27298   0.00000  Uiso   1.00
O433   O     0.58332   0.20127   0.72702   0.00000  Uiso   1.00
O434   O     0.91668   0.29874   0.27298   0.00000  Uiso   1.00
O435   O     0.95127   0.33332   0.77298   0.00000  Uiso   1.00
O436   O     0.54874   0.16668   0.22702   0.00000  Uiso   1.00
O437   O     0.66668   0.45127   0.77298   0.00000  Uiso   1.00
O438   O     0.50000   0.25000   0.75000   0.00000  Uiso   1.00
O439   O     0.83332   0.04874   0.22702   0.00000  Uiso   1.00
O440   O     0.54874   0.16668   0.77298   0.00000  Uiso   1.00
O441   O     0.95127   0.33332   0.22702   0.00000  Uiso   1.00
O442   O     0.83332   0.04874   0.77298   0.00000  Uiso   1.00
O443   O     0.66668   0.45127   0.22702   0.00000  Uiso   1.00
O444   O     0.95127   0.16668   0.22702   0.00000  Uiso   1.00
O445   O     0.54874   0.33332   0.77298   0.00000  Uiso   1.00
O446   O     0.66668   0.04874   0.22702   0.00000  Uiso   1.00
O447   O     0.83332   0.45127   0.77298   0.00000  Uiso   1.00
O448   O     0.54874   0.33332   0.22702   0.00000  Uiso   1.00
O449   O     0.75000   0.46539   0.33749   0.00000  Uiso   1.00
O450   O     0.95127   0.16668   0.77298   0.00000  Uiso   1.00
O451   O     0.83332   0.45127   0.22702   0.00000  Uiso   1.00
O452   O     0.66668   0.04874   0.77298   0.00000  Uiso   1.00
O453   O     0.97106   0.33642   0.37359   0.00000  Uiso   1.00
O454   O     0.90934   0.31695   0.40160   0.00000  Uiso   1.00
O455   O     0.52894   0.16358   0.62642   0.00000  Uiso   1.00
O456   O     0.59066   0.18305   0.59840   0.00000  Uiso   1.00
O457   O     0.66360   0.02903   0.37360   0.00000  Uiso   1.00
O458   O     0.68318   0.09075   0.40158   0.00000  Uiso   1.00
O459   O     0.83640   0.47097   0.62640   0.00000  Uiso   1.00
O460   O     0.75000   0.03462   0.66251   0.00000  Uiso   1.00
O461   O     0.81682   0.40925   0.59842   0.00000  Uiso   1.00
O462   O     0.52893   0.16358   0.37359   0.00000  Uiso   1.00
O463   O     0.59066   0.18304   0.40160   0.00000  Uiso   1.00
O464   O     0.97107   0.33642   0.62642   0.00000  Uiso   1.00
O465   O     0.90934   0.31696   0.59840   0.00000  Uiso   1.00
O466   O     0.83640   0.47096   0.37360   0.00000  Uiso   1.00
O467   O     0.81682   0.40925   0.40158   0.00000  Uiso   1.00
O468   O     0.66360   0.02904   0.62640   0.00000  Uiso   1.00
O469   O     0.68318   0.09075   0.59842   0.00000  Uiso   1.00
O470   O     0.72085   0.08638   0.87363   0.00000  Uiso   1.00
O471   O     0.53462   0.25000   0.33749   0.00000  Uiso   1.00
O472   O     0.65915   0.06667   0.90156   0.00000  Uiso   1.00
O473   O     0.77915   0.41362   0.12637   0.00000  Uiso   1.00
O474   O     0.84085   0.43333   0.09844   0.00000  Uiso   1.00
O475   O     0.91366   0.27929   0.87365   0.00000  Uiso   1.00
O476   O     0.93348   0.34096   0.90155   0.00000  Uiso   1.00
O477   O     0.58634   0.22071   0.12636   0.00000  Uiso   1.00
O478   O     0.56652   0.15904   0.09845   0.00000  Uiso   1.00
O479   O     0.77912   0.41362   0.87362   0.00000  Uiso   1.00
O480   O     0.84083   0.43329   0.90156   0.00000  Uiso   1.00
O481   O     0.72088   0.08638   0.12638   0.00000  Uiso   1.00
O482   O     0.96539   0.25000   0.66251   0.00000  Uiso   1.00
O483   O     0.65917   0.06671   0.09844   0.00000  Uiso   1.00
O484   O     0.58634   0.22069   0.87365   0.00000  Uiso   1.00
O485   O     0.56650   0.15902   0.90156   0.00000  Uiso   1.00
O486   O     0.91366   0.27931   0.12636   0.00000  Uiso   1.00
O487   O     0.93350   0.34098   0.09844   0.00000  Uiso   1.00
O488   O     0.75000   0.03462   0.33749   0.00000  Uiso   1.00
Zn489  Zn    0.70053   0.00000   0.21730   0.00000  Uiso   1.00
Zn490  Zn    0.54948   0.25000   0.28270   0.00000  Uiso   1.00
Zn491  Zn    0.75000   0.45053   0.71730   0.00000  Uiso   1.00
Zn492  Zn    0.75000   0.04948   0.28270   0.00000  Uiso   1.00
Zn493  Zn    0.54948   0.25000   0.71730   0.00000  Uiso   1.00
Zn494  Zn    0.95053   0.25000   0.28270   0.00000  Uiso   1.00
Zn495  Zn    0.75000   0.04948   0.71730   0.00000  Uiso   1.00
Zn496  Zn    0.75000   0.45053   0.28270   0.00000  Uiso   1.00
Zn497  Zn    0.79948   0.00000   0.78270   0.00000  Uiso   1.00
Zn498  Zn    0.50000   0.20053   0.21730   0.00000  Uiso   1.00
Zn499  Zn    0.50000   0.29948   0.78270   0.00000  Uiso   1.00
Zn500  Zn    0.79948   0.00000   0.21730   0.00000  Uiso   1.00
Zn501  Zn    0.70053   0.00000   0.78270   0.00000  Uiso   1.00
Zn502  Zn    0.50000   0.29948   0.21730   0.00000  Uiso   1.00
Zn503  Zn    0.50000   0.20053   0.78270   0.00000  Uiso   1.00
Zn504  Zn    0.95053   0.25000   0.71730   0.00000  Uiso   1.00
C505   C     0.25000   0.50000   0.35584   0.00000  Uiso   1.00
C506   C     0.33001   0.91999   0.75000   0.00000  Uiso   1.00
C507   C     0.43730   0.79393   0.02001   0.00000  Uiso   1.00
C508   C     0.20620   0.56278   0.97999   0.00000  Uiso   1.00
C509   C     0.29380   0.93722   0.02001   0.00000  Uiso   1.00
C510   C     0.43730   0.79393   0.97999   0.00000  Uiso   1.00
C511   C     0.06270   0.70607   0.02001   0.00000  Uiso   1.00
C512   C     0.45282   0.81338   0.39641   0.00000  Uiso   1.00
C513   C     0.04718   0.68662   0.60359   0.00000  Uiso   1.00
C514   C     0.18668   0.54726   0.39641   0.00000  Uiso   1.00
C515   C     0.31332   0.95274   0.60359   0.00000  Uiso   1.00
C516   C     0.04718   0.68662   0.39641   0.00000  Uiso   1.00
C517   C     0.41999   0.66999   0.25000   0.00000  Uiso   1.00
C518   C     0.45282   0.81338   0.60360   0.00000  Uiso   1.00
C519   C     0.31332   0.95274   0.39641   0.00000  Uiso   1.00
C520   C     0.18668   0.54726   0.60359   0.00000  Uiso   1.00
C521   C     0.20265   0.56325   0.89641   0.00000  Uiso   1.00
C522   C     0.29735   0.93675   0.10359   0.00000  Uiso   1.00
C523   C     0.43683   0.79745   0.89641   0.00000  Uiso   1.00
C524   C     0.06317   0.70255   0.10359   0.00000  Uiso   1.00
C525   C     0.29733   0.93673   0.89641   0.00000  Uiso   1.00
C526   C     0.20267   0.56327   0.10359   0.00000  Uiso   1.00
C527   C     0.06317   0.70253   0.89642   0.00000  Uiso   1.00
C528   C     0.08001   0.83001   0.75000   0.00000  Uiso   1.00
C529   C     0.43683   0.79747   0.10359   0.00000  Uiso   1.00
C530   C     0.33001   0.91999   0.25000   0.00000  Uiso   1.00
C531   C     0.16999   0.58001   0.75000   0.00000  Uiso   1.00
C532   C     0.08001   0.83001   0.25000   0.00000  Uiso   1.00
C533   C     0.41999   0.66999   0.75000   0.00000  Uiso   1.00
C534   C     0.16999   0.91999   0.75000   0.00000  Uiso   1.00
C535   C     0.33001   0.58001   0.25000   0.00000  Uiso   1.00
C536   C     0.41999   0.83001   0.75000   0.00000  Uiso   1.00
C537   C     0.25000   0.50000   0.64416   0.00000  Uiso   1.00
C538   C     0.08001   0.66999   0.25000   0.00000  Uiso   1.00
C539   C     0.33001   0.58001   0.75000   0.00000  Uiso   1.00
C540   C     0.16999   0.91999   0.25000   0.00000  Uiso   1.00
C541   C     0.08001   0.66999   0.75000   0.00000  Uiso   1.00
C542   C     0.41999   0.83001   0.25000   0.00000  Uiso   1.00
C543   C     0.13833   0.88833   0.25000   0.00000  Uiso   1.00
C544   C     0.36167   0.61167   0.75000   0.00000  Uiso   1.00
C545   C     0.11167   0.63834   0.25000   0.00000  Uiso   1.00
C546   C     0.38834   0.86167   0.75000   0.00000  Uiso   1.00
C547   C     0.36167   0.61167   0.25000   0.00000  Uiso   1.00
C548   C     0.00000   0.75000   0.35584   0.00000  Uiso   1.00
C549   C     0.13833   0.88833   0.75000   0.00000  Uiso   1.00
C550   C     0.38834   0.86167   0.25000   0.00000  Uiso   1.00
C551   C     0.11167   0.63834   0.75000   0.00000  Uiso   1.00
C552   C     0.13834   0.61167   0.75000   0.00000  Uiso   1.00
C553   C     0.36167   0.88834   0.25000   0.00000  Uiso   1.00
C554   C     0.11167   0.86167   0.75000   0.00000  Uiso   1.00
C555   C     0.38833   0.63833   0.25000   0.00000  Uiso   1.00
C556   C     0.36167   0.88834   0.75000   0.00000  Uiso   1.00
C557   C     0.13834   0.61167   0.25000   0.00000  Uiso   1.00
C558   C     0.38833   0.63833   0.75000   0.00000  Uiso   1.00
C559   C     0.00000   0.75000   0.64416   0.00000  Uiso   1.00
C560   C     0.11167   0.86167   0.25000   0.00000  Uiso   1.00
C561   C     0.47681   0.78096   0.41830   0.00000  Uiso   1.00
C562   C     0.02319   0.71904   0.58170   0.00000  Uiso   1.00
C563   C     0.21907   0.52323   0.41830   0.00000  Uiso   1.00
C564   C     0.28093   0.97677   0.58170   0.00000  Uiso   1.00
C565   C     0.02319   0.71904   0.41830   0.00000  Uiso   1.00
C566   C     0.47681   0.78096   0.58170   0.00000  Uiso   1.00
C567   C     0.28093   0.97677   0.41830   0.00000  Uiso   1.00
C568   C     0.21907   0.52323   0.58170   0.00000  Uiso   1.00
C569   C     0.22672   0.53090   0.91830   0.00000  Uiso   1.00
C570   C     0.00000   0.75000   0.85584   0.00000  Uiso   1.00
C571   C     0.27328   0.96910   0.08170   0.00000  Uiso   1.00
C572   C     0.46915   0.77333   0.91830   0.00000  Uiso   1.00
C573   C     0.03085   0.72667   0.08170   0.00000  Uiso   1.00
C574   C     0.27327   0.96910   0.91830   0.00000  Uiso   1.00
C575   C     0.22673   0.53090   0.08170   0.00000  Uiso   1.00
C576   C     0.03085   0.72666   0.91830   0.00000  Uiso   1.00
C577   C     0.46915   0.77334   0.08170   0.00000  Uiso   1.00
C578   C    -0.00000   0.75000   0.39819   0.00000  Uiso   1.00
C579   C     0.00000   0.75000   0.60181   0.00000  Uiso   1.00
C580   C     0.25000   0.50000   0.39820   0.00000  Uiso   1.00
C581   C    -0.00000   0.75000   0.14416   0.00000  Uiso   1.00
C582   C     0.25000   0.50000   0.60180   0.00000  Uiso   1.00
C583   C     0.25000   0.50000   0.89820   0.00000  Uiso   1.00
C584   C     0.25000   0.50000   0.10180   0.00000  Uiso   1.00
C585   C     0.00000   0.75000   0.89820   0.00000  Uiso   1.00
C586   C    -0.00000   0.75000   0.10180   0.00000  Uiso   1.00
C587   C     0.02272   0.71872   0.45907   0.00000  Uiso   1.00
C588   C     0.47728   0.78129   0.54093   0.00000  Uiso   1.00
C589   C     0.28125   0.97724   0.45907   0.00000  Uiso   1.00
C590   C     0.21875   0.52276   0.54093   0.00000  Uiso   1.00
C591   C     0.47728   0.78129   0.45907   0.00000  Uiso   1.00
C592   C     0.25000   0.50000   0.85584   0.00000  Uiso   1.00
C593   C     0.02272   0.71872   0.54093   0.00000  Uiso   1.00
C594   C     0.21875   0.52276   0.45907   0.00000  Uiso   1.00
C595   C     0.28125   0.97724   0.54093   0.00000  Uiso   1.00
C596   C     0.27281   0.96878   0.95907   0.00000  Uiso   1.00
C597   C     0.22719   0.53122   0.04093   0.00000  Uiso   1.00
C598   C     0.03117   0.72712   0.95907   0.00000  Uiso   1.00
C599   C     0.46883   0.77288   0.04093   0.00000  Uiso   1.00
C600   C     0.22719   0.53122   0.95907   0.00000  Uiso   1.00
C601   C     0.27281   0.96878   0.04093   0.00000  Uiso   1.00
C602   C     0.46883   0.77287   0.95907   0.00000  Uiso   1.00
C603   C     0.25000   0.50000   0.14416   0.00000  Uiso   1.00
C604   C     0.03117   0.72713   0.04093   0.00000  Uiso   1.00
C605   C     0.00000   0.75000   0.47948   0.00000  Uiso   1.00
C606   C     0.00000   0.75000   0.52052   0.00000  Uiso   1.00
C607   C     0.25000   0.50000   0.47948   0.00000  Uiso   1.00
C608   C     0.25000   0.50000   0.52052   0.00000  Uiso   1.00
C609   C     0.25000   0.50000   0.97948   0.00000  Uiso   1.00
C610   C     0.25000   0.50000   0.02052   0.00000  Uiso   1.00
C611   C     0.00000   0.75000   0.97948   0.00000  Uiso   1.00
C612   C     0.00000   0.75000   0.02052   0.00000  Uiso   1.00
C613   C     0.04360   0.68708   0.47999   0.00000  Uiso   1.00
C614   C     0.16999   0.58001   0.25000   0.00000  Uiso   1.00
C615   C     0.45640   0.81292   0.52001   0.00000  Uiso   1.00
C616   C     0.31286   0.95630   0.47999   0.00000  Uiso   1.00
C617   C     0.18714   0.54370   0.52001   0.00000  Uiso   1.00
C618   C     0.45640   0.81292   0.47999   0.00000  Uiso   1.00
C619   C     0.04360   0.68708   0.52001   0.00000  Uiso   1.00
C620   C     0.18714   0.54370   0.47999   0.00000  Uiso   1.00
C621   C     0.31286   0.95630   0.52001   0.00000  Uiso   1.00
C622   C     0.29380   0.93722   0.97999   0.00000  Uiso   1.00
C623   C     0.20620   0.56278   0.02001   0.00000  Uiso   1.00
C624   C     0.06270   0.70607   0.97999   0.00000  Uiso   1.00
H625   H     0.05989   0.66153   0.46577   0.00000  Uiso   1.00
H626   H     0.18982   0.58828   0.03423   0.00000  Uiso   1.00
H627   H     0.08816   0.68964   0.96577   0.00000  Uiso   1.00
H628   H     0.41184   0.81036   0.03423   0.00000  Uiso   1.00
H629   H     0.18982   0.58827   0.96577   0.00000  Uiso   1.00
H630   H     0.31018   0.91173   0.03423   0.00000  Uiso   1.00
H631   H     0.41184   0.81036   0.96577   0.00000  Uiso   1.00
H632   H     0.08816   0.68964   0.03423   0.00000  Uiso   1.00
H633   H     0.39653   0.83979   0.38487   0.00000  Uiso   1.00
H634   H     0.10347   0.66021   0.61513   0.00000  Uiso   1.00
H635   H     0.16036   0.60358   0.38484   0.00000  Uiso   1.00
H636   H     0.44011   0.83847   0.53423   0.00000  Uiso   1.00
H637   H     0.33964   0.89642   0.61516   0.00000  Uiso   1.00
H638   H     0.10347   0.66021   0.38486   0.00000  Uiso   1.00
H639   H     0.39653   0.83979   0.61514   0.00000  Uiso   1.00
H640   H     0.33964   0.89642   0.38484   0.00000  Uiso   1.00
H641   H     0.16036   0.60358   0.61516   0.00000  Uiso   1.00
H642   H     0.14629   0.58948   0.88483   0.00000  Uiso   1.00
H643   H     0.35371   0.91052   0.11517   0.00000  Uiso   1.00
H644   H     0.41069   0.85386   0.88482   0.00000  Uiso   1.00
H645   H     0.08931   0.64614   0.11518   0.00000  Uiso   1.00
H646   H     0.35368   0.91047   0.88483   0.00000  Uiso   1.00
H647   H     0.33838   0.93997   0.46577   0.00000  Uiso   1.00
H648   H     0.14632   0.58953   0.11517   0.00000  Uiso   1.00
H649   H     0.08928   0.64611   0.88483   0.00000  Uiso   1.00
H650   H     0.41072   0.85389   0.11518   0.00000  Uiso   1.00
H651   H     0.16162   0.56003   0.53423   0.00000  Uiso   1.00
H652   H     0.44011   0.83847   0.46577   0.00000  Uiso   1.00
H653   H     0.05990   0.66153   0.53423   0.00000  Uiso   1.00
H654   H     0.16162   0.56003   0.46577   0.00000  Uiso   1.00
H655   H     0.33838   0.93997   0.53423   0.00000  Uiso   1.00
H656   H     0.31018   0.91172   0.96577   0.00000  Uiso   1.00
O657   O     0.25000   0.50000   0.25000   0.00000  Uiso   1.00
O658   O     0.25000   0.96539   0.66251   0.00000  Uiso   1.00
O659   O     0.46539   0.75000   0.33749   0.00000  Uiso   1.00
O660   O     0.03462   0.75000   0.66251   0.00000  Uiso   1.00
O661   O     0.00000   0.71539   0.83749   0.00000  Uiso   1.00
O662   O     0.00000   0.78462   0.16251   0.00000  Uiso   1.00
O663   O     0.28462   0.50000   0.83749   0.00000  Uiso   1.00
O664   O     0.21539   0.50000   0.16251   0.00000  Uiso   1.00
O665   O     0.00000   0.78462   0.83749   0.00000  Uiso   1.00
O666   O     0.00000   0.71539   0.16251   0.00000  Uiso   1.00
O667   O     0.21539   0.50000   0.83749   0.00000  Uiso   1.00
O668   O     0.25000   0.50000   0.75000   0.00000  Uiso   1.00
O669   O     0.28462   0.50000   0.16251   0.00000  Uiso   1.00
O670   O     0.20127   0.58332   0.27298   0.00000  Uiso   1.00
O671   O     0.29874   0.91668   0.72702   0.00000  Uiso   1.00
O672   O     0.41668   0.70127   0.27298   0.00000  Uiso   1.00
O673   O     0.08332   0.79874   0.72702   0.00000  Uiso   1.00
O674   O     0.29874   0.91668   0.27298   0.00000  Uiso   1.00
O675   O     0.20127   0.58332   0.72702   0.00000  Uiso   1.00
O676   O     0.08332   0.79874   0.27298   0.00000  Uiso   1.00
O677   O     0.41668   0.70127   0.72702   0.00000  Uiso   1.00
O678   O     0.20127   0.91668   0.72702   0.00000  Uiso   1.00
O679   O     0.00000   0.75000   0.25000   0.00000  Uiso   1.00
O680   O     0.29874   0.58332   0.27298   0.00000  Uiso   1.00
O681   O     0.41668   0.79874   0.72702   0.00000  Uiso   1.00
O682   O     0.08332   0.70127   0.27298   0.00000  Uiso   1.00
O683   O     0.29874   0.58332   0.72702   0.00000  Uiso   1.00
O684   O     0.20127   0.91668   0.27298   0.00000  Uiso   1.00
O685   O     0.08332   0.70127   0.72702   0.00000  Uiso   1.00
O686   O     0.41668   0.79874   0.27298   0.00000  Uiso   1.00
O687   O     0.45127   0.83332   0.77298   0.00000  Uiso   1.00
O688   O     0.04874   0.66668   0.22702   0.00000  Uiso   1.00
O689   O     0.16668   0.95127   0.77298   0.00000  Uiso   1.00
O690   O     0.00000   0.75000   0.75000   0.00000  Uiso   1.00
O691   O     0.33332   0.54874   0.22702   0.00000  Uiso   1.00
O692   O     0.04874   0.66668   0.77298   0.00000  Uiso   1.00
O693   O     0.45127   0.83332   0.22702   0.00000  Uiso   1.00
O694   O     0.33332   0.54874   0.77298   0.00000  Uiso   1.00
O695   O     0.16668   0.95127   0.22702   0.00000  Uiso   1.00
O696   O     0.45127   0.66668   0.22702   0.00000  Uiso   1.00
O697   O     0.04874   0.83332   0.77298   0.00000  Uiso   1.00
O698   O     0.16668   0.54874   0.22702   0.00000  Uiso   1.00
O699   O     0.33332   0.95127   0.77298   0.00000  Uiso   1.00
O700   O     0.04874   0.83332   0.22702   0.00000  Uiso   1.00
O701   O     0.25000   0.96539   0.33749   0.00000  Uiso   1.00
O702   O     0.45127   0.66668   0.77298   0.00000  Uiso   1.00
O703   O     0.33332   0.95127   0.22702   0.00000  Uiso   1.00
O704   O     0.16668   0.54874   0.77298   0.00000  Uiso   1.00
O705   O     0.47106   0.83642   0.37359   0.00000  Uiso   1.00
O706   O     0.40934   0.81695   0.40160   0.00000  Uiso   1.00
O707   O     0.02894   0.66358   0.62642   0.00000  Uiso   1.00
O708   O     0.09066   0.68305   0.59840   0.00000  Uiso   1.00
O709   O     0.16360   0.52903   0.37360   0.00000  Uiso   1.00
O710   O     0.18318   0.59075   0.40158   0.00000  Uiso   1.00
O711   O     0.33640   0.97097   0.62640   0.00000  Uiso   1.00
O712   O     0.25000   0.53462   0.66251   0.00000  Uiso   1.00
O713   O     0.31682   0.90925   0.59842   0.00000  Uiso   1.00
O714   O     0.02893   0.66358   0.37359   0.00000  Uiso   1.00
O715   O     0.09066   0.68304   0.40160   0.00000  Uiso   1.00
O716   O     0.47107   0.83642   0.62642   0.00000  Uiso   1.00
O717   O     0.40934   0.81696   0.59840   0.00000  Uiso   1.00
O718   O     0.33640   0.97096   0.37360   0.00000  Uiso   1.00
O719   O     0.31682   0.90925   0.40158   0.00000  Uiso   1.00
O720   O     0.16360   0.52904   0.62640   0.00000  Uiso   1.00
O721   O     0.18318   0.59075   0.59842   0.00000  Uiso   1.00
O722   O     0.22085   0.58638   0.87363   0.00000  Uiso   1.00
O723   O     0.03462   0.75000   0.33749   0.00000  Uiso   1.00
O724   O     0.15915   0.56667   0.90156   0.00000  Uiso   1.00
O725   O     0.27915   0.91362   0.12637   0.00000  Uiso   1.00
O726   O     0.34085   0.93333   0.09844   0.00000  Uiso   1.00
O727   O     0.41366   0.77929   0.87365   0.00000  Uiso   1.00
O728   O     0.43348   0.84096   0.90155   0.00000  Uiso   1.00
O729   O     0.08634   0.72071   0.12636   0.00000  Uiso   1.00
O730   O     0.06652   0.65904   0.09845   0.00000  Uiso   1.00
O731   O     0.27912   0.91362   0.87362   0.00000  Uiso   1.00
O732   O     0.34083   0.93329   0.90156   0.00000  Uiso   1.00
O733   O     0.22088   0.58638   0.12638   0.00000  Uiso   1.00
O734   O     0.46539   0.75000   0.66251   0.00000  Uiso   1.00
O735   O     0.15917   0.56671   0.09844   0.00000  Uiso   1.00
O736   O     0.08634   0.72069   0.87365   0.00000  Uiso   1.00
O737   O     0.06650   0.65902   0.90156   0.00000  Uiso   1.00
O738   O     0.41366   0.77931   0.12636   0.00000  Uiso   1.00
O739   O     0.43350   0.84098   0.09844   0.00000  Uiso   1.00
O740   O     0.25000   0.53462   0.33749   0.00000  Uiso   1.00
Zn741  Zn    0.20053   0.50000   0.21730   0.00000  Uiso   1.00
Zn742  Zn    0.04948   0.75000   0.28270   0.00000  Uiso   1.00
Zn743  Zn    0.25000   0.95053   0.71730   0.00000  Uiso   1.00
Zn744  Zn    0.25000   0.54948   0.28270   0.00000  Uiso   1.00
Zn745  Zn    0.04948   0.75000   0.71730   0.00000  Uiso   1.00
Zn746  Zn    0.45053   0.75000   0.28270   0.00000  Uiso   1.00
Zn747  Zn    0.25000   0.54948   0.71730   0.00000  Uiso   1.00
Zn748  Zn    0.25000   0.95053   0.28270   0.00000  Uiso   1.00
Zn749  Zn    0.29948   0.50000   0.78270   0.00000  Uiso   1.00
Zn750  Zn    0.00000   0.70053   0.21730   0.00000  Uiso   1.00
Zn751  Zn    0.00000   0.79948   0.78270   0.00000  Uiso   1.00
Zn752  Zn    0.29948   0.50000   0.21730   0.00000  Uiso   1.00
Zn753  Zn    0.20053   0.50000   0.78270   0.00000  Uiso   1.00
Zn754  Zn    0.00000   0.79948   0.21730   0.00000  Uiso   1.00
Zn755  Zn    0.00000   0.70053   0.78270   0.00000  Uiso   1.00
Zn756  Zn    0.45053   0.75000   0.71730   0.00000  Uiso   1.00
C757   C     0.75000   0.50000   0.35584   0.00000  Uiso   1.00
C758   C     0.83001   0.91999   0.75000   0.00000  Uiso   1.00
C759   C     0.93730   0.79393   0.02001   0.00000  Uiso   1.00
C760   C     0.70620   0.56278   0.97999   0.00000  Uiso   1.00
C761   C     0.79380   0.93722   0.02001   0.00000  Uiso   1.00
C762   C     0.93730   0.79393   0.97999   0.00000  Uiso   1.00
C763   C     0.56270   0.70607   0.02001   0.00000  Uiso   1.00
C764   C     0.95282   0.81338   0.39641   0.00000  Uiso   1.00
C765   C     0.54718   0.68662   0.60359   0.00000  Uiso   1.00
C766   C     0.68668   0.54726   0.39641   0.00000  Uiso   1.00
C767   C     0.81332   0.95274   0.60359   0.00000  Uiso   1.00
C768   C     0.54718   0.68662   0.39641   0.00000  Uiso   1.00
C769   C     0.91999   0.66999   0.25000   0.00000  Uiso   1.00
C770   C     0.95282   0.81338   0.60360   0.00000  Uiso   1.00
C771   C     0.81332   0.95274   0.39641   0.00000  Uiso   1.00
C772   C     0.68668   0.54726   0.60359   0.00000  Uiso   1.00
C773   C     0.70265   0.56325   0.89641   0.00000  Uiso   1.00
C774   C     0.79735   0.93675   0.10359   0.00000  Uiso   1.00
C775   C     0.93683   0.79745   0.89641   0.00000  Uiso   1.00
C776   C     0.56317   0.70255   0.10359   0.00000  Uiso   1.00
C777   C     0.79733   0.93673   0.89641   0.00000  Uiso   1.00
C778   C     0.70267   0.56327   0.10359   0.00000  Uiso   1.00
C779   C     0.56317   0.70253   0.89642   0.00000  Uiso   1.00
C780   C     0.58001   0.83001   0.75000   0.00000  Uiso   1.00
C781   C     0.93683   0.79747   0.10359   0.00000  Uiso   1.00
C782   C     0.83001   0.91999   0.25000   0.00000  Uiso   1.00
C783   C     0.66999   0.58001   0.75000   0.00000  Uiso   1.00
C784   C     0.58001   0.83001   0.25000   0.00000  Uiso   1.00
C785   C     0.91999   0.66999   0.75000   0.00000  Uiso   1.00
C786   C     0.66999   0.91999   0.75000   0.00000  Uiso   1.00
C787   C     0.83001   0.58001   0.25000   0.00000  Uiso   1.00
C788   C     0.91999   0.83001   0.75000   0.00000  Uiso   1.00
C789   C     0.75000   0.50000   0.64416   0.00000  Uiso   1.00
C790   C     0.58001   0.66999   0.25000   0.00000  Uiso   1.00
C791   C     0.83001   0.58001   0.75000   0.00000  Uiso   1.00
C792   C     0.66999   0.91999   0.25000   0.00000  Uiso   1.00
C793   C     0.58001   0.66999   0.75000   0.00000  Uiso   1.00
C794   C     0.91999   0.83001   0.25000   0.00000  Uiso   1.00
C795   C     0.63833   0.88833   0.25000   0.00000  Uiso   1.00
C796   C     0.86167   0.61167   0.75000   0.00000  Uiso   1.00
C797   C     0.61167   0.63834   0.25000   0.00000  Uiso   1.00
C798   C     0.88834   0.86167   0.75000   0.00000  Uiso   1.00
C799   C     0.86167   0.61167   0.25000   0.00000  Uiso   1.00
C800   C     0.50000   0.75000   0.35584   0.00000  Uiso   1.00
C801   C     0.63833   0.88833   0.75000   0.00000  Uiso   1.00
C802   C     0.88834   0.86167   0.25000   0.00000  Uiso   1.00
C803   C     0.61167   0.63834   0.75000   0.00000  Uiso   1.00
C804   C     0.63834   0.61167   0.75000   0.00000  Uiso   1.00
C805   C     0.86167   0.88834   0.25000   0.00000  Uiso   1.00
C806   C     0.61167   0.86167   0.75000   0.00000  Uiso   1.00
C807   C     0.88833   0.63833   0.25000   0.00000  Uiso   1.00
C808   C     0.86167   0.88834   0.75000   0.00000  Uiso   1.00
C809   C     0.63834   0.61167   0.25000   0.00000  Uiso   1.00
C810   C     0.88833   0.63833   0.75000   0.00000  Uiso   1.00
C811   C     0.50000   0.75000   0.64416   0.00000  Uiso   1.00
C812   C     0.61167   0.86167   0.25000   0.00000  Uiso   1.00
C813   C     0.97681   0.78096   0.41830   0.00000  Uiso   1.00
C814   C     0.52319   0.71904   0.58170   0.00000  Uiso   1.00
C815   C     0.71907   0.52323   0.41830   0.00000  Uiso   1.00
C816   C     0.78093   0.97677   0.58170   0.00000  Uiso   1.00
C817   C     0.52319   0.71904   0.41830   0.00000  Uiso   1.00
C818   C     0.97681   0.78096   0.58170   0.00000  Uiso   1.00
C819   C     0.78093   0.97677   0.41830   0.00000  Uiso   1.00
C820   C     0.71907   0.52323   0.58170   0.00000  Uiso   1.00
C821   C     0.72672   0.53090   0.91830   0.00000  Uiso   1.00
C822   C     0.50000   0.75000   0.85584   0.00000  Uiso   1.00
C823   C     0.77328   0.96910   0.08170   0.00000  Uiso   1.00
C824   C     0.96915   0.77333   0.91830   0.00000  Uiso   1.00
C825   C     0.53085   0.72667   0.08170   0.00000  Uiso   1.00
C826   C     0.77327   0.96910   0.91830   0.00000  Uiso   1.00
C827   C     0.72673   0.53090   0.08170   0.00000  Uiso   1.00
C828   C     0.53085   0.72666   0.91830   0.00000  Uiso   1.00
C829   C     0.96915   0.77334   0.08170   0.00000  Uiso   1.00
C830   C     0.50000   0.75000   0.39819   0.00000  Uiso   1.00
C831   C     0.50000   0.75000   0.60181   0.00000  Uiso   1.00
C832   C     0.75000   0.50000   0.39820   0.00000  Uiso   1.00
C833   C     0.50000   0.75000   0.14416   0.00000  Uiso   1.00
C834   C     0.75000   0.50000   0.60180   0.00000  Uiso   1.00
C835   C     0.75000   0.50000   0.89820   0.00000  Uiso   1.00
C836   C     0.75000   0.50000   0.10180   0.00000  Uiso   1.00
C837   C     0.50000   0.75000   0.89820   0.00000  Uiso   1.00
C838   C     0.50000   0.75000   0.10180   0.00000  Uiso   1.00
C839   C     0.52272   0.71872   0.45907   0.00000  Uiso   1.00
C840   C     0.97728   0.78129   0.54093   0.00000  Uiso   1.00
C841   C     0.78125   0.97724   0.45907   0.00000  Uiso   1.00
C842   C     0.71875   0.52276   0.54093   0.00000  Uiso   1.00
C843   C     0.97728   0.78129   0.45907   0.00000  Uiso   1.00
C844   C     0.75000   0.50000   0.85584   0.00000  Uiso   1.00
C845   C     0.52272   0.71872   0.54093   0.00000  Uiso   1.00
C846   C     0.71875   0.52276   0.45907   0.00000  Uiso   1.00
C847   C     0.78125   0.97724   0.54093   0.00000  Uiso   1.00
C848   C     0.77281   0.96878   0.95907   0.00000  Uiso   1.00
C849   C     0.72719   0.53122   0.04093   0.00000  Uiso   1.00
C850   C     0.53117   0.72712   0.95907   0.00000  Uiso   1.00
C851   C     0.96883   0.77288   0.04093   0.00000  Uiso   1.00
C852   C     0.72719   0.53122   0.95907   0.00000  Uiso   1.00
C853   C     0.77281   0.96878   0.04093   0.00000  Uiso   1.00
C854   C     0.96883   0.77287   0.95907   0.00000  Uiso   1.00
C855   C     0.75000   0.50000   0.14416   0.00000  Uiso   1.00
C856   C     0.53117   0.72713   0.04093   0.00000  Uiso   1.00
C857   C     0.50000   0.75000   0.47948   0.00000  Uiso   1.00
C858   C     0.50000   0.75000   0.52052   0.00000  Uiso   1.00
C859   C     0.75000   0.50000   0.47948   0.00000  Uiso   1.00
C860   C     0.75000   0.50000   0.52052   0.00000  Uiso   1.00
C861   C     0.75000   0.50000   0.97948   0.00000  Uiso   1.00
C862   C     0.75000   0.50000   0.02052   0.00000  Uiso   1.00
C863   C     0.50000   0.75000   0.97948   0.00000  Uiso   1.00
C864   C     0.50000   0.75000   0.02052   0.00000  Uiso   1.00
C865   C     0.54360   0.68708   0.47999   0.00000  Uiso   1.00
C866   C     0.66999   0.58001   0.25000   0.00000  Uiso   1.00
C867   C     0.95640   0.81292   0.52001   0.00000  Uiso   1.00
C868   C     0.81286   0.95630   0.47999   0.00000  Uiso   1.00
C869   C     0.68714   0.54370   0.52001   0.00000  Uiso   1.00
C870   C     0.95640   0.81292   0.47999   0.00000  Uiso   1.00
C871   C     0.54360   0.68708   0.52001   0.00000  Uiso   1.00
C872   C     0.68714   0.54370   0.47999   0.00000  Uiso   1.00
C873   C     0.81286   0.95630   0.52001   0.00000  Uiso   1.00
C874   C     0.79380   0.93722   0.97999   0.00000  Uiso   1.00
C875   C     0.70620   0.56278   0.02001   0.00000  Uiso   1.00
C876   C     0.56270   0.70607   0.97999   0.00000  Uiso   1.00
H877   H     0.55989   0.66153   0.46577   0.00000  Uiso   1.00
H878   H     0.68982   0.58828   0.03423   0.00000  Uiso   1.00
H879   H     0.58816   0.68964   0.96577   0.00000  Uiso   1.00
H880   H     0.91184   0.81036   0.03423   0.00000  Uiso   1.00
H881   H     0.68982   0.58827   0.96577   0.00000  Uiso   1.00
H882   H     0.81018   0.91173   0.03423   0.00000  Uiso   1.00
H883   H     0.91184   0.81036   0.96577   0.00000  Uiso   1.00
H884   H     0.58816   0.68964   0.03423   0.00000  Uiso   1.00
H885   H     0.89653   0.83979   0.38487   0.00000  Uiso   1.00
H886   H     0.60347   0.66021   0.61513   0.00000  Uiso   1.00
H887   H     0.66036   0.60358   0.38484   0.00000  Uiso   1.00
H888   H     0.94011   0.83847   0.53423   0.00000  Uiso   1.00
H889   H     0.83964   0.89642   0.61516   0.00000  Uiso   1.00
H890   H     0.60347   0.66021   0.38486   0.00000  Uiso   1.00
H891   H     0.89653   0.83979   0.61514   0.00000  Uiso   1.00
H892   H     0.83964   0.89642   0.38484   0.00000  Uiso   1.00
H893   H     0.66036   0.60358   0.61516   0.00000  Uiso   1.00
H894   H     0.64629   0.58948   0.88483   0.00000  Uiso   1.00
H895   H     0.85371   0.91052   0.11517   0.00000  Uiso   1.00
H896   H     0.91069   0.85386   0.88482   0.00000  Uiso   1.00
H897   H     0.58931   0.64614   0.11518   0.00000  Uiso   1.00
H898   H     0.85368   0.91047   0.88483   0.00000  Uiso   1.00
H899   H     0.83838   0.93997   0.46577   0.00000  Uiso   1.00
H900   H     0.64632   0.58953   0.11517   0.00000  Uiso   1.00
H901   H     0.58928   0.64611   0.88483   0.00000  Uiso   1.00
H902   H     0.91072   0.85389   0.11518   0.00000  Uiso   1.00
H903   H     0.66162   0.56003   0.53423   0.00000  Uiso   1.00
H904   H     0.94011   0.83847   0.46577   0.00000  Uiso   1.00
H905   H     0.55990   0.66153   0.53423   0.00000  Uiso   1.00
H906   H     0.66162   0.56003   0.46577   0.00000  Uiso   1.00
H907   H     0.83838   0.93997   0.53423   0.00000  Uiso   1.00
H908   H     0.81018   0.91172   0.96577   0.00000  Uiso   1.00
O909   O     0.75000   0.50000   0.25000   0.00000  Uiso   1.00
O910   O     0.75000   0.96539   0.66251   0.00000  Uiso   1.00
O911   O     0.96539   0.75000   0.33749   0.00000  Uiso   1.00
O912   O     0.53462   0.75000   0.66251   0.00000  Uiso   1.00
O913   O     0.50000   0.71539   0.83749   0.00000  Uiso   1.00
O914   O     0.50000   0.78462   0.16251   0.00000  Uiso   1.00
O915   O     0.78462   0.50000   0.83749   0.00000  Uiso   1.00
O916   O     0.71539   0.50000   0.16251   0.00000  Uiso   1.00
O917   O     0.50000   0.78462   0.83749   0.00000  Uiso   1.00
O918   O     0.50000   0.71539   0.16251   0.00000  Uiso   1.00
O919   O     0.71539   0.50000   0.83749   0.00000  Uiso   1.00
O920   O     0.75000   0.50000   0.75000   0.00000  Uiso   1.00
O921   O     0.78462   0.50000   0.16251   0.00000  Uiso   1.00
O922   O     0.70127   0.58332   0.27298   0.00000  Uiso   1.00
O923   O     0.79874   0.91668   0.72702   0.00000  Uiso   1.00
O924   O     0.91668   0.70127   0.27298   0.00000  Uiso   1.00
O925   O     0.58332   0.79874   0.72702   0.00000  Uiso   1.00
O926   O     0.79874   0.91668   0.27298   0.00000  Uiso   1.00
O927   O     0.70127   0.58332   0.72702   0.00000  Uiso   1.00
O928   O     0.58332   0.79874   0.27298   0.00000  Uiso   1.00
O929   O     0.91668   0.70127   0.72702   0.00000  Uiso   1.00
O930   O     0.70127   0.91668   0.72702   0.00000  Uiso   1.00
O931   O     0.50000   0.75000   0.25000   0.00000  Uiso   1.00
O932   O     0.79874   0.58332   0.27298   0.00000  Uiso   1.00
O933   O     0.91668   0.79874   0.72702   0.00000  Uiso   1.00
O934   O     0.58332   0.70127   0.27298   0.00000  Uiso   1.00
O935   O     0.79874   0.58332   0.72702   0.00000  Uiso   1.00
O936   O     0.70127   0.91668   0.27298   0.00000  Uiso   1.00
O937   O     0.58332   0.70127   0.72702   0.00000  Uiso   1.00
O938   O     0.91668   0.79874   0.27298   0.00000  Uiso   1.00
O939   O     0.95127   0.83332   0.77298   0.00000  Uiso   1.00
O940   O     0.54874   0.66668   0.22702   0.00000  Uiso   1.00
O941   O     0.66668   0.95127   0.77298   0.00000  Uiso   1.00
O942   O     0.50000   0.75000   0.75000   0.00000  Uiso   1.00
O943   O     0.83332   0.54874   0.22702   0.00000  Uiso   1.00
O944   O     0.54874   0.66668   0.77298   0.00000  Uiso   1.00
O945   O     0.95127   0.83332   0.22702   0.00000  Uiso   1.00
O946   O     0.83332   0.54874   0.77298   0.00000  Uiso   1.00
O947   O     0.66668   0.95127   0.22702   0.00000  Uiso   1.00
O948   O     0.95127   0.66668   0.22702   0.00000  Uiso   1.00
O949   O     0.54874   0.83332   0.77298   0.00000  Uiso   1.00
O950   O     0.66668   0.54874   0.22702   0.00000  Uiso   1.00
O951   O     0.83332   0.95127   0.77298   0.00000  Uiso   1.00
O952   O     0.54874   0.83332   0.22702   0.00000  Uiso   1.00
O953   O     0.75000   0.96539   0.33749   0.00000  Uiso   1.00
O954   O     0.95127   0.66668   0.77298   0.00000  Uiso   1.00
O955   O     0.83332   0.95127   0.22702   0.00000  Uiso   1.00
O956   O     0.66668   0.54874   0.77298   0.00000  Uiso   1.00
O957   O     0.97106   0.83642   0.37359   0.00000  Uiso   1.00
O958   O     0.90934   0.81695   0.40160   0.00000  Uiso   1.00
O959   O     0.52894   0.66358   0.62642   0.00000  Uiso   1.00
O960   O     0.59066   0.68305   0.59840   0.00000  Uiso   1.00
O961   O     0.66360   0.52903   0.37360   0.00000  Uiso   1.00
O962   O     0.68318   0.59075   0.40158   0.00000  Uiso   1.00
O963   O     0.83640   0.97097   0.62640   0.00000  Uiso   1.00
O964   O     0.75000   0.53462   0.66251   0.00000  Uiso   1.00
O965   O     0.81682   0.90925   0.59842   0.00000  Uiso   1.00
O966   O     0.52893   0.66358   0.37359   0.00000  Uiso   1.00
O967   O     0.59066   0.68304   0.40160   0.00000  Uiso   1.00
O968   O     0.97107   0.83642   0.62642   0.00000  Uiso   1.00
O969   O     0.90934   0.81696   0.59840   0.00000  Uiso   1.00
O970   O     0.83640   0.97096   0.37360   0.00000  Uiso   1.00
O971   O     0.81682   0.90925   0.40158   0.00000  Uiso   1.00
O972   O     0.66360   0.52904   0.62640   0.00000  Uiso   1.00
O973   O     0.68318   0.59075   0.59842   0.00000  Uiso   1.00
O974   O     0.72085   0.58638   0.87363   0.00000  Uiso   1.00
O975   O     0.53462   0.75000   0.33749   0.00000  Uiso   1.00
O976   O     0.65915   0.56667   0.90156   0.00000  Uiso   1.00
O977   O     0.77915   0.91362   0.12637   0.00000  Uiso   1.00
O978   O     0.84085   0.93333   0.09844   0.00000  Uiso   1.00
O979   O     0.91366   0.77929   0.87365   0.00000  Uiso   1.00
O980   O     0.93348   0.84096   0.90155   0.00000  Uiso   1.00
O981   O     0.58634   0.72071   0.12636   0.00000  Uiso   1.00
O982   O     0.56652   0.65904   0.09845   0.00000  Uiso   1.00
O983   O     0.77912   0.91362   0.87362   0.00000  Uiso   1.00
O984   O     0.84083   0.93329   0.90156   0.00000  Uiso   1.00
O985   O     0.72088   0.58638   0.12638   0.00000  Uiso   1.00
O986   O     0.96539   0.75000   0.66251   0.00000  Uiso   1.00
O987   O     0.65917   0.56671   0.09844   0.00000  Uiso   1.00
O988   O     0.58634   0.72069   0.87365   0.00000  Uiso   1.00
O989   O     0.56650   0.65902   0.90156   0.00000  Uiso   1.00
O990   O     0.91366   0.77931   0.12636   0.00000  Uiso   1.00
O991   O     0.93350   0.84098   0.09844   0.00000  Uiso   1.00
O992   O     0.75000   0.53462   0.33749   0.00000  Uiso   1.00
Zn993  Zn    0.70053   0.50000   0.21730   0.00000  Uiso   1.00
Zn994  Zn    0.54948   0.75000   0.28270   0.00000  Uiso   1.00
Zn995  Zn    0.75000   0.95053   0.71730   0.00000  Uiso   1.00
Zn996  Zn    0.75000   0.54948   0.28270   0.00000  Uiso   1.00
Zn997  Zn    0.54948   0.75000   0.71730   0.00000  Uiso   1.00
Zn998  Zn    0.95053   0.75000   0.28270   0.00000  Uiso   1.00
Zn999  Zn    0.75000   0.54948   0.71730   0.00000  Uiso   1.00
Zn1000 Zn    0.75000   0.95053   0.28270   0.00000  Uiso   1.00
Zn1001 Zn    0.79948   0.50000   0.78270   0.00000  Uiso   1.00
Zn1002 Zn    0.50000   0.70053   0.21730   0.00000  Uiso   1.00
Zn1003 Zn    0.50000   0.79948   0.78270   0.00000  Uiso   1.00
Zn1004 Zn    0.79948   0.50000   0.21730   0.00000  Uiso   1.00
Zn1005 Zn    0.70053   0.50000   0.78270   0.00000  Uiso   1.00
Zn1006 Zn    0.50000   0.79948   0.21730   0.00000  Uiso   1.00
Zn1007 Zn    0.50000   0.70053   0.78270   0.00000  Uiso   1.00
Zn1008 Zn    0.95053   0.75000   0.71730   0.00000  Uiso   1.00
loop_
_geom_bond_atom_site_label_1
_geom_bond_atom_site_label_2
_geom_bond_distance
_geom_bond_site_symmetry_2
_ccdc_geom_bond_type
C1     O701    1.270   1_545 A
C1     C76     1.465   .     S
C1     O236    1.270   .     S
C2     O195    1.277   .     A
C2     C52     1.422   .     S
C2     O167    1.277   .     A
C3     H124    1.081   .     S
C3     C95     1.405   .     A
C3     C6      1.385   1_554 S
C4     H125    1.081   .     S
C4     C96     1.405   .     A
C4     C119    1.385   1_556 S
C5     H126    1.081   .     S
C5     C97     1.405   .     A
C5     C118    1.385   1_554 S
C6     C98     1.405   .     A
C6     H127    1.081   .     S
C6     C3      1.385   1_556 S
C7     H128    1.081   .     S
C7     C100    1.405   .     A
C7     C120    1.385   1_554 S
C8     O201    1.223   .     D
C8     C57     1.488   .     S
C8     O202    1.398   .     S
C9     C58     1.488   .     S
C9     O203    1.223   .     D
C9     O204    1.398   .     S
C10    O205    1.223   .     D
C10    O206    1.398   .     S
C10    C59     1.488   .     S
C11    O207    1.223   .     D
C11    C60     1.488   .     S
C11    O209    1.398   .     S
C12    O211    1.398   .     S
C12    C61     1.488   .     S
C12    O210    1.223   .     D
C13    O192    1.277   .     A
C13    C51     1.423   .     S
C13    O168    1.277   .     A
C14    C62     1.488   .     S
C14    O213    1.398   .     S
C14    O212    1.223   .     D
C15    O214    1.223   .     D
C15    O215    1.398   .     S
C15    C63     1.488   .     S
C16    O216    1.223   .     D
C16    O217    1.398   .     S
C16    C64     1.488   .     S
C17    O220    1.398   .     S
C17    C65     1.488   .     S
C17    O218    1.223   .     D
C18    O221    1.223   .     D
C18    C67     1.488   .     S
C18    O222    1.398   .     S
C19    O224    1.398   .     S
C19    O223    1.223   .     D
C19    C68     1.488   .     S
C20    O226    1.398   .     S
C20    O225    1.223   .     D
C20    C69     1.488   .     S
C21    O227    1.223   .     D
C21    O228    1.398   .     S
C21    C70     1.488   .     S
C22    O231    1.398   .     S
C22    C71     1.488   .     S
C22    O229    1.223   .     D
C23    C72     1.488   .     S
C23    O232    1.223   .     D
C23    O233    1.398   .     S
C24    C50     1.423   .     S
C24    O169    1.277   .     A
C24    O193    1.277   .     A
C25    O234    1.223   .     D
C25    C73     1.488   .     S
C25    O235    1.398   .     S
C26    O170    1.277   .     A
C26    C49     1.422   .     S
C26    O199    1.277   .     A
C27    C48     1.422   .     S
C27    O171    1.277   .     A
C27    O200    1.277   .     A
C28    C56     1.423   .     S
C28    O172    1.277   .     A
C28    O196    1.277   .     A
C29    O173    1.277   .     A
C29    O198    1.277   .     A
C29    C54     1.423   .     S
C30    C45     1.423   .     S
C30    O185    1.277   .     A
C30    O174    1.277   .     A
C31    C43     1.423   .     S
C31    O176    1.277   .     A
C31    O187    1.277   .     A
C32    O183    1.277   .     A
C32    C42     1.422   .     S
C32    O177    1.277   .     A
C33    O208    1.270   .     A
C33    C78     1.465   .     S
C33    O658    1.270   1_545 S
C34    O184    1.277   .     A
C34    C41     1.422   .     S
C34    O178    1.277   .     A
C35    O179    1.277   .     A
C35    O190    1.277   .     A
C35    C40     1.423   .     S
C36    O191    1.277   .     A
C36    O180    1.277   .     A
C36    C39     1.423   .     S
C37    O188    1.277   .     A
C37    C47     1.422   .     S
C37    O181    1.277   .     A
C38    O189    1.277   .     A
C38    O182    1.277   .     A
C38    C46     1.422   .     S
C39    C56     1.199   .     T
C40    C54     1.199   .     T
C41    C53     1.198   .     T
C42    C52     1.198   .     T
C43    C51     1.199   .     T
C44    O407    1.270   1_455 A
C44    C74     1.465   .     S
C44    O219    1.270   .     S
C45    C50     1.199   .     T
C46    C49     1.198   .     T
C47    C48     1.198   .     T
C53    C110    1.422   .     S
C55    C75     1.465   .     S
C55    O156    1.270   .     A
C55    O482    1.270   1_455 S
C57    C87     1.411   .     A
C57    C326    1.412   .     A
C58    C75     1.412   .     A
C58    C89     1.411   .     A
C59    C90     1.411   .     A
C59    C76     1.412   .     S
C60    C91     1.411   .     A
C60    C582    1.412   .     S
C61    C83     1.411   .     A
C61    C74     1.412   .     S
C62    C84     1.411   .     A
C62    C327    1.412   .     S
C63    C580    1.412   .     A
C63    C85     1.411   .     A
C64    C86     1.411   .     A
C64    C78     1.412   .     A
C65    C96     1.411   .     A
C65    C79     1.412   .     S
C66    C81     1.465   .     S
C66    O161    1.270   .     A
C66    O157    1.270   .     A
C67    C97     1.411   .     A
C67    C584    1.412   .     S
C68    C98     1.411   .     A
C68    C333    1.412   .     S
C69    C100    1.411   .     A
C69    C82     1.412   .     S
C70    C583    1.412   .     A
C70    C92     1.411   .     A
C71    C80     1.412   .     A
C71    C93     1.411   .     A
C72    C81     1.412   .     A
C72    C94     1.411   .     A
C73    C334    1.412   .     A
C73    C95     1.411   .     A
C74    C309    1.412   1_455 A
C75    C314    1.412   1_455 S
C76    C567    1.412   1_545 A
C77    O158    1.270   .     A
C77    C82     1.465   .     S
C77    O162    1.270   .     S
C78    C564    1.412   1_545 S
C79    C574    1.412   1_545 A
C79    C88     1.465   .     S
C80    C571    1.412   1_545 S
C80    C99     1.465   .     S
C81    C320    1.412   1_455 S
C82    C325    1.412   1_455 A
C83    C109    1.405   .     A
C83    C101    1.417   .     S
C84    C111    1.405   .     A
C84    C354    1.417   .     S
C85    C112    1.405   .     A
C85    C607    1.417   .     A
C86    C104    1.417   .     A
C86    C113    1.405   .     A
C87    C114    1.405   .     A
C87    C353    1.417   .     A
C88    O159    1.270   .     A
C88    O163    1.270   .     A
C89    C115    1.405   .     A
C89    C102    1.417   .     A
C90    C116    1.405   .     A
C90    C103    1.417   .     S
C91    C117    1.405   .     A
C91    C608    1.417   .     S
C92    C118    1.405   .     A
C92    C609    1.417   .     A
C93    C106    1.417   .     A
C93    C119    1.405   .     A
C94    C120    1.405   .     A
C94    C107    1.417   .     A
C95    C360    1.417   .     A
C96    C105    1.417   .     S
C97    C610    1.417   .     S
C98    C359    1.417   .     S
C99    O160    1.270   .     S
C99    O165    1.270   .     S
C100   C108    1.417   .     S
C101   C339    1.417   1_455 A
C101   C102    1.420   .     S
C102   C336    1.417   1_455 S
C103   C589    1.417   1_545 A
C103   C104    1.420   .     S
C104   C595    1.417   1_545 S
C105   C596    1.417   1_545 A
C105   C106    1.420   1_556 S
C106   C601    1.417   1_545 S
C106   C105    1.420   1_554 S
C107   C350    1.417   1_455 S
C107   C108    1.420   1_556 S
C108   C347    1.417   1_455 A
C108   C107    1.420   1_554 S
C109   H121    1.081   .     S
C109   C115    1.385   .     A
C110   O194    1.277   .     A
C110   O166    1.277   .     A
C111   H132    1.081   .     S
C111   C114    1.385   .     A
C112   H143    1.081   .     S
C112   C117    1.385   .     A
C113   H147    1.081   .     S
C113   C116    1.385   .     A
C114   H148    1.081   .     S
C115   H149    1.081   .     S
C116   H150    1.081   .     S
C117   H151    1.081   .     S
C118   H152    1.081   .     S
C118   C5      1.385   1_556 S
C119   H122    1.081   .     S
C119   C4      1.385   1_554 S
C120   H123    1.081   .     S
C120   C7      1.385   1_556 S
H129   O202    1.014   .     S
H130   O204    1.014   .     S
H131   O206    1.014   .     S
H133   O209    1.014   .     S
H134   O211    1.014   .     S
H135   O213    1.014   .     S
H136   O215    1.014   .     S
H137   O217    1.014   .     S
H138   O220    1.014   .     S
H139   O222    1.014   .     S
H140   O224    1.014   .     S
H141   O226    1.014   .     S
H142   O228    1.014   .     S
H144   O231    1.014   .     S
H145   O233    1.014   .     S
H146   O235    1.014   .     S
O153   Zn248   1.937   .     S
O153   Zn240   1.937   .     S
O153   Zn237   1.937   .     S
O153   Zn748   1.937   1_545 S
O154   Zn239   1.953   .     S
O154   C537    1.270   .     S
O155   C296    1.270   .     A
O155   Zn242   1.954   .     S
O156   Zn241   1.954   .     S
O157   Zn251   1.954   .     S
O158   Zn250   1.954   .     S
O159   Zn245   1.953   .     S
O160   Zn237   1.953   .     S
O161   Zn247   1.953   .     S
O162   Zn246   1.953   .     S
O163   Zn249   1.954   .     S
O164   Zn243   1.937   .     S
O164   Zn249   1.937   .     S
O164   Zn245   1.937   .     S
O164   Zn743   1.937   1_545 S
O165   Zn248   1.954   .     S
O166   Zn240   1.915   .     S
O167   Zn239   1.915   .     S
O168   Zn242   1.915   .     S
O169   Zn241   1.915   .     S
O170   Zn244   1.915   .     S
O171   Zn243   1.915   .     S
O172   Zn238   1.915   .     S
O173   Zn252   1.915   .     S
O174   Zn239   1.915   .     S
O175   Zn238   1.937   .     S
O175   Zn250   1.937   .     S
O175   Zn494   1.937   1_455 S
O175   Zn246   1.937   .     S
O176   Zn240   1.915   .     S
O177   Zn252   1.915   .     S
O178   Zn238   1.915   .     S
O179   Zn243   1.915   .     S
O180   Zn244   1.915   .     S
O181   Zn241   1.915   .     S
O182   Zn242   1.915   .     S
O183   Zn499   1.915   .     S
O184   Zn246   1.915   .     S
O185   Zn753   1.915   .     S
O186   Zn247   1.937   .     S
O186   Zn251   1.937   .     S
O186   Zn241   1.937   .     S
O186   Zn504   1.937   1_455 S
O187   Zn248   1.915   .     S
O188   Zn251   1.915   .     S
O189   Zn502   1.915   .     S
O190   Zn245   1.915   .     S
O191   Zn741   1.915   .     S
O192   Zn498   1.915   .     S
O193   Zn247   1.915   .     S
O194   Zn237   1.915   .     S
O195   Zn749   1.915   .     S
O196   Zn250   1.915   .     S
O197   Zn244   1.954   .     S
O197   C505    1.270   .     A
O198   Zn503   1.915   .     S
O199   Zn752   1.915   .     S
O200   Zn249   1.915   .     S
O208   Zn243   1.954   .     S
O219   Zn238   1.953   .     S
O230   Zn252   1.953   .     S
O230   C307    1.270   .     S
O236   Zn240   1.953   .     S
Zn237  O695    1.915   1_545 S
Zn239  O668    1.937   .     S
Zn242  O427    1.937   .     S
Zn244  O657    1.937   .     S
Zn245  O699    1.915   1_545 S
Zn246  O444    1.915   1_455 S
Zn247  O435    1.915   1_455 S
Zn248  O703    1.915   1_545 S
Zn249  O689    1.915   1_545 S
Zn250  O441    1.915   1_455 S
Zn251  O450    1.915   1_455 S
Zn252  O438    1.937   .     S
C253   O953    1.270   1_545 A
C253   C328    1.465   .     S
C253   O488    1.270   .     S
C254   O447    1.277   .     A
C254   C304    1.422   .     S
C254   O419    1.277   .     A
C255   H376    1.081   .     S
C255   C347    1.405   .     A
C255   C258    1.385   1_554 S
C256   H377    1.081   .     S
C256   C348    1.405   .     A
C256   C371    1.385   1_556 S
C257   H378    1.081   .     S
C257   C349    1.405   .     A
C257   C370    1.385   1_554 S
C258   C350    1.405   .     A
C258   H379    1.081   .     S
C258   C255    1.385   1_556 S
C259   H380    1.081   .     S
C259   C352    1.405   .     A
C259   C372    1.385   1_554 S
C260   O453    1.223   .     D
C260   C309    1.488   .     S
C260   O454    1.398   .     S
C261   C310    1.488   .     S
C261   O455    1.223   .     D
C261   O456    1.398   .     S
C262   O457    1.223   .     D
C262   O458    1.398   .     S
C262   C311    1.488   .     S
C263   O459    1.223   .     D
C263   C312    1.488   .     S
C263   O461    1.398   .     S
C264   O463    1.398   .     S
C264   C313    1.488   .     S
C264   O462    1.223   .     D
C265   O444    1.277   .     A
C265   C303    1.423   .     S
C265   O420    1.277   .     A
C266   C314    1.488   .     S
C266   O465    1.398   .     S
C266   O464    1.223   .     D
C267   O466    1.223   .     D
C267   O467    1.398   .     S
C267   C315    1.488   .     S
C268   O468    1.223   .     D
C268   O469    1.398   .     S
C268   C316    1.488   .     S
C269   O472    1.398   .     S
C269   C317    1.488   .     S
C269   O470    1.223   .     D
C270   O473    1.223   .     D
C270   C319    1.488   .     S
C270   O474    1.398   .     S
C271   O476    1.398   .     S
C271   O475    1.223   .     D
C271   C320    1.488   .     S
C272   O478    1.398   .     S
C272   O477    1.223   .     D
C272   C321    1.488   .     S
C273   O479    1.223   .     D
C273   O480    1.398   .     S
C273   C322    1.488   .     S
C274   O483    1.398   .     S
C274   C323    1.488   .     S
C274   O481    1.223   .     D
C275   C324    1.488   .     S
C275   O484    1.223   .     D
C275   O485    1.398   .     S
C276   C302    1.423   .     S
C276   O421    1.277   .     A
C276   O445    1.277   .     A
C277   O486    1.223   .     D
C277   C325    1.488   .     S
C277   O487    1.398   .     S
C278   O422    1.277   .     A
C278   C301    1.422   .     S
C278   O451    1.277   .     A
C279   C300    1.422   .     S
C279   O423    1.277   .     A
C279   O452    1.277   .     A
C280   C308    1.423   .     S
C280   O424    1.277   .     A
C280   O448    1.277   .     A
C281   O425    1.277   .     A
C281   O450    1.277   .     A
C281   C306    1.423   .     S
C282   C297    1.423   .     S
C282   O437    1.277   .     A
C282   O426    1.277   .     A
C283   C295    1.423   .     S
C283   O428    1.277   .     A
C283   O439    1.277   .     A
C284   O435    1.277   .     A
C284   C294    1.422   .     S
C284   O429    1.277   .     A
C285   O460    1.270   .     A
C285   C330    1.465   .     S
C285   O910    1.270   1_545 S
C286   O436    1.277   .     A
C286   C293    1.422   .     S
C286   O430    1.277   .     A
C287   O431    1.277   .     A
C287   O442    1.277   .     A
C287   C292    1.423   .     S
C288   O443    1.277   .     A
C288   O432    1.277   .     A
C288   C291    1.423   .     S
C289   O440    1.277   .     A
C289   C299    1.422   .     S
C289   O433    1.277   .     A
C290   O441    1.277   .     A
C290   O434    1.277   .     A
C290   C298    1.422   .     S
C291   C308    1.199   .     T
C292   C306    1.199   .     T
C293   C305    1.198   .     T
C294   C304    1.198   .     T
C295   C303    1.199   .     T
C296   C326    1.465   .     S
C296   O471    1.270   .     S
C297   C302    1.199   .     T
C298   C301    1.198   .     T
C299   C300    1.198   .     T
C305   C362    1.422   .     S
C307   C327    1.465   .     S
C307   O408    1.270   .     A
C309   C339    1.411   .     A
C309   C74     1.412   1_655 A
C310   C327    1.412   .     A
C310   C341    1.411   .     A
C311   C342    1.411   .     A
C311   C328    1.412   .     S
C312   C343    1.411   .     A
C312   C834    1.412   .     S
C313   C335    1.411   .     A
C313   C326    1.412   .     S
C314   C336    1.411   .     A
C314   C75     1.412   1_655 S
C315   C832    1.412   .     A
C315   C337    1.411   .     A
C316   C338    1.411   .     A
C316   C330    1.412   .     A
C317   C348    1.411   .     A
C317   C331    1.412   .     S
C318   C333    1.465   .     S
C318   O413    1.270   .     A
C318   O409    1.270   .     A
C319   C349    1.411   .     A
C319   C836    1.412   .     S
C320   C350    1.411   .     A
C320   C81     1.412   1_655 S
C321   C352    1.411   .     A
C321   C334    1.412   .     S
C322   C835    1.412   .     A
C322   C344    1.411   .     A
C323   C332    1.412   .     A
C323   C345    1.411   .     A
C324   C333    1.412   .     A
C324   C346    1.411   .     A
C325   C82     1.412   1_655 A
C325   C347    1.411   .     A
C328   C819    1.412   1_545 A
C329   O410    1.270   .     A
C329   C334    1.465   .     S
C329   O414    1.270   .     S
C330   C816    1.412   1_545 S
C331   C826    1.412   1_545 A
C331   C340    1.465   .     S
C332   C823    1.412   1_545 S
C332   C351    1.465   .     S
C335   C361    1.405   .     A
C335   C353    1.417   .     S
C336   C363    1.405   .     A
C336   C102    1.417   1_655 S
C337   C364    1.405   .     A
C337   C859    1.417   .     A
C338   C356    1.417   .     A
C338   C365    1.405   .     A
C339   C366    1.405   .     A
C339   C101    1.417   1_655 A
C340   O411    1.270   .     A
C340   O415    1.270   .     A
C341   C367    1.405   .     A
C341   C354    1.417   .     A
C342   C368    1.405   .     A
C342   C355    1.417   .     S
C343   C369    1.405   .     A
C343   C860    1.417   .     S
C344   C370    1.405   .     A
C344   C861    1.417   .     A
C345   C358    1.417   .     A
C345   C371    1.405   .     A
C346   C372    1.405   .     A
C346   C359    1.417   .     A
C347   C108    1.417   1_655 A
C348   C357    1.417   .     S
C349   C862    1.417   .     S
C350   C107    1.417   1_655 S
C351   O412    1.270   .     S
C351   O417    1.270   .     S
C352   C360    1.417   .     S
C353   C354    1.420   .     S
C355   C841    1.417   1_545 A
C355   C356    1.420   .     S
C356   C847    1.417   1_545 S
C357   C848    1.417   1_545 A
C357   C358    1.420   1_556 S
C358   C853    1.417   1_545 S
C358   C357    1.420   1_554 S
C359   C360    1.420   1_556 S
C360   C359    1.420   1_554 S
C361   H373    1.081   .     S
C361   C367    1.385   .     A
C362   O446    1.277   .     A
C362   O418    1.277   .     A
C363   H384    1.081   .     S
C363   C366    1.385   .     A
C364   H395    1.081   .     S
C364   C369    1.385   .     A
C365   H399    1.081   .     S
C365   C368    1.385   .     A
C366   H400    1.081   .     S
C367   H401    1.081   .     S
C368   H402    1.081   .     S
C369   H403    1.081   .     S
C370   H404    1.081   .     S
C370   C257    1.385   1_556 S
C371   H374    1.081   .     S
C371   C256    1.385   1_554 S
C372   H375    1.081   .     S
C372   C259    1.385   1_556 S
H381   O454    1.014   .     S
H382   O456    1.014   .     S
H383   O458    1.014   .     S
H385   O461    1.014   .     S
H386   O463    1.014   .     S
H387   O465    1.014   .     S
H388   O467    1.014   .     S
H389   O469    1.014   .     S
H390   O472    1.014   .     S
H391   O474    1.014   .     S
H392   O476    1.014   .     S
H393   O478    1.014   .     S
H394   O480    1.014   .     S
H396   O483    1.014   .     S
H397   O485    1.014   .     S
H398   O487    1.014   .     S
O405   Zn500   1.937   .     S
O405   Zn492   1.937   .     S
O405   Zn489   1.937   .     S
O405   Zn1000  1.937   1_545 S
O406   Zn491   1.953   .     S
O406   C789    1.270   .     S
O407   C44     1.270   1_655 A
O407   Zn494   1.954   .     S
O408   Zn493   1.954   .     S
O409   Zn503   1.954   .     S
O410   Zn502   1.954   .     S
O411   Zn497   1.953   .     S
O412   Zn489   1.953   .     S
O413   Zn499   1.953   .     S
O414   Zn498   1.953   .     S
O415   Zn501   1.954   .     S
O416   Zn495   1.937   .     S
O416   Zn501   1.937   .     S
O416   Zn497   1.937   .     S
O416   Zn995   1.937   1_545 S
O417   Zn500   1.954   .     S
O418   Zn492   1.915   .     S
O419   Zn491   1.915   .     S
O420   Zn494   1.915   .     S
O421   Zn493   1.915   .     S
O422   Zn496   1.915   .     S
O423   Zn495   1.915   .     S
O424   Zn490   1.915   .     S
O425   Zn504   1.915   .     S
O426   Zn491   1.915   .     S
O427   Zn490   1.937   .     S
O427   Zn502   1.937   .     S
O427   Zn498   1.937   .     S
O428   Zn492   1.915   .     S
O429   Zn504   1.915   .     S
O430   Zn490   1.915   .     S
O431   Zn495   1.915   .     S
O432   Zn496   1.915   .     S
O433   Zn493   1.915   .     S
O434   Zn494   1.915   .     S
O435   Zn247   1.915   1_655 S
O436   Zn498   1.915   .     S
O437   Zn1005  1.915   .     S
O438   Zn499   1.937   .     S
O438   Zn503   1.937   .     S
O438   Zn493   1.937   .     S
O439   Zn500   1.915   .     S
O440   Zn503   1.915   .     S
O441   Zn250   1.915   1_655 S
O442   Zn497   1.915   .     S
O443   Zn993   1.915   .     S
O444   Zn246   1.915   1_655 S
O445   Zn499   1.915   .     S
O446   Zn489   1.915   .     S
O447   Zn1001  1.915   .     S
O448   Zn502   1.915   .     S
O449   Zn496   1.954   .     S
O449   C757    1.270   .     A
O450   Zn251   1.915   1_655 S
O451   Zn1004  1.915   .     S
O452   Zn501   1.915   .     S
O460   Zn495   1.954   .     S
O471   Zn490   1.953   .     S
O482   Zn504   1.953   .     S
O482   C55     1.270   1_655 S
O488   Zn492   1.953   .     S
Zn489  O947    1.915   1_545 S
Zn491  O920    1.937   .     S
Zn494  O175    1.937   1_655 S
Zn496  O909    1.937   .     S
Zn497  O951    1.915   1_545 S
Zn500  O955    1.915   1_545 S
Zn501  O941    1.915   1_545 S
Zn504  O186    1.937   1_655 S
C505   C580    1.465   .     S
C505   O740    1.270   .     S
C506   O699    1.277   .     A
C506   C556    1.422   .     S
C506   O671    1.277   .     A
C507   H628    1.081   .     S
C507   C599    1.405   .     A
C507   C510    1.385   1_554 S
C508   H629    1.081   .     S
C508   C600    1.405   .     A
C508   C623    1.385   1_556 S
C509   H630    1.081   .     S
C509   C601    1.405   .     A
C509   C622    1.385   1_554 S
C510   C602    1.405   .     A
C510   H631    1.081   .     S
C510   C507    1.385   1_556 S
C511   H632    1.081   .     S
C511   C604    1.405   .     A
C511   C624    1.385   1_554 S
C512   O705    1.223   .     D
C512   C561    1.488   .     S
C512   O706    1.398   .     S
C513   C562    1.488   .     S
C513   O707    1.223   .     D
C513   O708    1.398   .     S
C514   O709    1.223   .     D
C514   O710    1.398   .     S
C514   C563    1.488   .     S
C515   O711    1.223   .     D
C515   C564    1.488   .     S
C515   O713    1.398   .     S
C516   O715    1.398   .     S
C516   C565    1.488   .     S
C516   O714    1.223   .     D
C517   O696    1.277   .     A
C517   C555    1.423   .     S
C517   O672    1.277   .     A
C518   C566    1.488   .     S
C518   O717    1.398   .     S
C518   O716    1.223   .     D
C519   O718    1.223   .     D
C519   O719    1.398   .     S
C519   C567    1.488   .     S
C520   O720    1.223   .     D
C520   O721    1.398   .     S
C520   C568    1.488   .     S
C521   O724    1.398   .     S
C521   C569    1.488   .     S
C521   O722    1.223   .     D
C522   O725    1.223   .     D
C522   C571    1.488   .     S
C522   O726    1.398   .     S
C523   O728    1.398   .     S
C523   O727    1.223   .     D
C523   C572    1.488   .     S
C524   O730    1.398   .     S
C524   O729    1.223   .     D
C524   C573    1.488   .     S
C525   O731    1.223   .     D
C525   O732    1.398   .     S
C525   C574    1.488   .     S
C526   O735    1.398   .     S
C526   C575    1.488   .     S
C526   O733    1.223   .     D
C527   C576    1.488   .     S
C527   O736    1.223   .     D
C527   O737    1.398   .     S
C528   C554    1.423   .     S
C528   O673    1.277   .     A
C528   O697    1.277   .     A
C529   O738    1.223   .     D
C529   C577    1.488   .     S
C529   O739    1.398   .     S
C530   O674    1.277   .     A
C530   C553    1.422   .     S
C530   O703    1.277   .     A
C531   C552    1.422   .     S
C531   O675    1.277   .     A
C531   O704    1.277   .     A
C532   C560    1.423   .     S
C532   O676    1.277   .     A
C532   O700    1.277   .     A
C533   O677    1.277   .     A
C533   O702    1.277   .     A
C533   C558    1.423   .     S
C534   C549    1.423   .     S
C534   O689    1.277   .     A
C534   O678    1.277   .     A
C535   C547    1.423   .     S
C535   O680    1.277   .     A
C535   O691    1.277   .     A
C536   O687    1.277   .     A
C536   C546    1.422   .     S
C536   O681    1.277   .     A
C537   O712    1.270   .     A
C537   C582    1.465   .     S
C538   O688    1.277   .     A
C538   C545    1.422   .     S
C538   O682    1.277   .     A
C539   O683    1.277   .     A
C539   O694    1.277   .     A
C539   C544    1.423   .     S
C540   O695    1.277   .     A
C540   O684    1.277   .     A
C540   C543    1.423   .     S
C541   O692    1.277   .     A
C541   C551    1.422   .     S
C541   O685    1.277   .     A
C542   O693    1.277   .     A
C542   O686    1.277   .     A
C542   C550    1.422   .     S
C543   C560    1.199   .     T
C544   C558    1.199   .     T
C545   C557    1.198   .     T
C546   C556    1.198   .     T
C547   C555    1.199   .     T
C548   O911    1.270   1_455 A
C548   C578    1.465   .     S
C548   O723    1.270   .     S
C549   C554    1.199   .     T
C550   C553    1.198   .     T
C551   C552    1.198   .     T
C557   C614    1.422   .     S
C559   C579    1.465   .     S
C559   O660    1.270   .     A
C559   O986    1.270   1_455 S
C561   C591    1.411   .     A
C561   C830    1.412   .     A
C562   C579    1.412   .     A
C562   C593    1.411   .     A
C563   C594    1.411   .     A
C563   C580    1.412   .     S
C564   C595    1.411   .     A
C564   C78     1.412   1_565 S
C565   C587    1.411   .     A
C565   C578    1.412   .     S
C566   C588    1.411   .     A
C566   C831    1.412   .     S
C567   C76     1.412   1_565 A
C567   C589    1.411   .     A
C568   C590    1.411   .     A
C568   C582    1.412   .     A
C569   C600    1.411   .     A
C569   C583    1.412   .     S
C570   C585    1.465   .     S
C570   O665    1.270   .     A
C570   O661    1.270   .     A
C571   C601    1.411   .     A
C571   C80     1.412   1_565 S
C572   C602    1.411   .     A
C572   C837    1.412   .     S
C573   C604    1.411   .     A
C573   C586    1.412   .     S
C574   C79     1.412   1_565 A
C574   C596    1.411   .     A
C575   C584    1.412   .     A
C575   C597    1.411   .     A
C576   C585    1.412   .     A
C576   C598    1.411   .     A
C577   C838    1.412   .     A
C577   C599    1.411   .     A
C578   C813    1.412   1_455 A
C579   C818    1.412   1_455 S
C581   O662    1.270   .     A
C581   C586    1.465   .     S
C581   O666    1.270   .     S
C583   C592    1.465   .     S
C584   C603    1.465   .     S
C585   C824    1.412   1_455 S
C586   C829    1.412   1_455 A
C587   C613    1.405   .     A
C587   C605    1.417   .     S
C588   C615    1.405   .     A
C588   C858    1.417   .     S
C589   C616    1.405   .     A
C589   C103    1.417   1_565 A
C590   C608    1.417   .     A
C590   C617    1.405   .     A
C591   C618    1.405   .     A
C591   C857    1.417   .     A
C592   O663    1.270   .     A
C592   O667    1.270   .     A
C593   C619    1.405   .     A
C593   C606    1.417   .     A
C594   C620    1.405   .     A
C594   C607    1.417   .     S
C595   C621    1.405   .     A
C595   C104    1.417   1_565 S
C596   C622    1.405   .     A
C596   C105    1.417   1_565 A
C597   C610    1.417   .     A
C597   C623    1.405   .     A
C598   C624    1.405   .     A
C598   C611    1.417   .     A
C599   C864    1.417   .     A
C600   C609    1.417   .     S
C601   C106    1.417   1_565 S
C602   C863    1.417   .     S
C603   O664    1.270   .     S
C603   O669    1.270   .     S
C604   C612    1.417   .     S
C605   C843    1.417   1_455 A
C605   C606    1.420   .     S
C606   C840    1.417   1_455 S
C607   C608    1.420   .     S
C609   C610    1.420   1_556 S
C610   C609    1.420   1_554 S
C611   C854    1.417   1_455 S
C611   C612    1.420   1_556 S
C612   C851    1.417   1_455 A
C612   C611    1.420   1_554 S
C613   H625    1.081   .     S
C613   C619    1.385   .     A
C614   O698    1.277   .     A
C614   O670    1.277   .     A
C615   H636    1.081   .     S
C615   C618    1.385   .     A
C616   H647    1.081   .     S
C616   C621    1.385   .     A
C617   H651    1.081   .     S
C617   C620    1.385   .     A
C618   H652    1.081   .     S
C619   H653    1.081   .     S
C620   H654    1.081   .     S
C621   H655    1.081   .     S
C622   H656    1.081   .     S
C622   C509    1.385   1_556 S
C623   H626    1.081   .     S
C623   C508    1.385   1_554 S
C624   H627    1.081   .     S
C624   C511    1.385   1_556 S
H633   O706    1.014   .     S
H634   O708    1.014   .     S
H635   O710    1.014   .     S
H637   O713    1.014   .     S
H638   O715    1.014   .     S
H639   O717    1.014   .     S
H640   O719    1.014   .     S
H641   O721    1.014   .     S
H642   O724    1.014   .     S
H643   O726    1.014   .     S
H644   O728    1.014   .     S
H645   O730    1.014   .     S
H646   O732    1.014   .     S
H648   O735    1.014   .     S
H649   O737    1.014   .     S
H650   O739    1.014   .     S
O657   Zn752   1.937   .     S
O657   Zn744   1.937   .     S
O657   Zn741   1.937   .     S
O658   Zn743   1.953   .     S
O658   C33     1.270   1_565 S
O659   C800    1.270   .     A
O659   Zn746   1.954   .     S
O660   Zn745   1.954   .     S
O661   Zn755   1.954   .     S
O662   Zn754   1.954   .     S
O663   Zn749   1.953   .     S
O664   Zn741   1.953   .     S
O665   Zn751   1.953   .     S
O666   Zn750   1.953   .     S
O667   Zn753   1.954   .     S
O668   Zn747   1.937   .     S
O668   Zn753   1.937   .     S
O668   Zn749   1.937   .     S
O669   Zn752   1.954   .     S
O670   Zn744   1.915   .     S
O671   Zn743   1.915   .     S
O672   Zn746   1.915   .     S
O673   Zn745   1.915   .     S
O674   Zn748   1.915   .     S
O675   Zn747   1.915   .     S
O676   Zn742   1.915   .     S
O677   Zn756   1.915   .     S
O678   Zn743   1.915   .     S
O679   Zn742   1.937   .     S
O679   Zn754   1.937   .     S
O679   Zn998   1.937   1_455 S
O679   Zn750   1.937   .     S
O680   Zn744   1.915   .     S
O681   Zn756   1.915   .     S
O682   Zn742   1.915   .     S
O683   Zn747   1.915   .     S
O684   Zn748   1.915   .     S
O685   Zn745   1.915   .     S
O686   Zn746   1.915   .     S
O687   Zn1003  1.915   .     S
O688   Zn750   1.915   .     S
O689   Zn249   1.915   1_565 S
O690   Zn751   1.937   .     S
O690   Zn755   1.937   .     S
O690   Zn745   1.937   .     S
O690   Zn1008  1.937   1_455 S
O691   Zn752   1.915   .     S
O692   Zn755   1.915   .     S
O693   Zn1006  1.915   .     S
O694   Zn749   1.915   .     S
O695   Zn237   1.915   1_565 S
O696   Zn1002  1.915   .     S
O697   Zn751   1.915   .     S
O698   Zn741   1.915   .     S
O699   Zn245   1.915   1_565 S
O700   Zn754   1.915   .     S
O701   Zn748   1.954   .     S
O701   C1      1.270   1_565 A
O702   Zn1007  1.915   .     S
O703   Zn248   1.915   1_565 S
O704   Zn753   1.915   .     S
O712   Zn747   1.954   .     S
O723   Zn742   1.953   .     S
O734   Zn756   1.953   .     S
O734   C811    1.270   .     S
O740   Zn744   1.953   .     S
Zn743  O164    1.937   1_565 S
Zn746  O931    1.937   .     S
Zn748  O153    1.937   1_565 S
Zn750  O948    1.915   1_455 S
Zn751  O939    1.915   1_455 S
Zn754  O945    1.915   1_455 S
Zn755  O954    1.915   1_455 S
Zn756  O942    1.937   .     S
C757   C832    1.465   .     S
C757   O992    1.270   .     S
C758   O951    1.277   .     A
C758   C808    1.422   .     S
C758   O923    1.277   .     A
C759   H880    1.081   .     S
C759   C851    1.405   .     A
C759   C762    1.385   1_554 S
C760   H881    1.081   .     S
C760   C852    1.405   .     A
C760   C875    1.385   1_556 S
C761   H882    1.081   .     S
C761   C853    1.405   .     A
C761   C874    1.385   1_554 S
C762   C854    1.405   .     A
C762   H883    1.081   .     S
C762   C759    1.385   1_556 S
C763   H884    1.081   .     S
C763   C856    1.405   .     A
C763   C876    1.385   1_554 S
C764   O957    1.223   .     D
C764   C813    1.488   .     S
C764   O958    1.398   .     S
C765   C814    1.488   .     S
C765   O959    1.223   .     D
C765   O960    1.398   .     S
C766   O961    1.223   .     D
C766   O962    1.398   .     S
C766   C815    1.488   .     S
C767   O963    1.223   .     D
C767   C816    1.488   .     S
C767   O965    1.398   .     S
C768   O967    1.398   .     S
C768   C817    1.488   .     S
C768   O966    1.223   .     D
C769   O948    1.277   .     A
C769   C807    1.423   .     S
C769   O924    1.277   .     A
C770   C818    1.488   .     S
C770   O969    1.398   .     S
C770   O968    1.223   .     D
C771   O970    1.223   .     D
C771   O971    1.398   .     S
C771   C819    1.488   .     S
C772   O972    1.223   .     D
C772   O973    1.398   .     S
C772   C820    1.488   .     S
C773   O976    1.398   .     S
C773   C821    1.488   .     S
C773   O974    1.223   .     D
C774   O977    1.223   .     D
C774   C823    1.488   .     S
C774   O978    1.398   .     S
C775   O980    1.398   .     S
C775   O979    1.223   .     D
C775   C824    1.488   .     S
C776   O982    1.398   .     S
C776   O981    1.223   .     D
C776   C825    1.488   .     S
C777   O983    1.223   .     D
C777   O984    1.398   .     S
C777   C826    1.488   .     S
C778   O987    1.398   .     S
C778   C827    1.488   .     S
C778   O985    1.223   .     D
C779   C828    1.488   .     S
C779   O988    1.223   .     D
C779   O989    1.398   .     S
C780   C806    1.423   .     S
C780   O925    1.277   .     A
C780   O949    1.277   .     A
C781   O990    1.223   .     D
C781   C829    1.488   .     S
C781   O991    1.398   .     S
C782   O926    1.277   .     A
C782   C805    1.422   .     S
C782   O955    1.277   .     A
C783   C804    1.422   .     S
C783   O927    1.277   .     A
C783   O956    1.277   .     A
C784   C812    1.423   .     S
C784   O928    1.277   .     A
C784   O952    1.277   .     A
C785   O929    1.277   .     A
C785   O954    1.277   .     A
C785   C810    1.423   .     S
C786   C801    1.423   .     S
C786   O941    1.277   .     A
C786   O930    1.277   .     A
C787   C799    1.423   .     S
C787   O932    1.277   .     A
C787   O943    1.277   .     A
C788   O939    1.277   .     A
C788   C798    1.422   .     S
C788   O933    1.277   .     A
C789   O964    1.270   .     A
C789   C834    1.465   .     S
C790   O940    1.277   .     A
C790   C797    1.422   .     S
C790   O934    1.277   .     A
C791   O935    1.277   .     A
C791   O946    1.277   .     A
C791   C796    1.423   .     S
C792   O947    1.277   .     A
C792   O936    1.277   .     A
C792   C795    1.423   .     S
C793   O944    1.277   .     A
C793   C803    1.422   .     S
C793   O937    1.277   .     A
C794   O945    1.277   .     A
C794   O938    1.277   .     A
C794   C802    1.422   .     S
C795   C812    1.199   .     T
C796   C810    1.199   .     T
C797   C809    1.198   .     T
C798   C808    1.198   .     T
C799   C807    1.199   .     T
C800   C830    1.465   .     S
C800   O975    1.270   .     S
C801   C806    1.199   .     T
C802   C805    1.198   .     T
C803   C804    1.198   .     T
C809   C866    1.422   .     S
C811   C831    1.465   .     S
C811   O912    1.270   .     A
C813   C843    1.411   .     A
C813   C578    1.412   1_655 A
C814   C831    1.412   .     A
C814   C845    1.411   .     A
C815   C846    1.411   .     A
C815   C832    1.412   .     S
C816   C847    1.411   .     A
C816   C330    1.412   1_565 S
C817   C839    1.411   .     A
C817   C830    1.412   .     S
C818   C840    1.411   .     A
C818   C579    1.412   1_655 S
C819   C328    1.412   1_565 A
C819   C841    1.411   .     A
C820   C842    1.411   .     A
C820   C834    1.412   .     A
C821   C852    1.411   .     A
C821   C835    1.412   .     S
C822   C837    1.465   .     S
C822   O917    1.270   .     A
C822   O913    1.270   .     A
C823   C853    1.411   .     A
C823   C332    1.412   1_565 S
C824   C854    1.411   .     A
C824   C585    1.412   1_655 S
C825   C856    1.411   .     A
C825   C838    1.412   .     S
C826   C331    1.412   1_565 A
C826   C848    1.411   .     A
C827   C836    1.412   .     A
C827   C849    1.411   .     A
C828   C837    1.412   .     A
C828   C850    1.411   .     A
C829   C586    1.412   1_655 A
C829   C851    1.411   .     A
C833   O914    1.270   .     A
C833   C838    1.465   .     S
C833   O918    1.270   .     S
C835   C844    1.465   .     S
C836   C855    1.465   .     S
C839   C865    1.405   .     A
C839   C857    1.417   .     S
C840   C867    1.405   .     A
C840   C606    1.417   1_655 S
C841   C868    1.405   .     A
C841   C355    1.417   1_565 A
C842   C860    1.417   .     A
C842   C869    1.405   .     A
C843   C870    1.405   .     A
C843   C605    1.417   1_655 A
C844   O915    1.270   .     A
C844   O919    1.270   .     A
C845   C871    1.405   .     A
C845   C858    1.417   .     A
C846   C872    1.405   .     A
C846   C859    1.417   .     S
C847   C873    1.405   .     A
C847   C356    1.417   1_565 S
C848   C874    1.405   .     A
C848   C357    1.417   1_565 A
C849   C862    1.417   .     A
C849   C875    1.405   .     A
C850   C876    1.405   .     A
C850   C863    1.417   .     A
C851   C612    1.417   1_655 A
C852   C861    1.417   .     S
C853   C358    1.417   1_565 S
C854   C611    1.417   1_655 S
C855   O916    1.270   .     S
C855   O921    1.270   .     S
C856   C864    1.417   .     S
C857   C858    1.420   .     S
C859   C860    1.420   .     S
C861   C862    1.420   1_556 S
C862   C861    1.420   1_554 S
C863   C864    1.420   1_556 S
C864   C863    1.420   1_554 S
C865   H877    1.081   .     S
C865   C871    1.385   .     A
C866   O950    1.277   .     A
C866   O922    1.277   .     A
C867   H888    1.081   .     S
C867   C870    1.385   .     A
C868   H899    1.081   .     S
C868   C873    1.385   .     A
C869   H903    1.081   .     S
C869   C872    1.385   .     A
C870   H904    1.081   .     S
C871   H905    1.081   .     S
C872   H906    1.081   .     S
C873   H907    1.081   .     S
C874   H908    1.081   .     S
C874   C761    1.385   1_556 S
C875   H878    1.081   .     S
C875   C760    1.385   1_554 S
C876   H879    1.081   .     S
C876   C763    1.385   1_556 S
H885   O958    1.014   .     S
H886   O960    1.014   .     S
H887   O962    1.014   .     S
H889   O965    1.014   .     S
H890   O967    1.014   .     S
H891   O969    1.014   .     S
H892   O971    1.014   .     S
H893   O973    1.014   .     S
H894   O976    1.014   .     S
H895   O978    1.014   .     S
H896   O980    1.014   .     S
H897   O982    1.014   .     S
H898   O984    1.014   .     S
H900   O987    1.014   .     S
H901   O989    1.014   .     S
H902   O991    1.014   .     S
O909   Zn1004  1.937   .     S
O909   Zn996   1.937   .     S
O909   Zn993   1.937   .     S
O910   Zn995   1.953   .     S
O910   C285    1.270   1_565 S
O911   C548    1.270   1_655 A
O911   Zn998   1.954   .     S
O912   Zn997   1.954   .     S
O913   Zn1007  1.954   .     S
O914   Zn1006  1.954   .     S
O915   Zn1001  1.953   .     S
O916   Zn993   1.953   .     S
O917   Zn1003  1.953   .     S
O918   Zn1002  1.953   .     S
O919   Zn1005  1.954   .     S
O920   Zn999   1.937   .     S
O920   Zn1005  1.937   .     S
O920   Zn1001  1.937   .     S
O921   Zn1004  1.954   .     S
O922   Zn996   1.915   .     S
O923   Zn995   1.915   .     S
O924   Zn998   1.915   .     S
O925   Zn997   1.915   .     S
O926   Zn1000  1.915   .     S
O927   Zn999   1.915   .     S
O928   Zn994   1.915   .     S
O929   Zn1008  1.915   .     S
O930   Zn995   1.915   .     S
O931   Zn994   1.937   .     S
O931   Zn1006  1.937   .     S
O931   Zn1002  1.937   .     S
O932   Zn996   1.915   .     S
O933   Zn1008  1.915   .     S
O934   Zn994   1.915   .     S
O935   Zn999   1.915   .     S
O936   Zn1000  1.915   .     S
O937   Zn997   1.915   .     S
O938   Zn998   1.915   .     S
O939   Zn751   1.915   1_655 S
O940   Zn1002  1.915   .     S
O941   Zn501   1.915   1_565 S
O942   Zn1003  1.937   .     S
O942   Zn1007  1.937   .     S
O942   Zn997   1.937   .     S
O943   Zn1004  1.915   .     S
O944   Zn1007  1.915   .     S
O945   Zn754   1.915   1_655 S
O946   Zn1001  1.915   .     S
O947   Zn489   1.915   1_565 S
O948   Zn750   1.915   1_655 S
O949   Zn1003  1.915   .     S
O950   Zn993   1.915   .     S
O951   Zn497   1.915   1_565 S
O952   Zn1006  1.915   .     S
O953   Zn1000  1.954   .     S
O953   C253    1.270   1_565 A
O954   Zn755   1.915   1_655 S
O955   Zn500   1.915   1_565 S
O956   Zn1005  1.915   .     S
O964   Zn999   1.954   .     S
O975   Zn994   1.953   .     S
O986   Zn1008  1.953   .     S
O986   C559    1.270   1_655 S
O992   Zn996   1.953   .     S
Zn995  O416    1.937   1_565 S
Zn998  O679    1.937   1_655 S
Zn1000 O405    1.937   1_565 S
Zn1008 O690    1.937   1_655 S
