data_str_m1_o5_o17_pcu_sym.100
_audit_creation_date              2020-01-03
_audit_creation_method            'Materials Studio'
_symmetry_space_group_name_H-M    'P1'
_symmetry_Int_Tables_number       1
_symmetry_cell_setting            triclinic
loop_
_symmetry_equiv_pos_as_xyz
  x,y,z
_cell_length_a                    32.4621
_cell_length_b                    32.4621
_cell_length_c                    34.1438
_cell_angle_alpha                 90.0000
_cell_angle_beta                  90.0000
_cell_angle_gamma                 90.0000
loop_
_atom_site_label
_atom_site_type_symbol
_atom_site_fract_x
_atom_site_fract_y
_atom_site_fract_z
_atom_site_U_iso_or_equiv
_atom_site_adp_type
_atom_site_occupancy
C1     C     0.25000   0.00000   0.35585   0.00000  Uiso   1.00
C2     C     0.25000   0.00000   0.64415   0.00000  Uiso   1.00
C3     C     0.00000   0.25000   0.35585   0.00000  Uiso   1.00
C4     C     0.00000   0.25000   0.64415   0.00000  Uiso   1.00
C5     C     0.00000   0.25000   0.85585   0.00000  Uiso   1.00
C6     C     0.00000   0.25000   0.14415   0.00000  Uiso   1.00
C7     C     0.25000   0.00000   0.85585   0.00000  Uiso   1.00
C8     C     0.25000   0.00000   0.14415   0.00000  Uiso   1.00
C9     C     0.16994   0.08006   0.25000   0.00000  Uiso   1.00
C10    C     0.33006   0.41994   0.75000   0.00000  Uiso   1.00
C11    C     0.41994   0.16994   0.25000   0.00000  Uiso   1.00
C12    C     0.08006   0.33006   0.75000   0.00000  Uiso   1.00
C13    C     0.33006   0.41994   0.25000   0.00000  Uiso   1.00
C14    C     0.16994   0.08006   0.75000   0.00000  Uiso   1.00
C15    C     0.08006   0.33006   0.25000   0.00000  Uiso   1.00
C16    C     0.41994   0.16994   0.75000   0.00000  Uiso   1.00
C17    C     0.16994   0.41994   0.75000   0.00000  Uiso   1.00
C18    C     0.33006   0.08006   0.25000   0.00000  Uiso   1.00
C19    C     0.41994   0.33006   0.75000   0.00000  Uiso   1.00
C20    C     0.08006   0.16994   0.25000   0.00000  Uiso   1.00
C21    C     0.33006   0.08006   0.75000   0.00000  Uiso   1.00
C22    C     0.16994   0.41994   0.25000   0.00000  Uiso   1.00
C23    C     0.08006   0.16994   0.75000   0.00000  Uiso   1.00
C24    C     0.41994   0.33006   0.25000   0.00000  Uiso   1.00
C25    C     0.13826   0.38826   0.25000   0.00000  Uiso   1.00
C26    C     0.36174   0.11174   0.75000   0.00000  Uiso   1.00
C27    C     0.11174   0.13826   0.25000   0.00000  Uiso   1.00
C28    C     0.38826   0.36174   0.75000   0.00000  Uiso   1.00
C29    C     0.36174   0.11174   0.25000   0.00000  Uiso   1.00
C30    C     0.13826   0.38826   0.75000   0.00000  Uiso   1.00
C31    C     0.38826   0.36174   0.25000   0.00000  Uiso   1.00
C32    C     0.11174   0.13826   0.75000   0.00000  Uiso   1.00
C33    C     0.13826   0.11174   0.75000   0.00000  Uiso   1.00
C34    C     0.36174   0.38826   0.25000   0.00000  Uiso   1.00
C35    C     0.11174   0.36174   0.75000   0.00000  Uiso   1.00
C36    C     0.38826   0.13826   0.25000   0.00000  Uiso   1.00
C37    C     0.36174   0.38826   0.75000   0.00000  Uiso   1.00
C38    C     0.13826   0.11174   0.25000   0.00000  Uiso   1.00
C39    C     0.38826   0.13826   0.75000   0.00000  Uiso   1.00
C40    C     0.11174   0.36174   0.25000   0.00000  Uiso   1.00
C41    C     0.48192   0.28265   0.41936   0.00000  Uiso   1.00
C42    C     0.48192   0.21735   0.58064   0.00000  Uiso   1.00
C43    C     0.21735   0.48192   0.41936   0.00000  Uiso   1.00
C44    C     0.28265   0.48192   0.58064   0.00000  Uiso   1.00
C45    C     0.01808   0.21735   0.41936   0.00000  Uiso   1.00
C46    C     0.01808   0.28265   0.58064   0.00000  Uiso   1.00
C47    C     0.28265   0.01808   0.41936   0.00000  Uiso   1.00
C48    C     0.21735   0.01808   0.58064   0.00000  Uiso   1.00
C49    C     0.23192   0.03265   0.91936   0.00000  Uiso   1.00
C50    C     0.23192   0.46735   0.08064   0.00000  Uiso   1.00
C51    C     0.46735   0.23192   0.91936   0.00000  Uiso   1.00
C52    C     0.03265   0.23192   0.08064   0.00000  Uiso   1.00
C53    C     0.26808   0.46735   0.91936   0.00000  Uiso   1.00
C54    C     0.26808   0.03265   0.08064   0.00000  Uiso   1.00
C55    C     0.03265   0.26808   0.91936   0.00000  Uiso   1.00
C56    C     0.46735   0.26808   0.08064   0.00000  Uiso   1.00
C57    C     0.00000   0.25000   0.39851   0.00000  Uiso   1.00
C58    C     0.00000   0.25000   0.60149   0.00000  Uiso   1.00
C59    C     0.25000   0.00000   0.39851   0.00000  Uiso   1.00
C60    C     0.25000   0.00000   0.60149   0.00000  Uiso   1.00
C61    C     0.25000   0.00000   0.89851   0.00000  Uiso   1.00
C62    C     0.25000   0.00000   0.10149   0.00000  Uiso   1.00
C63    C    -0.00000   0.25000   0.89851   0.00000  Uiso   1.00
C64    C     0.00000   0.25000   0.10149   0.00000  Uiso   1.00
C65    C     0.00764   0.21343   0.45940   0.00000  Uiso   1.00
C66    C     0.00764   0.28657   0.54060   0.00000  Uiso   1.00
C67    C     0.28657   0.00764   0.45940   0.00000  Uiso   1.00
C68    C     0.21343   0.00764   0.54060   0.00000  Uiso   1.00
C69    C     0.49236   0.28657   0.45940   0.00000  Uiso   1.00
C70    C     0.49236   0.21343   0.54060   0.00000  Uiso   1.00
C71    C     0.21343   0.49236   0.45940   0.00000  Uiso   1.00
C72    C     0.28657   0.49236   0.54060   0.00000  Uiso   1.00
C73    C     0.25764   0.46343   0.95940   0.00000  Uiso   1.00
C74    C     0.25764   0.03657   0.04060   0.00000  Uiso   1.00
C75    C     0.03657   0.25764   0.95940   0.00000  Uiso   1.00
C76    C     0.46343   0.25764   0.04060   0.00000  Uiso   1.00
C77    C     0.24236   0.03657   0.95940   0.00000  Uiso   1.00
C78    C     0.24236   0.46343   0.04060   0.00000  Uiso   1.00
C79    C     0.46343   0.24236   0.95940   0.00000  Uiso   1.00
C80    C     0.03657   0.24236   0.04060   0.00000  Uiso   1.00
C81    C     0.00000   0.25000   0.47974   0.00000  Uiso   1.00
C82    C     0.00000   0.25000   0.52026   0.00000  Uiso   1.00
C83    C     0.25000   0.00000   0.47974   0.00000  Uiso   1.00
C84    C     0.25000   0.00000   0.52026   0.00000  Uiso   1.00
C85    C     0.25000   0.00000   0.97974   0.00000  Uiso   1.00
C86    C     0.25000   0.00000   0.02026   0.00000  Uiso   1.00
C87    C    -0.00000   0.25000   0.97974   0.00000  Uiso   1.00
C88    C    -0.00000   0.25000   0.02026   0.00000  Uiso   1.00
C89    C     0.00428   0.17541   0.47950   0.00000  Uiso   1.00
C90    C     0.00428   0.32459   0.52050   0.00000  Uiso   1.00
C91    C     0.32459   0.00428   0.47950   0.00000  Uiso   1.00
C92    C     0.17541   0.00428   0.52050   0.00000  Uiso   1.00
C93    C     0.49572   0.32459   0.47950   0.00000  Uiso   1.00
C94    C     0.49572   0.17541   0.52050   0.00000  Uiso   1.00
C95    C     0.17541   0.49572   0.47950   0.00000  Uiso   1.00
C96    C     0.32459   0.49572   0.52050   0.00000  Uiso   1.00
C97    C     0.25428   0.42541   0.97950   0.00000  Uiso   1.00
C98    C     0.25428   0.07459   0.02050   0.00000  Uiso   1.00
C99    C     0.07459   0.25428   0.97950   0.00000  Uiso   1.00
C100   C     0.42541   0.25428   0.02050   0.00000  Uiso   1.00
C101   C     0.24572   0.07459   0.97950   0.00000  Uiso   1.00
C102   C     0.24572   0.42541   0.02050   0.00000  Uiso   1.00
C103   C     0.42541   0.24572   0.97950   0.00000  Uiso   1.00
C104   C     0.07459   0.24572   0.02050   0.00000  Uiso   1.00
O105   O     0.25000   0.00000   0.25000   0.00000  Uiso   1.00
O106   O     0.25000   0.00000   0.75000   0.00000  Uiso   1.00
O107   O     0.00000   0.25000   0.25000   0.00000  Uiso   1.00
O108   O     0.00000   0.25000   0.75000   0.00000  Uiso   1.00
O109   O     0.25000   0.46539   0.33749   0.00000  Uiso   1.00
O110   O     0.25000   0.03462   0.66251   0.00000  Uiso   1.00
O111   O     0.03462   0.25000   0.33749   0.00000  Uiso   1.00
O112   O     0.46539   0.25000   0.66251   0.00000  Uiso   1.00
O113   O     0.25000   0.03462   0.33749   0.00000  Uiso   1.00
O114   O     0.25000   0.46539   0.66251   0.00000  Uiso   1.00
O115   O     0.46539   0.25000   0.33749   0.00000  Uiso   1.00
O116   O     0.03462   0.25000   0.66251   0.00000  Uiso   1.00
O117   O     0.00000   0.21539   0.83749   0.00000  Uiso   1.00
O118   O     0.00000   0.28462   0.16251   0.00000  Uiso   1.00
O119   O     0.28462   0.00000   0.83749   0.00000  Uiso   1.00
O120   O     0.21539   0.00000   0.16251   0.00000  Uiso   1.00
O121   O     0.00000   0.28462   0.83749   0.00000  Uiso   1.00
O122   O     0.00000   0.21539   0.16251   0.00000  Uiso   1.00
O123   O     0.21539   0.00000   0.83749   0.00000  Uiso   1.00
O124   O     0.28462   0.00000   0.16251   0.00000  Uiso   1.00
O125   O     0.20127   0.08332   0.27298   0.00000  Uiso   1.00
O126   O     0.29874   0.41668   0.72702   0.00000  Uiso   1.00
O127   O     0.41668   0.20127   0.27298   0.00000  Uiso   1.00
O128   O     0.08332   0.29874   0.72702   0.00000  Uiso   1.00
O129   O     0.29874   0.41668   0.27298   0.00000  Uiso   1.00
O130   O     0.20127   0.08332   0.72702   0.00000  Uiso   1.00
O131   O     0.08332   0.29874   0.27298   0.00000  Uiso   1.00
O132   O     0.41668   0.20127   0.72702   0.00000  Uiso   1.00
O133   O     0.20127   0.41668   0.72702   0.00000  Uiso   1.00
O134   O     0.29874   0.08332   0.27298   0.00000  Uiso   1.00
O135   O     0.41668   0.29874   0.72702   0.00000  Uiso   1.00
O136   O     0.08332   0.20127   0.27298   0.00000  Uiso   1.00
O137   O     0.29874   0.08332   0.72702   0.00000  Uiso   1.00
O138   O     0.20127   0.41668   0.27298   0.00000  Uiso   1.00
O139   O     0.08332   0.20127   0.72702   0.00000  Uiso   1.00
O140   O     0.41668   0.29874   0.27298   0.00000  Uiso   1.00
O141   O     0.45127   0.33332   0.77298   0.00000  Uiso   1.00
O142   O     0.04874   0.16668   0.22702   0.00000  Uiso   1.00
O143   O     0.16668   0.45127   0.77298   0.00000  Uiso   1.00
O144   O     0.33332   0.04874   0.22702   0.00000  Uiso   1.00
O145   O     0.04874   0.16668   0.77298   0.00000  Uiso   1.00
O146   O     0.45127   0.33332   0.22702   0.00000  Uiso   1.00
O147   O     0.33332   0.04874   0.77298   0.00000  Uiso   1.00
O148   O     0.16668   0.45127   0.22702   0.00000  Uiso   1.00
O149   O     0.45127   0.16668   0.22702   0.00000  Uiso   1.00
O150   O     0.04874   0.33332   0.77298   0.00000  Uiso   1.00
O151   O     0.16668   0.04874   0.22702   0.00000  Uiso   1.00
O152   O     0.33332   0.45127   0.77298   0.00000  Uiso   1.00
O153   O     0.04874   0.33332   0.22702   0.00000  Uiso   1.00
O154   O     0.45127   0.16668   0.77298   0.00000  Uiso   1.00
O155   O     0.33332   0.45127   0.22702   0.00000  Uiso   1.00
O156   O     0.16668   0.04874   0.77298   0.00000  Uiso   1.00
Zn157  Zn    0.20053   0.00000   0.21730   0.00000  Uiso   1.00
Zn158  Zn    0.29948   0.00000   0.78270   0.00000  Uiso   1.00
Zn159  Zn    0.00000   0.20053   0.21730   0.00000  Uiso   1.00
Zn160  Zn    0.00000   0.29948   0.78270   0.00000  Uiso   1.00
Zn161  Zn    0.29948   0.00000   0.21730   0.00000  Uiso   1.00
Zn162  Zn    0.20053   0.00000   0.78270   0.00000  Uiso   1.00
Zn163  Zn    0.00000   0.29948   0.21730   0.00000  Uiso   1.00
Zn164  Zn    0.00000   0.20053   0.78270   0.00000  Uiso   1.00
Zn165  Zn    0.45053   0.25000   0.71730   0.00000  Uiso   1.00
Zn166  Zn    0.04948   0.25000   0.28270   0.00000  Uiso   1.00
Zn167  Zn    0.25000   0.45053   0.71730   0.00000  Uiso   1.00
Zn168  Zn    0.25000   0.04948   0.28270   0.00000  Uiso   1.00
Zn169  Zn    0.04948   0.25000   0.71730   0.00000  Uiso   1.00
Zn170  Zn    0.45053   0.25000   0.28270   0.00000  Uiso   1.00
Zn171  Zn    0.25000   0.04948   0.71730   0.00000  Uiso   1.00
Zn172  Zn    0.25000   0.45053   0.28270   0.00000  Uiso   1.00
I173   I     0.43291   0.31807   0.39367   0.00000  Uiso   1.00
I174   I     0.43291   0.18193   0.60633   0.00000  Uiso   1.00
I175   I     0.18193   0.43291   0.39367   0.00000  Uiso   1.00
I176   I     0.31807   0.43291   0.60633   0.00000  Uiso   1.00
I177   I     0.06709   0.18193   0.39367   0.00000  Uiso   1.00
I178   I     0.06709   0.31807   0.60633   0.00000  Uiso   1.00
I179   I     0.31807   0.06709   0.39367   0.00000  Uiso   1.00
I180   I     0.18193   0.06709   0.60633   0.00000  Uiso   1.00
I181   I     0.18291   0.06807   0.89367   0.00000  Uiso   1.00
I182   I     0.18291   0.43193   0.10633   0.00000  Uiso   1.00
I183   I     0.43193   0.18291   0.89367   0.00000  Uiso   1.00
I184   I     0.06807   0.18291   0.10633   0.00000  Uiso   1.00
I185   I     0.31709   0.43193   0.89367   0.00000  Uiso   1.00
I186   I     0.31709   0.06807   0.10633   0.00000  Uiso   1.00
I187   I     0.06807   0.31709   0.89367   0.00000  Uiso   1.00
I188   I     0.43193   0.31709   0.10633   0.00000  Uiso   1.00
C189   C     0.00570   0.13679   0.45667   0.00000  Uiso   1.00
C190   C     0.48187   0.13286   0.42235   0.00000  Uiso   1.00
C191   C     0.49039   0.10148   0.39570   0.00000  Uiso   1.00
C192   C     0.01960   0.07154   0.40508   0.00000  Uiso   1.00
C193   C     0.04020   0.07309   0.44107   0.00000  Uiso   1.00
C194   C     0.03449   0.10632   0.46609   0.00000  Uiso   1.00
H195   H     0.45885   0.15572   0.41495   0.00000  Uiso   1.00
H196   H     0.47371   0.09983   0.36829   0.00000  Uiso   1.00
H197   H     0.02513   0.04676   0.38472   0.00000  Uiso   1.00
H198   H     0.06125   0.04931   0.44978   0.00000  Uiso   1.00
H199   H     0.05335   0.10888   0.49210   0.00000  Uiso   1.00
C200   C     0.00570   0.36321   0.54333   0.00000  Uiso   1.00
C201   C     0.48187   0.36714   0.57765   0.00000  Uiso   1.00
C202   C     0.49039   0.39853   0.60430   0.00000  Uiso   1.00
C203   C     0.01960   0.42846   0.59492   0.00000  Uiso   1.00
C204   C     0.04020   0.42691   0.55893   0.00000  Uiso   1.00
C205   C     0.03449   0.39368   0.53391   0.00000  Uiso   1.00
H206   H     0.45885   0.34428   0.58505   0.00000  Uiso   1.00
H207   H     0.47371   0.40017   0.63171   0.00000  Uiso   1.00
H208   H     0.02513   0.45324   0.61528   0.00000  Uiso   1.00
H209   H     0.06125   0.45070   0.55022   0.00000  Uiso   1.00
H210   H     0.05335   0.39112   0.50790   0.00000  Uiso   1.00
C211   C     0.36321   0.00570   0.45667   0.00000  Uiso   1.00
C212   C     0.36714   0.48187   0.42235   0.00000  Uiso   1.00
C213   C     0.39852   0.49039   0.39570   0.00000  Uiso   1.00
C214   C     0.42846   0.01960   0.40508   0.00000  Uiso   1.00
C215   C     0.42691   0.04020   0.44107   0.00000  Uiso   1.00
C216   C     0.39368   0.03449   0.46609   0.00000  Uiso   1.00
H217   H     0.34428   0.45885   0.41495   0.00000  Uiso   1.00
H218   H     0.40017   0.47372   0.36829   0.00000  Uiso   1.00
H219   H     0.45324   0.02513   0.38472   0.00000  Uiso   1.00
H220   H     0.45070   0.06125   0.44978   0.00000  Uiso   1.00
H221   H     0.39112   0.05335   0.49210   0.00000  Uiso   1.00
C222   C     0.13679   0.00570   0.54333   0.00000  Uiso   1.00
C223   C     0.13286   0.48187   0.57765   0.00000  Uiso   1.00
C224   C     0.10148   0.49039   0.60430   0.00000  Uiso   1.00
C225   C     0.07154   0.01960   0.59493   0.00000  Uiso   1.00
C226   C     0.07309   0.04020   0.55893   0.00000  Uiso   1.00
C227   C     0.10632   0.03449   0.53391   0.00000  Uiso   1.00
H228   H     0.15572   0.45885   0.58505   0.00000  Uiso   1.00
H229   H     0.09983   0.47371   0.63171   0.00000  Uiso   1.00
H230   H     0.04676   0.02513   0.61528   0.00000  Uiso   1.00
H231   H     0.04931   0.06125   0.55022   0.00000  Uiso   1.00
H232   H     0.10888   0.05335   0.50790   0.00000  Uiso   1.00
C233   C     0.49430   0.36321   0.45667   0.00000  Uiso   1.00
C234   C     0.01813   0.36714   0.42235   0.00000  Uiso   1.00
C235   C     0.00961   0.39852   0.39570   0.00000  Uiso   1.00
C236   C     0.48040   0.42846   0.40507   0.00000  Uiso   1.00
C237   C     0.45980   0.42691   0.44107   0.00000  Uiso   1.00
C238   C     0.46551   0.39368   0.46609   0.00000  Uiso   1.00
H239   H     0.04115   0.34428   0.41495   0.00000  Uiso   1.00
H240   H     0.02629   0.40017   0.36829   0.00000  Uiso   1.00
H241   H     0.47487   0.45324   0.38472   0.00000  Uiso   1.00
H242   H     0.43875   0.45069   0.44978   0.00000  Uiso   1.00
H243   H     0.44665   0.39112   0.49210   0.00000  Uiso   1.00
C244   C     0.49430   0.13679   0.54333   0.00000  Uiso   1.00
C245   C     0.01813   0.13286   0.57765   0.00000  Uiso   1.00
C246   C     0.00961   0.10148   0.60430   0.00000  Uiso   1.00
C247   C     0.48040   0.07154   0.59492   0.00000  Uiso   1.00
C248   C     0.45980   0.07309   0.55893   0.00000  Uiso   1.00
C249   C     0.46551   0.10632   0.53391   0.00000  Uiso   1.00
H250   H     0.04115   0.15572   0.58505   0.00000  Uiso   1.00
H251   H     0.02628   0.09983   0.63171   0.00000  Uiso   1.00
H252   H     0.47487   0.04676   0.61528   0.00000  Uiso   1.00
H253   H     0.43875   0.04931   0.55022   0.00000  Uiso   1.00
H254   H     0.44665   0.10888   0.50790   0.00000  Uiso   1.00
C255   C     0.13679   0.49430   0.45667   0.00000  Uiso   1.00
C256   C     0.13286   0.01813   0.42235   0.00000  Uiso   1.00
C257   C     0.10148   0.00962   0.39570   0.00000  Uiso   1.00
C258   C     0.07154   0.48040   0.40508   0.00000  Uiso   1.00
C259   C     0.07309   0.45980   0.44107   0.00000  Uiso   1.00
C260   C     0.10632   0.46551   0.46609   0.00000  Uiso   1.00
H261   H     0.15572   0.04115   0.41495   0.00000  Uiso   1.00
H262   H     0.09983   0.02629   0.36829   0.00000  Uiso   1.00
H263   H     0.04676   0.47487   0.38472   0.00000  Uiso   1.00
H264   H     0.04931   0.43875   0.44978   0.00000  Uiso   1.00
H265   H     0.10888   0.44665   0.49210   0.00000  Uiso   1.00
C266   C     0.36321   0.49430   0.54333   0.00000  Uiso   1.00
C267   C     0.36714   0.01813   0.57765   0.00000  Uiso   1.00
C268   C     0.39852   0.00961   0.60430   0.00000  Uiso   1.00
C269   C     0.42846   0.48040   0.59492   0.00000  Uiso   1.00
C270   C     0.42691   0.45980   0.55893   0.00000  Uiso   1.00
C271   C     0.39368   0.46551   0.53391   0.00000  Uiso   1.00
H272   H     0.34428   0.04115   0.58505   0.00000  Uiso   1.00
H273   H     0.40017   0.02629   0.63171   0.00000  Uiso   1.00
H274   H     0.45324   0.47487   0.61528   0.00000  Uiso   1.00
H275   H     0.45069   0.43875   0.55022   0.00000  Uiso   1.00
H276   H     0.39112   0.44665   0.50790   0.00000  Uiso   1.00
C277   C     0.25570   0.38679   0.95667   0.00000  Uiso   1.00
C278   C     0.23187   0.38286   0.92235   0.00000  Uiso   1.00
C279   C     0.24039   0.35148   0.89570   0.00000  Uiso   1.00
C280   C     0.26960   0.32154   0.90508   0.00000  Uiso   1.00
C281   C     0.29020   0.32309   0.94107   0.00000  Uiso   1.00
C282   C     0.28449   0.35632   0.96609   0.00000  Uiso   1.00
H283   H     0.20885   0.40572   0.91495   0.00000  Uiso   1.00
H284   H     0.22372   0.34983   0.86829   0.00000  Uiso   1.00
H285   H     0.27513   0.29676   0.88472   0.00000  Uiso   1.00
H286   H     0.31125   0.29931   0.94978   0.00000  Uiso   1.00
H287   H     0.30335   0.35888   0.99210   0.00000  Uiso   1.00
C288   C     0.25570   0.11321   0.04333   0.00000  Uiso   1.00
C289   C     0.23187   0.11714   0.07765   0.00000  Uiso   1.00
C290   C     0.24039   0.14853   0.10430   0.00000  Uiso   1.00
C291   C     0.26960   0.17846   0.09492   0.00000  Uiso   1.00
C292   C     0.29020   0.17691   0.05893   0.00000  Uiso   1.00
C293   C     0.28449   0.14368   0.03391   0.00000  Uiso   1.00
H294   H     0.20885   0.09428   0.08505   0.00000  Uiso   1.00
H295   H     0.22371   0.15017   0.13171   0.00000  Uiso   1.00
H296   H     0.27513   0.20324   0.11528   0.00000  Uiso   1.00
H297   H     0.31125   0.20070   0.05022   0.00000  Uiso   1.00
H298   H     0.30335   0.14112   0.00790   0.00000  Uiso   1.00
C299   C     0.11321   0.25570   0.95667   0.00000  Uiso   1.00
C300   C     0.11714   0.23187   0.92235   0.00000  Uiso   1.00
C301   C     0.14852   0.24039   0.89570   0.00000  Uiso   1.00
C302   C     0.17846   0.26960   0.90508   0.00000  Uiso   1.00
C303   C     0.17691   0.29020   0.94107   0.00000  Uiso   1.00
C304   C     0.14368   0.28449   0.96609   0.00000  Uiso   1.00
H305   H     0.09428   0.20885   0.91495   0.00000  Uiso   1.00
H306   H     0.15017   0.22372   0.86829   0.00000  Uiso   1.00
H307   H     0.20324   0.27513   0.88472   0.00000  Uiso   1.00
H308   H     0.20070   0.31125   0.94978   0.00000  Uiso   1.00
H309   H     0.14112   0.30335   0.99210   0.00000  Uiso   1.00
C310   C     0.38679   0.25570   0.04333   0.00000  Uiso   1.00
C311   C     0.38286   0.23187   0.07765   0.00000  Uiso   1.00
C312   C     0.35148   0.24039   0.10430   0.00000  Uiso   1.00
C313   C     0.32154   0.26960   0.09493   0.00000  Uiso   1.00
C314   C     0.32309   0.29020   0.05893   0.00000  Uiso   1.00
C315   C     0.35632   0.28449   0.03391   0.00000  Uiso   1.00
H316   H     0.40572   0.20885   0.08505   0.00000  Uiso   1.00
H317   H     0.34983   0.22371   0.13171   0.00000  Uiso   1.00
H318   H     0.29676   0.27513   0.11528   0.00000  Uiso   1.00
H319   H     0.29931   0.31125   0.05022   0.00000  Uiso   1.00
H320   H     0.35888   0.30335   0.00790   0.00000  Uiso   1.00
C321   C     0.24430   0.11321   0.95667   0.00000  Uiso   1.00
C322   C     0.26813   0.11714   0.92235   0.00000  Uiso   1.00
C323   C     0.25961   0.14852   0.89570   0.00000  Uiso   1.00
C324   C     0.23040   0.17846   0.90507   0.00000  Uiso   1.00
C325   C     0.20980   0.17691   0.94107   0.00000  Uiso   1.00
C326   C     0.21551   0.14368   0.96609   0.00000  Uiso   1.00
H327   H     0.29115   0.09428   0.91495   0.00000  Uiso   1.00
H328   H     0.27629   0.15017   0.86829   0.00000  Uiso   1.00
H329   H     0.22487   0.20324   0.88472   0.00000  Uiso   1.00
H330   H     0.18875   0.20069   0.94978   0.00000  Uiso   1.00
H331   H     0.19665   0.14112   0.99210   0.00000  Uiso   1.00
C332   C     0.24430   0.38679   0.04333   0.00000  Uiso   1.00
C333   C     0.26813   0.38286   0.07765   0.00000  Uiso   1.00
C334   C     0.25961   0.35148   0.10430   0.00000  Uiso   1.00
C335   C     0.23040   0.32154   0.09492   0.00000  Uiso   1.00
C336   C     0.20980   0.32309   0.05893   0.00000  Uiso   1.00
C337   C     0.21551   0.35632   0.03391   0.00000  Uiso   1.00
H338   H     0.29115   0.40572   0.08505   0.00000  Uiso   1.00
H339   H     0.27628   0.34983   0.13171   0.00000  Uiso   1.00
H340   H     0.22487   0.29676   0.11528   0.00000  Uiso   1.00
H341   H     0.18875   0.29931   0.05022   0.00000  Uiso   1.00
H342   H     0.19665   0.35888   0.00790   0.00000  Uiso   1.00
C343   C     0.38679   0.24430   0.95667   0.00000  Uiso   1.00
C344   C     0.38286   0.26813   0.92235   0.00000  Uiso   1.00
C345   C     0.35148   0.25962   0.89570   0.00000  Uiso   1.00
C346   C     0.32154   0.23040   0.90508   0.00000  Uiso   1.00
C347   C     0.32309   0.20980   0.94107   0.00000  Uiso   1.00
C348   C     0.35632   0.21551   0.96609   0.00000  Uiso   1.00
H349   H     0.40572   0.29115   0.91495   0.00000  Uiso   1.00
H350   H     0.34983   0.27629   0.86829   0.00000  Uiso   1.00
H351   H     0.29676   0.22487   0.88472   0.00000  Uiso   1.00
H352   H     0.29931   0.18875   0.94978   0.00000  Uiso   1.00
H353   H     0.35888   0.19665   0.99210   0.00000  Uiso   1.00
C354   C     0.11321   0.24430   0.04333   0.00000  Uiso   1.00
C355   C     0.11714   0.26813   0.07765   0.00000  Uiso   1.00
C356   C     0.14852   0.25961   0.10430   0.00000  Uiso   1.00
C357   C     0.17846   0.23040   0.09492   0.00000  Uiso   1.00
C358   C     0.17691   0.20980   0.05893   0.00000  Uiso   1.00
C359   C     0.14368   0.21551   0.03391   0.00000  Uiso   1.00
H360   H     0.09428   0.29115   0.08505   0.00000  Uiso   1.00
H361   H     0.15017   0.27629   0.13171   0.00000  Uiso   1.00
H362   H     0.20324   0.22487   0.11528   0.00000  Uiso   1.00
H363   H     0.20069   0.18875   0.05022   0.00000  Uiso   1.00
H364   H     0.14112   0.19665   0.00790   0.00000  Uiso   1.00
C365   C     0.75000   0.00000   0.35585   0.00000  Uiso   1.00
C366   C     0.75000   0.00000   0.64415   0.00000  Uiso   1.00
C367   C     0.50000   0.25000   0.35585   0.00000  Uiso   1.00
C368   C     0.50000   0.25000   0.64415   0.00000  Uiso   1.00
C369   C     0.50000   0.25000   0.85585   0.00000  Uiso   1.00
C370   C     0.50000   0.25000   0.14415   0.00000  Uiso   1.00
C371   C     0.75000   0.00000   0.85585   0.00000  Uiso   1.00
C372   C     0.75000   0.00000   0.14415   0.00000  Uiso   1.00
C373   C     0.66994   0.08006   0.25000   0.00000  Uiso   1.00
C374   C     0.83006   0.41994   0.75000   0.00000  Uiso   1.00
C375   C     0.91994   0.16994   0.25000   0.00000  Uiso   1.00
C376   C     0.58006   0.33006   0.75000   0.00000  Uiso   1.00
C377   C     0.83006   0.41994   0.25000   0.00000  Uiso   1.00
C378   C     0.66994   0.08006   0.75000   0.00000  Uiso   1.00
C379   C     0.58006   0.33006   0.25000   0.00000  Uiso   1.00
C380   C     0.91994   0.16994   0.75000   0.00000  Uiso   1.00
C381   C     0.66994   0.41994   0.75000   0.00000  Uiso   1.00
C382   C     0.83006   0.08006   0.25000   0.00000  Uiso   1.00
C383   C     0.91994   0.33006   0.75000   0.00000  Uiso   1.00
C384   C     0.58006   0.16994   0.25000   0.00000  Uiso   1.00
C385   C     0.83006   0.08006   0.75000   0.00000  Uiso   1.00
C386   C     0.66994   0.41994   0.25000   0.00000  Uiso   1.00
C387   C     0.58006   0.16994   0.75000   0.00000  Uiso   1.00
C388   C     0.91994   0.33006   0.25000   0.00000  Uiso   1.00
C389   C     0.63826   0.38826   0.25000   0.00000  Uiso   1.00
C390   C     0.86174   0.11174   0.75000   0.00000  Uiso   1.00
C391   C     0.61174   0.13826   0.25000   0.00000  Uiso   1.00
C392   C     0.88826   0.36174   0.75000   0.00000  Uiso   1.00
C393   C     0.86174   0.11174   0.25000   0.00000  Uiso   1.00
C394   C     0.63826   0.38826   0.75000   0.00000  Uiso   1.00
C395   C     0.88826   0.36174   0.25000   0.00000  Uiso   1.00
C396   C     0.61174   0.13826   0.75000   0.00000  Uiso   1.00
C397   C     0.63826   0.11174   0.75000   0.00000  Uiso   1.00
C398   C     0.86174   0.38826   0.25000   0.00000  Uiso   1.00
C399   C     0.61174   0.36174   0.75000   0.00000  Uiso   1.00
C400   C     0.88826   0.13826   0.25000   0.00000  Uiso   1.00
C401   C     0.86174   0.38826   0.75000   0.00000  Uiso   1.00
C402   C     0.63826   0.11174   0.25000   0.00000  Uiso   1.00
C403   C     0.88826   0.13826   0.75000   0.00000  Uiso   1.00
C404   C     0.61174   0.36174   0.25000   0.00000  Uiso   1.00
C405   C     0.98192   0.28265   0.41936   0.00000  Uiso   1.00
C406   C     0.98192   0.21735   0.58064   0.00000  Uiso   1.00
C407   C     0.71735   0.48192   0.41936   0.00000  Uiso   1.00
C408   C     0.78265   0.48192   0.58064   0.00000  Uiso   1.00
C409   C     0.51808   0.21735   0.41936   0.00000  Uiso   1.00
C410   C     0.51808   0.28265   0.58064   0.00000  Uiso   1.00
C411   C     0.78265   0.01808   0.41936   0.00000  Uiso   1.00
C412   C     0.71735   0.01808   0.58064   0.00000  Uiso   1.00
C413   C     0.73192   0.03265   0.91936   0.00000  Uiso   1.00
C414   C     0.73192   0.46735   0.08064   0.00000  Uiso   1.00
C415   C     0.96735   0.23192   0.91936   0.00000  Uiso   1.00
C416   C     0.53265   0.23192   0.08064   0.00000  Uiso   1.00
C417   C     0.76808   0.46735   0.91936   0.00000  Uiso   1.00
C418   C     0.76808   0.03265   0.08064   0.00000  Uiso   1.00
C419   C     0.53265   0.26808   0.91936   0.00000  Uiso   1.00
C420   C     0.96735   0.26808   0.08064   0.00000  Uiso   1.00
C421   C     0.50000   0.25000   0.39851   0.00000  Uiso   1.00
C422   C     0.50000   0.25000   0.60149   0.00000  Uiso   1.00
C423   C     0.75000   0.00000   0.39851   0.00000  Uiso   1.00
C424   C     0.75000   0.00000   0.60149   0.00000  Uiso   1.00
C425   C     0.75000   0.00000   0.89851   0.00000  Uiso   1.00
C426   C     0.75000   0.00000   0.10149   0.00000  Uiso   1.00
C427   C     0.50000   0.25000   0.89851   0.00000  Uiso   1.00
C428   C     0.50000   0.25000   0.10149   0.00000  Uiso   1.00
C429   C     0.50764   0.21343   0.45940   0.00000  Uiso   1.00
C430   C     0.50764   0.28657   0.54060   0.00000  Uiso   1.00
C431   C     0.78657   0.00764   0.45940   0.00000  Uiso   1.00
C432   C     0.71343   0.00764   0.54060   0.00000  Uiso   1.00
C433   C     0.99236   0.28657   0.45940   0.00000  Uiso   1.00
C434   C     0.99236   0.21343   0.54060   0.00000  Uiso   1.00
C435   C     0.71343   0.49236   0.45940   0.00000  Uiso   1.00
C436   C     0.78657   0.49236   0.54060   0.00000  Uiso   1.00
C437   C     0.75764   0.46343   0.95940   0.00000  Uiso   1.00
C438   C     0.75764   0.03657   0.04060   0.00000  Uiso   1.00
C439   C     0.53657   0.25764   0.95940   0.00000  Uiso   1.00
C440   C     0.96343   0.25764   0.04060   0.00000  Uiso   1.00
C441   C     0.74236   0.03657   0.95940   0.00000  Uiso   1.00
C442   C     0.74236   0.46343   0.04060   0.00000  Uiso   1.00
C443   C     0.96343   0.24236   0.95940   0.00000  Uiso   1.00
C444   C     0.53657   0.24236   0.04060   0.00000  Uiso   1.00
C445   C     0.50000   0.25000   0.47974   0.00000  Uiso   1.00
C446   C     0.50000   0.25000   0.52026   0.00000  Uiso   1.00
C447   C     0.75000   0.00000   0.47974   0.00000  Uiso   1.00
C448   C     0.75000   0.00000   0.52026   0.00000  Uiso   1.00
C449   C     0.75000   0.00000   0.97974   0.00000  Uiso   1.00
C450   C     0.75000   0.00000   0.02026   0.00000  Uiso   1.00
C451   C     0.50000   0.25000   0.97974   0.00000  Uiso   1.00
C452   C     0.50000   0.25000   0.02026   0.00000  Uiso   1.00
C453   C     0.50428   0.17541   0.47950   0.00000  Uiso   1.00
C454   C     0.50428   0.32459   0.52050   0.00000  Uiso   1.00
C455   C     0.82459   0.00428   0.47950   0.00000  Uiso   1.00
C456   C     0.67541   0.00428   0.52050   0.00000  Uiso   1.00
C457   C     0.99572   0.32459   0.47950   0.00000  Uiso   1.00
C458   C     0.99572   0.17541   0.52050   0.00000  Uiso   1.00
C459   C     0.67541   0.49572   0.47950   0.00000  Uiso   1.00
C460   C     0.82459   0.49572   0.52050   0.00000  Uiso   1.00
C461   C     0.75428   0.42541   0.97950   0.00000  Uiso   1.00
C462   C     0.75428   0.07459   0.02050   0.00000  Uiso   1.00
C463   C     0.57459   0.25428   0.97950   0.00000  Uiso   1.00
C464   C     0.92541   0.25428   0.02050   0.00000  Uiso   1.00
C465   C     0.74572   0.07459   0.97950   0.00000  Uiso   1.00
C466   C     0.74572   0.42541   0.02050   0.00000  Uiso   1.00
C467   C     0.92541   0.24572   0.97950   0.00000  Uiso   1.00
C468   C     0.57459   0.24572   0.02050   0.00000  Uiso   1.00
O469   O     0.75000   0.00000   0.25000   0.00000  Uiso   1.00
O470   O     0.75000   0.00000   0.75000   0.00000  Uiso   1.00
O471   O     0.50000   0.25000   0.25000   0.00000  Uiso   1.00
O472   O     0.50000   0.25000   0.75000   0.00000  Uiso   1.00
O473   O     0.75000   0.46539   0.33749   0.00000  Uiso   1.00
O474   O     0.75000   0.03462   0.66251   0.00000  Uiso   1.00
O475   O     0.53462   0.25000   0.33749   0.00000  Uiso   1.00
O476   O     0.96539   0.25000   0.66251   0.00000  Uiso   1.00
O477   O     0.75000   0.03462   0.33749   0.00000  Uiso   1.00
O478   O     0.75000   0.46539   0.66251   0.00000  Uiso   1.00
O479   O     0.96539   0.25000   0.33749   0.00000  Uiso   1.00
O480   O     0.53462   0.25000   0.66251   0.00000  Uiso   1.00
O481   O     0.50000   0.21539   0.83749   0.00000  Uiso   1.00
O482   O     0.50000   0.28462   0.16251   0.00000  Uiso   1.00
O483   O     0.78462   0.00000   0.83749   0.00000  Uiso   1.00
O484   O     0.71539   0.00000   0.16251   0.00000  Uiso   1.00
O485   O     0.50000   0.28462   0.83749   0.00000  Uiso   1.00
O486   O     0.50000   0.21539   0.16251   0.00000  Uiso   1.00
O487   O     0.71539   0.00000   0.83749   0.00000  Uiso   1.00
O488   O     0.78462   0.00000   0.16251   0.00000  Uiso   1.00
O489   O     0.70127   0.08332   0.27298   0.00000  Uiso   1.00
O490   O     0.79874   0.41668   0.72702   0.00000  Uiso   1.00
O491   O     0.91668   0.20127   0.27298   0.00000  Uiso   1.00
O492   O     0.58332   0.29874   0.72702   0.00000  Uiso   1.00
O493   O     0.79874   0.41668   0.27298   0.00000  Uiso   1.00
O494   O     0.70127   0.08332   0.72702   0.00000  Uiso   1.00
O495   O     0.58332   0.29874   0.27298   0.00000  Uiso   1.00
O496   O     0.91668   0.20127   0.72702   0.00000  Uiso   1.00
O497   O     0.70127   0.41668   0.72702   0.00000  Uiso   1.00
O498   O     0.79874   0.08332   0.27298   0.00000  Uiso   1.00
O499   O     0.91668   0.29874   0.72702   0.00000  Uiso   1.00
O500   O     0.58332   0.20127   0.27298   0.00000  Uiso   1.00
O501   O     0.79874   0.08332   0.72702   0.00000  Uiso   1.00
O502   O     0.70127   0.41668   0.27298   0.00000  Uiso   1.00
O503   O     0.58332   0.20127   0.72702   0.00000  Uiso   1.00
O504   O     0.91668   0.29874   0.27298   0.00000  Uiso   1.00
O505   O     0.95127   0.33332   0.77298   0.00000  Uiso   1.00
O506   O     0.54874   0.16668   0.22702   0.00000  Uiso   1.00
O507   O     0.66668   0.45127   0.77298   0.00000  Uiso   1.00
O508   O     0.83332   0.04874   0.22702   0.00000  Uiso   1.00
O509   O     0.54874   0.16668   0.77298   0.00000  Uiso   1.00
O510   O     0.95127   0.33332   0.22702   0.00000  Uiso   1.00
O511   O     0.83332   0.04874   0.77298   0.00000  Uiso   1.00
O512   O     0.66668   0.45127   0.22702   0.00000  Uiso   1.00
O513   O     0.95127   0.16668   0.22702   0.00000  Uiso   1.00
O514   O     0.54874   0.33332   0.77298   0.00000  Uiso   1.00
O515   O     0.66668   0.04874   0.22702   0.00000  Uiso   1.00
O516   O     0.83332   0.45127   0.77298   0.00000  Uiso   1.00
O517   O     0.54874   0.33332   0.22702   0.00000  Uiso   1.00
O518   O     0.95127   0.16668   0.77298   0.00000  Uiso   1.00
O519   O     0.83332   0.45127   0.22702   0.00000  Uiso   1.00
O520   O     0.66668   0.04874   0.77298   0.00000  Uiso   1.00
Zn521  Zn    0.70053   0.00000   0.21730   0.00000  Uiso   1.00
Zn522  Zn    0.79948   0.00000   0.78270   0.00000  Uiso   1.00
Zn523  Zn    0.50000   0.20053   0.21730   0.00000  Uiso   1.00
Zn524  Zn    0.50000   0.29948   0.78270   0.00000  Uiso   1.00
Zn525  Zn    0.79948   0.00000   0.21730   0.00000  Uiso   1.00
Zn526  Zn    0.70053   0.00000   0.78270   0.00000  Uiso   1.00
Zn527  Zn    0.50000   0.29948   0.21730   0.00000  Uiso   1.00
Zn528  Zn    0.50000   0.20053   0.78270   0.00000  Uiso   1.00
Zn529  Zn    0.95053   0.25000   0.71730   0.00000  Uiso   1.00
Zn530  Zn    0.54948   0.25000   0.28270   0.00000  Uiso   1.00
Zn531  Zn    0.75000   0.45053   0.71730   0.00000  Uiso   1.00
Zn532  Zn    0.75000   0.04948   0.28270   0.00000  Uiso   1.00
Zn533  Zn    0.54948   0.25000   0.71730   0.00000  Uiso   1.00
Zn534  Zn    0.95053   0.25000   0.28270   0.00000  Uiso   1.00
Zn535  Zn    0.75000   0.04948   0.71730   0.00000  Uiso   1.00
Zn536  Zn    0.75000   0.45053   0.28270   0.00000  Uiso   1.00
I537   I     0.93291   0.31807   0.39367   0.00000  Uiso   1.00
I538   I     0.93291   0.18193   0.60633   0.00000  Uiso   1.00
I539   I     0.68193   0.43291   0.39367   0.00000  Uiso   1.00
I540   I     0.81807   0.43291   0.60633   0.00000  Uiso   1.00
I541   I     0.56709   0.18193   0.39367   0.00000  Uiso   1.00
I542   I     0.56709   0.31807   0.60633   0.00000  Uiso   1.00
I543   I     0.81807   0.06709   0.39367   0.00000  Uiso   1.00
I544   I     0.68193   0.06709   0.60633   0.00000  Uiso   1.00
I545   I     0.68291   0.06807   0.89367   0.00000  Uiso   1.00
I546   I     0.68291   0.43193   0.10633   0.00000  Uiso   1.00
I547   I     0.93193   0.18291   0.89367   0.00000  Uiso   1.00
I548   I     0.56807   0.18291   0.10633   0.00000  Uiso   1.00
I549   I     0.81709   0.43193   0.89367   0.00000  Uiso   1.00
I550   I     0.81709   0.06807   0.10633   0.00000  Uiso   1.00
I551   I     0.56807   0.31709   0.89367   0.00000  Uiso   1.00
I552   I     0.93193   0.31709   0.10633   0.00000  Uiso   1.00
C553   C     0.50570   0.13679   0.45667   0.00000  Uiso   1.00
C554   C     0.98187   0.13286   0.42235   0.00000  Uiso   1.00
C555   C     0.99039   0.10148   0.39570   0.00000  Uiso   1.00
C556   C     0.51960   0.07154   0.40508   0.00000  Uiso   1.00
C557   C     0.54020   0.07309   0.44107   0.00000  Uiso   1.00
C558   C     0.53449   0.10632   0.46609   0.00000  Uiso   1.00
H559   H     0.95885   0.15572   0.41495   0.00000  Uiso   1.00
H560   H     0.97371   0.09983   0.36829   0.00000  Uiso   1.00
H561   H     0.52513   0.04676   0.38472   0.00000  Uiso   1.00
H562   H     0.56125   0.04931   0.44978   0.00000  Uiso   1.00
H563   H     0.55335   0.10888   0.49210   0.00000  Uiso   1.00
C564   C     0.50570   0.36321   0.54333   0.00000  Uiso   1.00
C565   C     0.98187   0.36714   0.57765   0.00000  Uiso   1.00
C566   C     0.99039   0.39853   0.60430   0.00000  Uiso   1.00
C567   C     0.51960   0.42846   0.59492   0.00000  Uiso   1.00
C568   C     0.54020   0.42691   0.55893   0.00000  Uiso   1.00
C569   C     0.53449   0.39368   0.53391   0.00000  Uiso   1.00
H570   H     0.95885   0.34428   0.58505   0.00000  Uiso   1.00
H571   H     0.97371   0.40017   0.63171   0.00000  Uiso   1.00
H572   H     0.52513   0.45324   0.61528   0.00000  Uiso   1.00
H573   H     0.56125   0.45070   0.55022   0.00000  Uiso   1.00
H574   H     0.55335   0.39112   0.50790   0.00000  Uiso   1.00
C575   C     0.86321   0.00570   0.45667   0.00000  Uiso   1.00
C576   C     0.86714   0.48187   0.42235   0.00000  Uiso   1.00
C577   C     0.89852   0.49039   0.39570   0.00000  Uiso   1.00
C578   C     0.92846   0.01960   0.40508   0.00000  Uiso   1.00
C579   C     0.92691   0.04020   0.44107   0.00000  Uiso   1.00
C580   C     0.89368   0.03449   0.46609   0.00000  Uiso   1.00
H581   H     0.84428   0.45885   0.41495   0.00000  Uiso   1.00
H582   H     0.90017   0.47372   0.36829   0.00000  Uiso   1.00
H583   H     0.95324   0.02513   0.38472   0.00000  Uiso   1.00
H584   H     0.95070   0.06125   0.44978   0.00000  Uiso   1.00
H585   H     0.89112   0.05335   0.49210   0.00000  Uiso   1.00
C586   C     0.63679   0.00570   0.54333   0.00000  Uiso   1.00
C587   C     0.63286   0.48187   0.57765   0.00000  Uiso   1.00
C588   C     0.60148   0.49039   0.60430   0.00000  Uiso   1.00
C589   C     0.57154   0.01960   0.59493   0.00000  Uiso   1.00
C590   C     0.57309   0.04020   0.55893   0.00000  Uiso   1.00
C591   C     0.60632   0.03449   0.53391   0.00000  Uiso   1.00
H592   H     0.65572   0.45885   0.58505   0.00000  Uiso   1.00
H593   H     0.59983   0.47371   0.63171   0.00000  Uiso   1.00
H594   H     0.54676   0.02513   0.61528   0.00000  Uiso   1.00
H595   H     0.54931   0.06125   0.55022   0.00000  Uiso   1.00
H596   H     0.60888   0.05335   0.50790   0.00000  Uiso   1.00
C597   C     0.99430   0.36321   0.45667   0.00000  Uiso   1.00
C598   C     0.51813   0.36714   0.42235   0.00000  Uiso   1.00
C599   C     0.50961   0.39852   0.39570   0.00000  Uiso   1.00
C600   C     0.98040   0.42846   0.40507   0.00000  Uiso   1.00
C601   C     0.95980   0.42691   0.44107   0.00000  Uiso   1.00
C602   C     0.96551   0.39368   0.46609   0.00000  Uiso   1.00
H603   H     0.54115   0.34428   0.41495   0.00000  Uiso   1.00
H604   H     0.52629   0.40017   0.36829   0.00000  Uiso   1.00
H605   H     0.97487   0.45324   0.38472   0.00000  Uiso   1.00
H606   H     0.93875   0.45069   0.44978   0.00000  Uiso   1.00
H607   H     0.94665   0.39112   0.49210   0.00000  Uiso   1.00
C608   C     0.99430   0.13679   0.54333   0.00000  Uiso   1.00
C609   C     0.51813   0.13286   0.57765   0.00000  Uiso   1.00
C610   C     0.50961   0.10148   0.60430   0.00000  Uiso   1.00
C611   C     0.98040   0.07154   0.59492   0.00000  Uiso   1.00
C612   C     0.95980   0.07309   0.55893   0.00000  Uiso   1.00
C613   C     0.96551   0.10632   0.53391   0.00000  Uiso   1.00
H614   H     0.54115   0.15572   0.58505   0.00000  Uiso   1.00
H615   H     0.52628   0.09983   0.63171   0.00000  Uiso   1.00
H616   H     0.97487   0.04676   0.61528   0.00000  Uiso   1.00
H617   H     0.93875   0.04931   0.55022   0.00000  Uiso   1.00
H618   H     0.94665   0.10888   0.50790   0.00000  Uiso   1.00
C619   C     0.63679   0.49430   0.45667   0.00000  Uiso   1.00
C620   C     0.63286   0.01813   0.42235   0.00000  Uiso   1.00
C621   C     0.60148   0.00962   0.39570   0.00000  Uiso   1.00
C622   C     0.57154   0.48040   0.40508   0.00000  Uiso   1.00
C623   C     0.57309   0.45980   0.44107   0.00000  Uiso   1.00
C624   C     0.60632   0.46551   0.46609   0.00000  Uiso   1.00
H625   H     0.65572   0.04115   0.41495   0.00000  Uiso   1.00
H626   H     0.59983   0.02629   0.36829   0.00000  Uiso   1.00
H627   H     0.54676   0.47487   0.38472   0.00000  Uiso   1.00
H628   H     0.54931   0.43875   0.44978   0.00000  Uiso   1.00
H629   H     0.60888   0.44665   0.49210   0.00000  Uiso   1.00
C630   C     0.86321   0.49430   0.54333   0.00000  Uiso   1.00
C631   C     0.86714   0.01813   0.57765   0.00000  Uiso   1.00
C632   C     0.89852   0.00961   0.60430   0.00000  Uiso   1.00
C633   C     0.92846   0.48040   0.59492   0.00000  Uiso   1.00
C634   C     0.92691   0.45980   0.55893   0.00000  Uiso   1.00
C635   C     0.89368   0.46551   0.53391   0.00000  Uiso   1.00
H636   H     0.84428   0.04115   0.58505   0.00000  Uiso   1.00
H637   H     0.90017   0.02629   0.63171   0.00000  Uiso   1.00
H638   H     0.95324   0.47487   0.61528   0.00000  Uiso   1.00
H639   H     0.95069   0.43875   0.55022   0.00000  Uiso   1.00
H640   H     0.89112   0.44665   0.50790   0.00000  Uiso   1.00
C641   C     0.75570   0.38679   0.95667   0.00000  Uiso   1.00
C642   C     0.73187   0.38286   0.92235   0.00000  Uiso   1.00
C643   C     0.74039   0.35148   0.89570   0.00000  Uiso   1.00
C644   C     0.76960   0.32154   0.90508   0.00000  Uiso   1.00
C645   C     0.79020   0.32309   0.94107   0.00000  Uiso   1.00
C646   C     0.78449   0.35632   0.96609   0.00000  Uiso   1.00
H647   H     0.70885   0.40572   0.91495   0.00000  Uiso   1.00
H648   H     0.72372   0.34983   0.86829   0.00000  Uiso   1.00
H649   H     0.77513   0.29676   0.88472   0.00000  Uiso   1.00
H650   H     0.81125   0.29931   0.94978   0.00000  Uiso   1.00
H651   H     0.80335   0.35888   0.99210   0.00000  Uiso   1.00
C652   C     0.75570   0.11321   0.04333   0.00000  Uiso   1.00
C653   C     0.73187   0.11714   0.07765   0.00000  Uiso   1.00
C654   C     0.74039   0.14853   0.10430   0.00000  Uiso   1.00
C655   C     0.76960   0.17846   0.09492   0.00000  Uiso   1.00
C656   C     0.79020   0.17691   0.05893   0.00000  Uiso   1.00
C657   C     0.78449   0.14368   0.03391   0.00000  Uiso   1.00
H658   H     0.70885   0.09428   0.08505   0.00000  Uiso   1.00
H659   H     0.72371   0.15017   0.13171   0.00000  Uiso   1.00
H660   H     0.77513   0.20324   0.11528   0.00000  Uiso   1.00
H661   H     0.81125   0.20070   0.05022   0.00000  Uiso   1.00
H662   H     0.80335   0.14112   0.00790   0.00000  Uiso   1.00
C663   C     0.61321   0.25570   0.95667   0.00000  Uiso   1.00
C664   C     0.61714   0.23187   0.92235   0.00000  Uiso   1.00
C665   C     0.64852   0.24039   0.89570   0.00000  Uiso   1.00
C666   C     0.67846   0.26960   0.90508   0.00000  Uiso   1.00
C667   C     0.67691   0.29020   0.94107   0.00000  Uiso   1.00
C668   C     0.64368   0.28449   0.96609   0.00000  Uiso   1.00
H669   H     0.59428   0.20885   0.91495   0.00000  Uiso   1.00
H670   H     0.65017   0.22372   0.86829   0.00000  Uiso   1.00
H671   H     0.70324   0.27513   0.88472   0.00000  Uiso   1.00
H672   H     0.70070   0.31125   0.94978   0.00000  Uiso   1.00
H673   H     0.64112   0.30335   0.99210   0.00000  Uiso   1.00
C674   C     0.88679   0.25570   0.04333   0.00000  Uiso   1.00
C675   C     0.88286   0.23187   0.07765   0.00000  Uiso   1.00
C676   C     0.85148   0.24039   0.10430   0.00000  Uiso   1.00
C677   C     0.82154   0.26960   0.09493   0.00000  Uiso   1.00
C678   C     0.82309   0.29020   0.05893   0.00000  Uiso   1.00
C679   C     0.85632   0.28449   0.03391   0.00000  Uiso   1.00
H680   H     0.90572   0.20885   0.08505   0.00000  Uiso   1.00
H681   H     0.84983   0.22371   0.13171   0.00000  Uiso   1.00
H682   H     0.79676   0.27513   0.11528   0.00000  Uiso   1.00
H683   H     0.79931   0.31125   0.05022   0.00000  Uiso   1.00
H684   H     0.85888   0.30335   0.00790   0.00000  Uiso   1.00
C685   C     0.74430   0.11321   0.95667   0.00000  Uiso   1.00
C686   C     0.76813   0.11714   0.92235   0.00000  Uiso   1.00
C687   C     0.75961   0.14852   0.89570   0.00000  Uiso   1.00
C688   C     0.73040   0.17846   0.90507   0.00000  Uiso   1.00
C689   C     0.70980   0.17691   0.94107   0.00000  Uiso   1.00
C690   C     0.71551   0.14368   0.96609   0.00000  Uiso   1.00
H691   H     0.79115   0.09428   0.91495   0.00000  Uiso   1.00
H692   H     0.77629   0.15017   0.86829   0.00000  Uiso   1.00
H693   H     0.72487   0.20324   0.88472   0.00000  Uiso   1.00
H694   H     0.68875   0.20069   0.94978   0.00000  Uiso   1.00
H695   H     0.69665   0.14112   0.99210   0.00000  Uiso   1.00
C696   C     0.74430   0.38679   0.04333   0.00000  Uiso   1.00
C697   C     0.76813   0.38286   0.07765   0.00000  Uiso   1.00
C698   C     0.75961   0.35148   0.10430   0.00000  Uiso   1.00
C699   C     0.73040   0.32154   0.09492   0.00000  Uiso   1.00
C700   C     0.70980   0.32309   0.05893   0.00000  Uiso   1.00
C701   C     0.71551   0.35632   0.03391   0.00000  Uiso   1.00
H702   H     0.79115   0.40572   0.08505   0.00000  Uiso   1.00
H703   H     0.77628   0.34983   0.13171   0.00000  Uiso   1.00
H704   H     0.72487   0.29676   0.11528   0.00000  Uiso   1.00
H705   H     0.68875   0.29931   0.05022   0.00000  Uiso   1.00
H706   H     0.69665   0.35888   0.00790   0.00000  Uiso   1.00
C707   C     0.88679   0.24430   0.95667   0.00000  Uiso   1.00
C708   C     0.88286   0.26813   0.92235   0.00000  Uiso   1.00
C709   C     0.85148   0.25962   0.89570   0.00000  Uiso   1.00
C710   C     0.82154   0.23040   0.90508   0.00000  Uiso   1.00
C711   C     0.82309   0.20980   0.94107   0.00000  Uiso   1.00
C712   C     0.85632   0.21551   0.96609   0.00000  Uiso   1.00
H713   H     0.90572   0.29115   0.91495   0.00000  Uiso   1.00
H714   H     0.84983   0.27629   0.86829   0.00000  Uiso   1.00
H715   H     0.79676   0.22487   0.88472   0.00000  Uiso   1.00
H716   H     0.79931   0.18875   0.94978   0.00000  Uiso   1.00
H717   H     0.85888   0.19665   0.99210   0.00000  Uiso   1.00
C718   C     0.61321   0.24430   0.04333   0.00000  Uiso   1.00
C719   C     0.61714   0.26813   0.07765   0.00000  Uiso   1.00
C720   C     0.64852   0.25961   0.10430   0.00000  Uiso   1.00
C721   C     0.67846   0.23040   0.09492   0.00000  Uiso   1.00
C722   C     0.67691   0.20980   0.05893   0.00000  Uiso   1.00
C723   C     0.64368   0.21551   0.03391   0.00000  Uiso   1.00
H724   H     0.59428   0.29115   0.08505   0.00000  Uiso   1.00
H725   H     0.65017   0.27629   0.13171   0.00000  Uiso   1.00
H726   H     0.70324   0.22487   0.11528   0.00000  Uiso   1.00
H727   H     0.70069   0.18875   0.05022   0.00000  Uiso   1.00
H728   H     0.64112   0.19665   0.00790   0.00000  Uiso   1.00
C729   C     0.25000   0.50000   0.35585   0.00000  Uiso   1.00
C730   C     0.25000   0.50000   0.64415   0.00000  Uiso   1.00
C731   C     0.00000   0.75000   0.35585   0.00000  Uiso   1.00
C732   C     0.00000   0.75000   0.64415   0.00000  Uiso   1.00
C733   C     0.00000   0.75000   0.85585   0.00000  Uiso   1.00
C734   C     0.00000   0.75000   0.14415   0.00000  Uiso   1.00
C735   C     0.25000   0.50000   0.85585   0.00000  Uiso   1.00
C736   C     0.25000   0.50000   0.14415   0.00000  Uiso   1.00
C737   C     0.16994   0.58006   0.25000   0.00000  Uiso   1.00
C738   C     0.33006   0.91994   0.75000   0.00000  Uiso   1.00
C739   C     0.41994   0.66994   0.25000   0.00000  Uiso   1.00
C740   C     0.08006   0.83006   0.75000   0.00000  Uiso   1.00
C741   C     0.33006   0.91994   0.25000   0.00000  Uiso   1.00
C742   C     0.16994   0.58006   0.75000   0.00000  Uiso   1.00
C743   C     0.08006   0.83006   0.25000   0.00000  Uiso   1.00
C744   C     0.41994   0.66994   0.75000   0.00000  Uiso   1.00
C745   C     0.16994   0.91994   0.75000   0.00000  Uiso   1.00
C746   C     0.33006   0.58006   0.25000   0.00000  Uiso   1.00
C747   C     0.41994   0.83006   0.75000   0.00000  Uiso   1.00
C748   C     0.08006   0.66994   0.25000   0.00000  Uiso   1.00
C749   C     0.33006   0.58006   0.75000   0.00000  Uiso   1.00
C750   C     0.16994   0.91994   0.25000   0.00000  Uiso   1.00
C751   C     0.08006   0.66994   0.75000   0.00000  Uiso   1.00
C752   C     0.41994   0.83006   0.25000   0.00000  Uiso   1.00
C753   C     0.13826   0.88826   0.25000   0.00000  Uiso   1.00
C754   C     0.36174   0.61174   0.75000   0.00000  Uiso   1.00
C755   C     0.11174   0.63826   0.25000   0.00000  Uiso   1.00
C756   C     0.38826   0.86174   0.75000   0.00000  Uiso   1.00
C757   C     0.36174   0.61174   0.25000   0.00000  Uiso   1.00
C758   C     0.13826   0.88826   0.75000   0.00000  Uiso   1.00
C759   C     0.38826   0.86174   0.25000   0.00000  Uiso   1.00
C760   C     0.11174   0.63826   0.75000   0.00000  Uiso   1.00
C761   C     0.13826   0.61174   0.75000   0.00000  Uiso   1.00
C762   C     0.36174   0.88826   0.25000   0.00000  Uiso   1.00
C763   C     0.11174   0.86174   0.75000   0.00000  Uiso   1.00
C764   C     0.38826   0.63826   0.25000   0.00000  Uiso   1.00
C765   C     0.36174   0.88826   0.75000   0.00000  Uiso   1.00
C766   C     0.13826   0.61174   0.25000   0.00000  Uiso   1.00
C767   C     0.38826   0.63826   0.75000   0.00000  Uiso   1.00
C768   C     0.11174   0.86174   0.25000   0.00000  Uiso   1.00
C769   C     0.48192   0.78265   0.41936   0.00000  Uiso   1.00
C770   C     0.48192   0.71735   0.58064   0.00000  Uiso   1.00
C771   C     0.21735   0.98192   0.41936   0.00000  Uiso   1.00
C772   C     0.28265   0.98192   0.58064   0.00000  Uiso   1.00
C773   C     0.01808   0.71735   0.41936   0.00000  Uiso   1.00
C774   C     0.01808   0.78265   0.58064   0.00000  Uiso   1.00
C775   C     0.28265   0.51808   0.41936   0.00000  Uiso   1.00
C776   C     0.21735   0.51808   0.58064   0.00000  Uiso   1.00
C777   C     0.23192   0.53265   0.91936   0.00000  Uiso   1.00
C778   C     0.23192   0.96735   0.08064   0.00000  Uiso   1.00
C779   C     0.46735   0.73192   0.91936   0.00000  Uiso   1.00
C780   C     0.03265   0.73192   0.08064   0.00000  Uiso   1.00
C781   C     0.26808   0.96735   0.91936   0.00000  Uiso   1.00
C782   C     0.26808   0.53265   0.08064   0.00000  Uiso   1.00
C783   C     0.03265   0.76808   0.91936   0.00000  Uiso   1.00
C784   C     0.46735   0.76808   0.08064   0.00000  Uiso   1.00
C785   C     0.00000   0.75000   0.39851   0.00000  Uiso   1.00
C786   C     0.00000   0.75000   0.60149   0.00000  Uiso   1.00
C787   C     0.25000   0.50000   0.39851   0.00000  Uiso   1.00
C788   C     0.25000   0.50000   0.60149   0.00000  Uiso   1.00
C789   C     0.25000   0.50000   0.89851   0.00000  Uiso   1.00
C790   C     0.25000   0.50000   0.10149   0.00000  Uiso   1.00
C791   C    -0.00000   0.75000   0.89851   0.00000  Uiso   1.00
C792   C     0.00000   0.75000   0.10149   0.00000  Uiso   1.00
C793   C     0.00764   0.71343   0.45940   0.00000  Uiso   1.00
C794   C     0.00764   0.78657   0.54060   0.00000  Uiso   1.00
C795   C     0.28657   0.50764   0.45940   0.00000  Uiso   1.00
C796   C     0.21343   0.50764   0.54060   0.00000  Uiso   1.00
C797   C     0.49236   0.78657   0.45940   0.00000  Uiso   1.00
C798   C     0.49236   0.71343   0.54060   0.00000  Uiso   1.00
C799   C     0.21343   0.99236   0.45940   0.00000  Uiso   1.00
C800   C     0.28657   0.99236   0.54060   0.00000  Uiso   1.00
C801   C     0.25764   0.96343   0.95940   0.00000  Uiso   1.00
C802   C     0.25764   0.53657   0.04060   0.00000  Uiso   1.00
C803   C     0.03657   0.75764   0.95940   0.00000  Uiso   1.00
C804   C     0.46343   0.75764   0.04060   0.00000  Uiso   1.00
C805   C     0.24236   0.53657   0.95940   0.00000  Uiso   1.00
C806   C     0.24236   0.96343   0.04060   0.00000  Uiso   1.00
C807   C     0.46343   0.74236   0.95940   0.00000  Uiso   1.00
C808   C     0.03657   0.74236   0.04060   0.00000  Uiso   1.00
C809   C     0.00000   0.75000   0.47974   0.00000  Uiso   1.00
C810   C     0.00000   0.75000   0.52026   0.00000  Uiso   1.00
C811   C     0.25000   0.50000   0.47974   0.00000  Uiso   1.00
C812   C     0.25000   0.50000   0.52026   0.00000  Uiso   1.00
C813   C     0.25000   0.50000   0.97974   0.00000  Uiso   1.00
C814   C     0.25000   0.50000   0.02026   0.00000  Uiso   1.00
C815   C    -0.00000   0.75000   0.97974   0.00000  Uiso   1.00
C816   C    -0.00000   0.75000   0.02026   0.00000  Uiso   1.00
C817   C     0.00428   0.67541   0.47950   0.00000  Uiso   1.00
C818   C     0.00428   0.82459   0.52050   0.00000  Uiso   1.00
C819   C     0.32459   0.50428   0.47950   0.00000  Uiso   1.00
C820   C     0.17541   0.50428   0.52050   0.00000  Uiso   1.00
C821   C     0.49572   0.82459   0.47950   0.00000  Uiso   1.00
C822   C     0.49572   0.67541   0.52050   0.00000  Uiso   1.00
C823   C     0.17541   0.99572   0.47950   0.00000  Uiso   1.00
C824   C     0.32459   0.99572   0.52050   0.00000  Uiso   1.00
C825   C     0.25428   0.92541   0.97950   0.00000  Uiso   1.00
C826   C     0.25428   0.57459   0.02050   0.00000  Uiso   1.00
C827   C     0.07459   0.75428   0.97950   0.00000  Uiso   1.00
C828   C     0.42541   0.75428   0.02050   0.00000  Uiso   1.00
C829   C     0.24572   0.57459   0.97950   0.00000  Uiso   1.00
C830   C     0.24572   0.92541   0.02050   0.00000  Uiso   1.00
C831   C     0.42541   0.74572   0.97950   0.00000  Uiso   1.00
C832   C     0.07459   0.74572   0.02050   0.00000  Uiso   1.00
O833   O     0.25000   0.50000   0.25000   0.00000  Uiso   1.00
O834   O     0.25000   0.50000   0.75000   0.00000  Uiso   1.00
O835   O     0.00000   0.75000   0.25000   0.00000  Uiso   1.00
O836   O     0.00000   0.75000   0.75000   0.00000  Uiso   1.00
O837   O     0.25000   0.96539   0.33749   0.00000  Uiso   1.00
O838   O     0.25000   0.53462   0.66251   0.00000  Uiso   1.00
O839   O     0.03462   0.75000   0.33749   0.00000  Uiso   1.00
O840   O     0.46539   0.75000   0.66251   0.00000  Uiso   1.00
O841   O     0.25000   0.53462   0.33749   0.00000  Uiso   1.00
O842   O     0.25000   0.96539   0.66251   0.00000  Uiso   1.00
O843   O     0.46539   0.75000   0.33749   0.00000  Uiso   1.00
O844   O     0.03462   0.75000   0.66251   0.00000  Uiso   1.00
O845   O     0.00000   0.71539   0.83749   0.00000  Uiso   1.00
O846   O     0.00000   0.78462   0.16251   0.00000  Uiso   1.00
O847   O     0.28462   0.50000   0.83749   0.00000  Uiso   1.00
O848   O     0.21539   0.50000   0.16251   0.00000  Uiso   1.00
O849   O     0.00000   0.78462   0.83749   0.00000  Uiso   1.00
O850   O     0.00000   0.71539   0.16251   0.00000  Uiso   1.00
O851   O     0.21539   0.50000   0.83749   0.00000  Uiso   1.00
O852   O     0.28462   0.50000   0.16251   0.00000  Uiso   1.00
O853   O     0.20127   0.58332   0.27298   0.00000  Uiso   1.00
O854   O     0.29874   0.91668   0.72702   0.00000  Uiso   1.00
O855   O     0.41668   0.70127   0.27298   0.00000  Uiso   1.00
O856   O     0.08332   0.79874   0.72702   0.00000  Uiso   1.00
O857   O     0.29874   0.91668   0.27298   0.00000  Uiso   1.00
O858   O     0.20127   0.58332   0.72702   0.00000  Uiso   1.00
O859   O     0.08332   0.79874   0.27298   0.00000  Uiso   1.00
O860   O     0.41668   0.70127   0.72702   0.00000  Uiso   1.00
O861   O     0.20127   0.91668   0.72702   0.00000  Uiso   1.00
O862   O     0.29874   0.58332   0.27298   0.00000  Uiso   1.00
O863   O     0.41668   0.79874   0.72702   0.00000  Uiso   1.00
O864   O     0.08332   0.70127   0.27298   0.00000  Uiso   1.00
O865   O     0.29874   0.58332   0.72702   0.00000  Uiso   1.00
O866   O     0.20127   0.91668   0.27298   0.00000  Uiso   1.00
O867   O     0.08332   0.70127   0.72702   0.00000  Uiso   1.00
O868   O     0.41668   0.79874   0.27298   0.00000  Uiso   1.00
O869   O     0.45127   0.83332   0.77298   0.00000  Uiso   1.00
O870   O     0.04874   0.66668   0.22702   0.00000  Uiso   1.00
O871   O     0.16668   0.95127   0.77298   0.00000  Uiso   1.00
O872   O     0.33332   0.54874   0.22702   0.00000  Uiso   1.00
O873   O     0.04874   0.66668   0.77298   0.00000  Uiso   1.00
O874   O     0.45127   0.83332   0.22702   0.00000  Uiso   1.00
O875   O     0.33332   0.54874   0.77298   0.00000  Uiso   1.00
O876   O     0.16668   0.95127   0.22702   0.00000  Uiso   1.00
O877   O     0.45127   0.66668   0.22702   0.00000  Uiso   1.00
O878   O     0.04874   0.83332   0.77298   0.00000  Uiso   1.00
O879   O     0.16668   0.54874   0.22702   0.00000  Uiso   1.00
O880   O     0.33332   0.95127   0.77298   0.00000  Uiso   1.00
O881   O     0.04874   0.83332   0.22702   0.00000  Uiso   1.00
O882   O     0.45127   0.66668   0.77298   0.00000  Uiso   1.00
O883   O     0.33332   0.95127   0.22702   0.00000  Uiso   1.00
O884   O     0.16668   0.54874   0.77298   0.00000  Uiso   1.00
Zn885  Zn    0.20053   0.50000   0.21730   0.00000  Uiso   1.00
Zn886  Zn    0.29948   0.50000   0.78270   0.00000  Uiso   1.00
Zn887  Zn    0.00000   0.70053   0.21730   0.00000  Uiso   1.00
Zn888  Zn    0.00000   0.79948   0.78270   0.00000  Uiso   1.00
Zn889  Zn    0.29948   0.50000   0.21730   0.00000  Uiso   1.00
Zn890  Zn    0.20053   0.50000   0.78270   0.00000  Uiso   1.00
Zn891  Zn    0.00000   0.79948   0.21730   0.00000  Uiso   1.00
Zn892  Zn    0.00000   0.70053   0.78270   0.00000  Uiso   1.00
Zn893  Zn    0.45053   0.75000   0.71730   0.00000  Uiso   1.00
Zn894  Zn    0.04948   0.75000   0.28270   0.00000  Uiso   1.00
Zn895  Zn    0.25000   0.95053   0.71730   0.00000  Uiso   1.00
Zn896  Zn    0.25000   0.54948   0.28270   0.00000  Uiso   1.00
Zn897  Zn    0.04948   0.75000   0.71730   0.00000  Uiso   1.00
Zn898  Zn    0.45053   0.75000   0.28270   0.00000  Uiso   1.00
Zn899  Zn    0.25000   0.54948   0.71730   0.00000  Uiso   1.00
Zn900  Zn    0.25000   0.95053   0.28270   0.00000  Uiso   1.00
I901   I     0.43291   0.81807   0.39367   0.00000  Uiso   1.00
I902   I     0.43291   0.68193   0.60633   0.00000  Uiso   1.00
I903   I     0.18193   0.93291   0.39367   0.00000  Uiso   1.00
I904   I     0.31807   0.93291   0.60633   0.00000  Uiso   1.00
I905   I     0.06709   0.68193   0.39367   0.00000  Uiso   1.00
I906   I     0.06709   0.81807   0.60633   0.00000  Uiso   1.00
I907   I     0.31807   0.56709   0.39367   0.00000  Uiso   1.00
I908   I     0.18193   0.56709   0.60633   0.00000  Uiso   1.00
I909   I     0.18291   0.56807   0.89367   0.00000  Uiso   1.00
I910   I     0.18291   0.93193   0.10633   0.00000  Uiso   1.00
I911   I     0.43193   0.68291   0.89367   0.00000  Uiso   1.00
I912   I     0.06807   0.68291   0.10633   0.00000  Uiso   1.00
I913   I     0.31709   0.93193   0.89367   0.00000  Uiso   1.00
I914   I     0.31709   0.56807   0.10633   0.00000  Uiso   1.00
I915   I     0.06807   0.81709   0.89367   0.00000  Uiso   1.00
I916   I     0.43193   0.81709   0.10633   0.00000  Uiso   1.00
C917   C     0.00570   0.63679   0.45667   0.00000  Uiso   1.00
C918   C     0.48187   0.63286   0.42235   0.00000  Uiso   1.00
C919   C     0.49039   0.60148   0.39570   0.00000  Uiso   1.00
C920   C     0.01960   0.57154   0.40508   0.00000  Uiso   1.00
C921   C     0.04020   0.57309   0.44107   0.00000  Uiso   1.00
C922   C     0.03449   0.60632   0.46609   0.00000  Uiso   1.00
H923   H     0.45885   0.65572   0.41495   0.00000  Uiso   1.00
H924   H     0.47371   0.59983   0.36829   0.00000  Uiso   1.00
H925   H     0.02513   0.54676   0.38472   0.00000  Uiso   1.00
H926   H     0.06125   0.54931   0.44978   0.00000  Uiso   1.00
H927   H     0.05335   0.60888   0.49210   0.00000  Uiso   1.00
C928   C     0.00570   0.86321   0.54333   0.00000  Uiso   1.00
C929   C     0.48187   0.86714   0.57765   0.00000  Uiso   1.00
C930   C     0.49039   0.89853   0.60430   0.00000  Uiso   1.00
C931   C     0.01960   0.92846   0.59492   0.00000  Uiso   1.00
C932   C     0.04020   0.92691   0.55893   0.00000  Uiso   1.00
C933   C     0.03449   0.89368   0.53391   0.00000  Uiso   1.00
H934   H     0.45885   0.84428   0.58505   0.00000  Uiso   1.00
H935   H     0.47371   0.90017   0.63171   0.00000  Uiso   1.00
H936   H     0.02513   0.95324   0.61528   0.00000  Uiso   1.00
H937   H     0.06125   0.95070   0.55022   0.00000  Uiso   1.00
H938   H     0.05335   0.89112   0.50790   0.00000  Uiso   1.00
C939   C     0.36321   0.50570   0.45667   0.00000  Uiso   1.00
C940   C     0.36714   0.98187   0.42235   0.00000  Uiso   1.00
C941   C     0.39852   0.99039   0.39570   0.00000  Uiso   1.00
C942   C     0.42846   0.51960   0.40508   0.00000  Uiso   1.00
C943   C     0.42691   0.54020   0.44107   0.00000  Uiso   1.00
C944   C     0.39368   0.53449   0.46609   0.00000  Uiso   1.00
H945   H     0.34428   0.95885   0.41495   0.00000  Uiso   1.00
H946   H     0.40017   0.97372   0.36829   0.00000  Uiso   1.00
H947   H     0.45324   0.52513   0.38472   0.00000  Uiso   1.00
H948   H     0.45070   0.56125   0.44978   0.00000  Uiso   1.00
H949   H     0.39112   0.55335   0.49210   0.00000  Uiso   1.00
C950   C     0.13679   0.50570   0.54333   0.00000  Uiso   1.00
C951   C     0.13286   0.98187   0.57765   0.00000  Uiso   1.00
C952   C     0.10148   0.99039   0.60430   0.00000  Uiso   1.00
C953   C     0.07154   0.51960   0.59493   0.00000  Uiso   1.00
C954   C     0.07309   0.54020   0.55893   0.00000  Uiso   1.00
C955   C     0.10632   0.53449   0.53391   0.00000  Uiso   1.00
H956   H     0.15572   0.95885   0.58505   0.00000  Uiso   1.00
H957   H     0.09983   0.97371   0.63171   0.00000  Uiso   1.00
H958   H     0.04676   0.52513   0.61528   0.00000  Uiso   1.00
H959   H     0.04931   0.56125   0.55022   0.00000  Uiso   1.00
H960   H     0.10888   0.55335   0.50790   0.00000  Uiso   1.00
C961   C     0.49430   0.86321   0.45667   0.00000  Uiso   1.00
C962   C     0.01813   0.86714   0.42235   0.00000  Uiso   1.00
C963   C     0.00961   0.89852   0.39570   0.00000  Uiso   1.00
C964   C     0.48040   0.92846   0.40507   0.00000  Uiso   1.00
C965   C     0.45980   0.92691   0.44107   0.00000  Uiso   1.00
C966   C     0.46551   0.89368   0.46609   0.00000  Uiso   1.00
H967   H     0.04115   0.84428   0.41495   0.00000  Uiso   1.00
H968   H     0.02629   0.90017   0.36829   0.00000  Uiso   1.00
H969   H     0.47487   0.95324   0.38472   0.00000  Uiso   1.00
H970   H     0.43875   0.95069   0.44978   0.00000  Uiso   1.00
H971   H     0.44665   0.89112   0.49210   0.00000  Uiso   1.00
C972   C     0.49430   0.63679   0.54333   0.00000  Uiso   1.00
C973   C     0.01813   0.63286   0.57765   0.00000  Uiso   1.00
C974   C     0.00961   0.60148   0.60430   0.00000  Uiso   1.00
C975   C     0.48040   0.57154   0.59492   0.00000  Uiso   1.00
C976   C     0.45980   0.57309   0.55893   0.00000  Uiso   1.00
C977   C     0.46551   0.60632   0.53391   0.00000  Uiso   1.00
H978   H     0.04115   0.65572   0.58505   0.00000  Uiso   1.00
H979   H     0.02628   0.59983   0.63171   0.00000  Uiso   1.00
H980   H     0.47487   0.54676   0.61528   0.00000  Uiso   1.00
H981   H     0.43875   0.54931   0.55022   0.00000  Uiso   1.00
H982   H     0.44665   0.60888   0.50790   0.00000  Uiso   1.00
C983   C     0.13679   0.99430   0.45667   0.00000  Uiso   1.00
C984   C     0.13286   0.51813   0.42235   0.00000  Uiso   1.00
C985   C     0.10148   0.50962   0.39570   0.00000  Uiso   1.00
C986   C     0.07154   0.98040   0.40508   0.00000  Uiso   1.00
C987   C     0.07309   0.95980   0.44107   0.00000  Uiso   1.00
C988   C     0.10632   0.96551   0.46609   0.00000  Uiso   1.00
H989   H     0.15572   0.54115   0.41495   0.00000  Uiso   1.00
H990   H     0.09983   0.52629   0.36829   0.00000  Uiso   1.00
H991   H     0.04676   0.97487   0.38472   0.00000  Uiso   1.00
H992   H     0.04931   0.93875   0.44978   0.00000  Uiso   1.00
H993   H     0.10888   0.94665   0.49210   0.00000  Uiso   1.00
C994   C     0.36321   0.99430   0.54333   0.00000  Uiso   1.00
C995   C     0.36714   0.51813   0.57765   0.00000  Uiso   1.00
C996   C     0.39852   0.50961   0.60430   0.00000  Uiso   1.00
C997   C     0.42846   0.98040   0.59492   0.00000  Uiso   1.00
C998   C     0.42691   0.95980   0.55893   0.00000  Uiso   1.00
C999   C     0.39368   0.96551   0.53391   0.00000  Uiso   1.00
H1000  H     0.34428   0.54115   0.58505   0.00000  Uiso   1.00
H1001  H     0.40017   0.52629   0.63171   0.00000  Uiso   1.00
H1002  H     0.45324   0.97487   0.61528   0.00000  Uiso   1.00
H1003  H     0.45069   0.93875   0.55022   0.00000  Uiso   1.00
H1004  H     0.39112   0.94665   0.50790   0.00000  Uiso   1.00
C1005  C     0.25570   0.88679   0.95667   0.00000  Uiso   1.00
C1006  C     0.23187   0.88286   0.92235   0.00000  Uiso   1.00
C1007  C     0.24039   0.85148   0.89570   0.00000  Uiso   1.00
C1008  C     0.26960   0.82154   0.90508   0.00000  Uiso   1.00
C1009  C     0.29020   0.82309   0.94107   0.00000  Uiso   1.00
C1010  C     0.28449   0.85632   0.96609   0.00000  Uiso   1.00
H1011  H     0.20885   0.90572   0.91495   0.00000  Uiso   1.00
H1012  H     0.22372   0.84983   0.86829   0.00000  Uiso   1.00
H1013  H     0.27513   0.79676   0.88472   0.00000  Uiso   1.00
H1014  H     0.31125   0.79931   0.94978   0.00000  Uiso   1.00
H1015  H     0.30335   0.85888   0.99210   0.00000  Uiso   1.00
C1016  C     0.25570   0.61321   0.04333   0.00000  Uiso   1.00
C1017  C     0.23187   0.61714   0.07765   0.00000  Uiso   1.00
C1018  C     0.24039   0.64853   0.10430   0.00000  Uiso   1.00
C1019  C     0.26960   0.67846   0.09492   0.00000  Uiso   1.00
C1020  C     0.29020   0.67691   0.05893   0.00000  Uiso   1.00
C1021  C     0.28449   0.64368   0.03391   0.00000  Uiso   1.00
H1022  H     0.20885   0.59428   0.08505   0.00000  Uiso   1.00
H1023  H     0.22371   0.65017   0.13171   0.00000  Uiso   1.00
H1024  H     0.27513   0.70324   0.11528   0.00000  Uiso   1.00
H1025  H     0.31125   0.70070   0.05022   0.00000  Uiso   1.00
H1026  H     0.30335   0.64112   0.00790   0.00000  Uiso   1.00
C1027  C     0.11321   0.75570   0.95667   0.00000  Uiso   1.00
C1028  C     0.11714   0.73187   0.92235   0.00000  Uiso   1.00
C1029  C     0.14852   0.74039   0.89570   0.00000  Uiso   1.00
C1030  C     0.17846   0.76960   0.90508   0.00000  Uiso   1.00
C1031  C     0.17691   0.79020   0.94107   0.00000  Uiso   1.00
C1032  C     0.14368   0.78449   0.96609   0.00000  Uiso   1.00
H1033  H     0.09428   0.70885   0.91495   0.00000  Uiso   1.00
H1034  H     0.15017   0.72372   0.86829   0.00000  Uiso   1.00
H1035  H     0.20324   0.77513   0.88472   0.00000  Uiso   1.00
H1036  H     0.20070   0.81125   0.94978   0.00000  Uiso   1.00
H1037  H     0.14112   0.80335   0.99210   0.00000  Uiso   1.00
C1038  C     0.38679   0.75570   0.04333   0.00000  Uiso   1.00
C1039  C     0.38286   0.73187   0.07765   0.00000  Uiso   1.00
C1040  C     0.35148   0.74039   0.10430   0.00000  Uiso   1.00
C1041  C     0.32154   0.76960   0.09493   0.00000  Uiso   1.00
C1042  C     0.32309   0.79020   0.05893   0.00000  Uiso   1.00
C1043  C     0.35632   0.78449   0.03391   0.00000  Uiso   1.00
H1044  H     0.40572   0.70885   0.08505   0.00000  Uiso   1.00
H1045  H     0.34983   0.72371   0.13171   0.00000  Uiso   1.00
H1046  H     0.29676   0.77513   0.11528   0.00000  Uiso   1.00
H1047  H     0.29931   0.81125   0.05022   0.00000  Uiso   1.00
H1048  H     0.35888   0.80335   0.00790   0.00000  Uiso   1.00
C1049  C     0.24430   0.61321   0.95667   0.00000  Uiso   1.00
C1050  C     0.26813   0.61714   0.92235   0.00000  Uiso   1.00
C1051  C     0.25961   0.64852   0.89570   0.00000  Uiso   1.00
C1052  C     0.23040   0.67846   0.90507   0.00000  Uiso   1.00
C1053  C     0.20980   0.67691   0.94107   0.00000  Uiso   1.00
C1054  C     0.21551   0.64368   0.96609   0.00000  Uiso   1.00
H1055  H     0.29115   0.59428   0.91495   0.00000  Uiso   1.00
H1056  H     0.27629   0.65017   0.86829   0.00000  Uiso   1.00
H1057  H     0.22487   0.70324   0.88472   0.00000  Uiso   1.00
H1058  H     0.18875   0.70069   0.94978   0.00000  Uiso   1.00
H1059  H     0.19665   0.64112   0.99210   0.00000  Uiso   1.00
C1060  C     0.24430   0.88679   0.04333   0.00000  Uiso   1.00
C1061  C     0.26813   0.88286   0.07765   0.00000  Uiso   1.00
C1062  C     0.25961   0.85148   0.10430   0.00000  Uiso   1.00
C1063  C     0.23040   0.82154   0.09492   0.00000  Uiso   1.00
C1064  C     0.20980   0.82309   0.05893   0.00000  Uiso   1.00
C1065  C     0.21551   0.85632   0.03391   0.00000  Uiso   1.00
H1066  H     0.29115   0.90572   0.08505   0.00000  Uiso   1.00
H1067  H     0.27628   0.84983   0.13171   0.00000  Uiso   1.00
H1068  H     0.22487   0.79676   0.11528   0.00000  Uiso   1.00
H1069  H     0.18875   0.79931   0.05022   0.00000  Uiso   1.00
H1070  H     0.19665   0.85888   0.00790   0.00000  Uiso   1.00
C1071  C     0.38679   0.74430   0.95667   0.00000  Uiso   1.00
C1072  C     0.38286   0.76813   0.92235   0.00000  Uiso   1.00
C1073  C     0.35148   0.75962   0.89570   0.00000  Uiso   1.00
C1074  C     0.32154   0.73040   0.90508   0.00000  Uiso   1.00
C1075  C     0.32309   0.70980   0.94107   0.00000  Uiso   1.00
C1076  C     0.35632   0.71551   0.96609   0.00000  Uiso   1.00
H1077  H     0.40572   0.79115   0.91495   0.00000  Uiso   1.00
H1078  H     0.34983   0.77629   0.86829   0.00000  Uiso   1.00
H1079  H     0.29676   0.72487   0.88472   0.00000  Uiso   1.00
H1080  H     0.29931   0.68875   0.94978   0.00000  Uiso   1.00
H1081  H     0.35888   0.69665   0.99210   0.00000  Uiso   1.00
C1082  C     0.11321   0.74430   0.04333   0.00000  Uiso   1.00
C1083  C     0.11714   0.76813   0.07765   0.00000  Uiso   1.00
C1084  C     0.14852   0.75961   0.10430   0.00000  Uiso   1.00
C1085  C     0.17846   0.73040   0.09492   0.00000  Uiso   1.00
C1086  C     0.17691   0.70980   0.05893   0.00000  Uiso   1.00
C1087  C     0.14368   0.71551   0.03391   0.00000  Uiso   1.00
H1088  H     0.09428   0.79115   0.08505   0.00000  Uiso   1.00
H1089  H     0.15017   0.77629   0.13171   0.00000  Uiso   1.00
H1090  H     0.20324   0.72487   0.11528   0.00000  Uiso   1.00
H1091  H     0.20069   0.68875   0.05022   0.00000  Uiso   1.00
H1092  H     0.14112   0.69665   0.00790   0.00000  Uiso   1.00
C1093  C     0.75000   0.50000   0.35585   0.00000  Uiso   1.00
C1094  C     0.75000   0.50000   0.64415   0.00000  Uiso   1.00
C1095  C     0.50000   0.75000   0.35585   0.00000  Uiso   1.00
C1096  C     0.50000   0.75000   0.64415   0.00000  Uiso   1.00
C1097  C     0.50000   0.75000   0.85585   0.00000  Uiso   1.00
C1098  C     0.50000   0.75000   0.14415   0.00000  Uiso   1.00
C1099  C     0.75000   0.50000   0.85585   0.00000  Uiso   1.00
C1100  C     0.75000   0.50000   0.14415   0.00000  Uiso   1.00
C1101  C     0.66994   0.58006   0.25000   0.00000  Uiso   1.00
C1102  C     0.83006   0.91994   0.75000   0.00000  Uiso   1.00
C1103  C     0.91994   0.66994   0.25000   0.00000  Uiso   1.00
C1104  C     0.58006   0.83006   0.75000   0.00000  Uiso   1.00
C1105  C     0.83006   0.91994   0.25000   0.00000  Uiso   1.00
C1106  C     0.66994   0.58006   0.75000   0.00000  Uiso   1.00
C1107  C     0.58006   0.83006   0.25000   0.00000  Uiso   1.00
C1108  C     0.91994   0.66994   0.75000   0.00000  Uiso   1.00
C1109  C     0.66994   0.91994   0.75000   0.00000  Uiso   1.00
C1110  C     0.83006   0.58006   0.25000   0.00000  Uiso   1.00
C1111  C     0.91994   0.83006   0.75000   0.00000  Uiso   1.00
C1112  C     0.58006   0.66994   0.25000   0.00000  Uiso   1.00
C1113  C     0.83006   0.58006   0.75000   0.00000  Uiso   1.00
C1114  C     0.66994   0.91994   0.25000   0.00000  Uiso   1.00
C1115  C     0.58006   0.66994   0.75000   0.00000  Uiso   1.00
C1116  C     0.91994   0.83006   0.25000   0.00000  Uiso   1.00
C1117  C     0.63826   0.88826   0.25000   0.00000  Uiso   1.00
C1118  C     0.86174   0.61174   0.75000   0.00000  Uiso   1.00
C1119  C     0.61174   0.63826   0.25000   0.00000  Uiso   1.00
C1120  C     0.88826   0.86174   0.75000   0.00000  Uiso   1.00
C1121  C     0.86174   0.61174   0.25000   0.00000  Uiso   1.00
C1122  C     0.63826   0.88826   0.75000   0.00000  Uiso   1.00
C1123  C     0.88826   0.86174   0.25000   0.00000  Uiso   1.00
C1124  C     0.61174   0.63826   0.75000   0.00000  Uiso   1.00
C1125  C     0.63826   0.61174   0.75000   0.00000  Uiso   1.00
C1126  C     0.86174   0.88826   0.25000   0.00000  Uiso   1.00
C1127  C     0.61174   0.86174   0.75000   0.00000  Uiso   1.00
C1128  C     0.88826   0.63826   0.25000   0.00000  Uiso   1.00
C1129  C     0.86174   0.88826   0.75000   0.00000  Uiso   1.00
C1130  C     0.63826   0.61174   0.25000   0.00000  Uiso   1.00
C1131  C     0.88826   0.63826   0.75000   0.00000  Uiso   1.00
C1132  C     0.61174   0.86174   0.25000   0.00000  Uiso   1.00
C1133  C     0.98192   0.78265   0.41936   0.00000  Uiso   1.00
C1134  C     0.98192   0.71735   0.58064   0.00000  Uiso   1.00
C1135  C     0.71735   0.98192   0.41936   0.00000  Uiso   1.00
C1136  C     0.78265   0.98192   0.58064   0.00000  Uiso   1.00
C1137  C     0.51808   0.71735   0.41936   0.00000  Uiso   1.00
C1138  C     0.51808   0.78265   0.58064   0.00000  Uiso   1.00
C1139  C     0.78265   0.51808   0.41936   0.00000  Uiso   1.00
C1140  C     0.71735   0.51808   0.58064   0.00000  Uiso   1.00
C1141  C     0.73192   0.53265   0.91936   0.00000  Uiso   1.00
C1142  C     0.73192   0.96735   0.08064   0.00000  Uiso   1.00
C1143  C     0.96735   0.73192   0.91936   0.00000  Uiso   1.00
C1144  C     0.53265   0.73192   0.08064   0.00000  Uiso   1.00
C1145  C     0.76808   0.96735   0.91936   0.00000  Uiso   1.00
C1146  C     0.76808   0.53265   0.08064   0.00000  Uiso   1.00
C1147  C     0.53265   0.76808   0.91936   0.00000  Uiso   1.00
C1148  C     0.96735   0.76808   0.08064   0.00000  Uiso   1.00
C1149  C     0.50000   0.75000   0.39851   0.00000  Uiso   1.00
C1150  C     0.50000   0.75000   0.60149   0.00000  Uiso   1.00
C1151  C     0.75000   0.50000   0.39851   0.00000  Uiso   1.00
C1152  C     0.75000   0.50000   0.60149   0.00000  Uiso   1.00
C1153  C     0.75000   0.50000   0.89851   0.00000  Uiso   1.00
C1154  C     0.75000   0.50000   0.10149   0.00000  Uiso   1.00
C1155  C     0.50000   0.75000   0.89851   0.00000  Uiso   1.00
C1156  C     0.50000   0.75000   0.10149   0.00000  Uiso   1.00
C1157  C     0.50764   0.71343   0.45940   0.00000  Uiso   1.00
C1158  C     0.50764   0.78657   0.54060   0.00000  Uiso   1.00
C1159  C     0.78657   0.50764   0.45940   0.00000  Uiso   1.00
C1160  C     0.71343   0.50764   0.54060   0.00000  Uiso   1.00
C1161  C     0.99236   0.78657   0.45940   0.00000  Uiso   1.00
C1162  C     0.99236   0.71343   0.54060   0.00000  Uiso   1.00
C1163  C     0.71343   0.99236   0.45940   0.00000  Uiso   1.00
C1164  C     0.78657   0.99236   0.54060   0.00000  Uiso   1.00
C1165  C     0.75764   0.96343   0.95940   0.00000  Uiso   1.00
C1166  C     0.75764   0.53657   0.04060   0.00000  Uiso   1.00
C1167  C     0.53657   0.75764   0.95940   0.00000  Uiso   1.00
C1168  C     0.96343   0.75764   0.04060   0.00000  Uiso   1.00
C1169  C     0.74236   0.53657   0.95940   0.00000  Uiso   1.00
C1170  C     0.74236   0.96343   0.04060   0.00000  Uiso   1.00
C1171  C     0.96343   0.74236   0.95940   0.00000  Uiso   1.00
C1172  C     0.53657   0.74236   0.04060   0.00000  Uiso   1.00
C1173  C     0.50000   0.75000   0.47974   0.00000  Uiso   1.00
C1174  C     0.50000   0.75000   0.52026   0.00000  Uiso   1.00
C1175  C     0.75000   0.50000   0.47974   0.00000  Uiso   1.00
C1176  C     0.75000   0.50000   0.52026   0.00000  Uiso   1.00
C1177  C     0.75000   0.50000   0.97974   0.00000  Uiso   1.00
C1178  C     0.75000   0.50000   0.02026   0.00000  Uiso   1.00
C1179  C     0.50000   0.75000   0.97974   0.00000  Uiso   1.00
C1180  C     0.50000   0.75000   0.02026   0.00000  Uiso   1.00
C1181  C     0.50428   0.67541   0.47950   0.00000  Uiso   1.00
C1182  C     0.50428   0.82459   0.52050   0.00000  Uiso   1.00
C1183  C     0.82459   0.50428   0.47950   0.00000  Uiso   1.00
C1184  C     0.67541   0.50428   0.52050   0.00000  Uiso   1.00
C1185  C     0.99572   0.82459   0.47950   0.00000  Uiso   1.00
C1186  C     0.99572   0.67541   0.52050   0.00000  Uiso   1.00
C1187  C     0.67541   0.99572   0.47950   0.00000  Uiso   1.00
C1188  C     0.82459   0.99572   0.52050   0.00000  Uiso   1.00
C1189  C     0.75428   0.92541   0.97950   0.00000  Uiso   1.00
C1190  C     0.75428   0.57459   0.02050   0.00000  Uiso   1.00
C1191  C     0.57459   0.75428   0.97950   0.00000  Uiso   1.00
C1192  C     0.92541   0.75428   0.02050   0.00000  Uiso   1.00
C1193  C     0.74572   0.57459   0.97950   0.00000  Uiso   1.00
C1194  C     0.74572   0.92541   0.02050   0.00000  Uiso   1.00
C1195  C     0.92541   0.74572   0.97950   0.00000  Uiso   1.00
C1196  C     0.57459   0.74572   0.02050   0.00000  Uiso   1.00
O1197  O     0.75000   0.50000   0.25000   0.00000  Uiso   1.00
O1198  O     0.75000   0.50000   0.75000   0.00000  Uiso   1.00
O1199  O     0.50000   0.75000   0.25000   0.00000  Uiso   1.00
O1200  O     0.50000   0.75000   0.75000   0.00000  Uiso   1.00
O1201  O     0.75000   0.96539   0.33749   0.00000  Uiso   1.00
O1202  O     0.75000   0.53462   0.66251   0.00000  Uiso   1.00
O1203  O     0.53462   0.75000   0.33749   0.00000  Uiso   1.00
O1204  O     0.96539   0.75000   0.66251   0.00000  Uiso   1.00
O1205  O     0.75000   0.53462   0.33749   0.00000  Uiso   1.00
O1206  O     0.75000   0.96539   0.66251   0.00000  Uiso   1.00
O1207  O     0.96539   0.75000   0.33749   0.00000  Uiso   1.00
O1208  O     0.53462   0.75000   0.66251   0.00000  Uiso   1.00
O1209  O     0.50000   0.71539   0.83749   0.00000  Uiso   1.00
O1210  O     0.50000   0.78462   0.16251   0.00000  Uiso   1.00
O1211  O     0.78462   0.50000   0.83749   0.00000  Uiso   1.00
O1212  O     0.71539   0.50000   0.16251   0.00000  Uiso   1.00
O1213  O     0.50000   0.78462   0.83749   0.00000  Uiso   1.00
O1214  O     0.50000   0.71539   0.16251   0.00000  Uiso   1.00
O1215  O     0.71539   0.50000   0.83749   0.00000  Uiso   1.00
O1216  O     0.78462   0.50000   0.16251   0.00000  Uiso   1.00
O1217  O     0.70127   0.58332   0.27298   0.00000  Uiso   1.00
O1218  O     0.79874   0.91668   0.72702   0.00000  Uiso   1.00
O1219  O     0.91668   0.70127   0.27298   0.00000  Uiso   1.00
O1220  O     0.58332   0.79874   0.72702   0.00000  Uiso   1.00
O1221  O     0.79874   0.91668   0.27298   0.00000  Uiso   1.00
O1222  O     0.70127   0.58332   0.72702   0.00000  Uiso   1.00
O1223  O     0.58332   0.79874   0.27298   0.00000  Uiso   1.00
O1224  O     0.91668   0.70127   0.72702   0.00000  Uiso   1.00
O1225  O     0.70127   0.91668   0.72702   0.00000  Uiso   1.00
O1226  O     0.79874   0.58332   0.27298   0.00000  Uiso   1.00
O1227  O     0.91668   0.79874   0.72702   0.00000  Uiso   1.00
O1228  O     0.58332   0.70127   0.27298   0.00000  Uiso   1.00
O1229  O     0.79874   0.58332   0.72702   0.00000  Uiso   1.00
O1230  O     0.70127   0.91668   0.27298   0.00000  Uiso   1.00
O1231  O     0.58332   0.70127   0.72702   0.00000  Uiso   1.00
O1232  O     0.91668   0.79874   0.27298   0.00000  Uiso   1.00
O1233  O     0.95127   0.83332   0.77298   0.00000  Uiso   1.00
O1234  O     0.54874   0.66668   0.22702   0.00000  Uiso   1.00
O1235  O     0.66668   0.95127   0.77298   0.00000  Uiso   1.00
O1236  O     0.83332   0.54874   0.22702   0.00000  Uiso   1.00
O1237  O     0.54874   0.66668   0.77298   0.00000  Uiso   1.00
O1238  O     0.95127   0.83332   0.22702   0.00000  Uiso   1.00
O1239  O     0.83332   0.54874   0.77298   0.00000  Uiso   1.00
O1240  O     0.66668   0.95127   0.22702   0.00000  Uiso   1.00
O1241  O     0.95127   0.66668   0.22702   0.00000  Uiso   1.00
O1242  O     0.54874   0.83332   0.77298   0.00000  Uiso   1.00
O1243  O     0.66668   0.54874   0.22702   0.00000  Uiso   1.00
O1244  O     0.83332   0.95127   0.77298   0.00000  Uiso   1.00
O1245  O     0.54874   0.83332   0.22702   0.00000  Uiso   1.00
O1246  O     0.95127   0.66668   0.77298   0.00000  Uiso   1.00
O1247  O     0.83332   0.95127   0.22702   0.00000  Uiso   1.00
O1248  O     0.66668   0.54874   0.77298   0.00000  Uiso   1.00
Zn1249 Zn    0.70053   0.50000   0.21730   0.00000  Uiso   1.00
Zn1250 Zn    0.79948   0.50000   0.78270   0.00000  Uiso   1.00
Zn1251 Zn    0.50000   0.70053   0.21730   0.00000  Uiso   1.00
Zn1252 Zn    0.50000   0.79948   0.78270   0.00000  Uiso   1.00
Zn1253 Zn    0.79948   0.50000   0.21730   0.00000  Uiso   1.00
Zn1254 Zn    0.70053   0.50000   0.78270   0.00000  Uiso   1.00
Zn1255 Zn    0.50000   0.79948   0.21730   0.00000  Uiso   1.00
Zn1256 Zn    0.50000   0.70053   0.78270   0.00000  Uiso   1.00
Zn1257 Zn    0.95053   0.75000   0.71730   0.00000  Uiso   1.00
Zn1258 Zn    0.54948   0.75000   0.28270   0.00000  Uiso   1.00
Zn1259 Zn    0.75000   0.95053   0.71730   0.00000  Uiso   1.00
Zn1260 Zn    0.75000   0.54948   0.28270   0.00000  Uiso   1.00
Zn1261 Zn    0.54948   0.75000   0.71730   0.00000  Uiso   1.00
Zn1262 Zn    0.95053   0.75000   0.28270   0.00000  Uiso   1.00
Zn1263 Zn    0.75000   0.54948   0.71730   0.00000  Uiso   1.00
Zn1264 Zn    0.75000   0.95053   0.28270   0.00000  Uiso   1.00
I1265  I     0.93291   0.81807   0.39367   0.00000  Uiso   1.00
I1266  I     0.93291   0.68193   0.60633   0.00000  Uiso   1.00
I1267  I     0.68193   0.93291   0.39367   0.00000  Uiso   1.00
I1268  I     0.81807   0.93291   0.60633   0.00000  Uiso   1.00
I1269  I     0.56709   0.68193   0.39367   0.00000  Uiso   1.00
I1270  I     0.56709   0.81807   0.60633   0.00000  Uiso   1.00
I1271  I     0.81807   0.56709   0.39367   0.00000  Uiso   1.00
I1272  I     0.68193   0.56709   0.60633   0.00000  Uiso   1.00
I1273  I     0.68291   0.56807   0.89367   0.00000  Uiso   1.00
I1274  I     0.68291   0.93193   0.10633   0.00000  Uiso   1.00
I1275  I     0.93193   0.68291   0.89367   0.00000  Uiso   1.00
I1276  I     0.56807   0.68291   0.10633   0.00000  Uiso   1.00
I1277  I     0.81709   0.93193   0.89367   0.00000  Uiso   1.00
I1278  I     0.81709   0.56807   0.10633   0.00000  Uiso   1.00
I1279  I     0.56807   0.81709   0.89367   0.00000  Uiso   1.00
I1280  I     0.93193   0.81709   0.10633   0.00000  Uiso   1.00
C1281  C     0.50570   0.63679   0.45667   0.00000  Uiso   1.00
C1282  C     0.98187   0.63286   0.42235   0.00000  Uiso   1.00
C1283  C     0.99039   0.60148   0.39570   0.00000  Uiso   1.00
C1284  C     0.51960   0.57154   0.40508   0.00000  Uiso   1.00
C1285  C     0.54020   0.57309   0.44107   0.00000  Uiso   1.00
C1286  C     0.53449   0.60632   0.46609   0.00000  Uiso   1.00
H1287  H     0.95885   0.65572   0.41495   0.00000  Uiso   1.00
H1288  H     0.97371   0.59983   0.36829   0.00000  Uiso   1.00
H1289  H     0.52513   0.54676   0.38472   0.00000  Uiso   1.00
H1290  H     0.56125   0.54931   0.44978   0.00000  Uiso   1.00
H1291  H     0.55335   0.60888   0.49210   0.00000  Uiso   1.00
C1292  C     0.50570   0.86321   0.54333   0.00000  Uiso   1.00
C1293  C     0.98187   0.86714   0.57765   0.00000  Uiso   1.00
C1294  C     0.99039   0.89853   0.60430   0.00000  Uiso   1.00
C1295  C     0.51960   0.92846   0.59492   0.00000  Uiso   1.00
C1296  C     0.54020   0.92691   0.55893   0.00000  Uiso   1.00
C1297  C     0.53449   0.89368   0.53391   0.00000  Uiso   1.00
H1298  H     0.95885   0.84428   0.58505   0.00000  Uiso   1.00
H1299  H     0.97371   0.90017   0.63171   0.00000  Uiso   1.00
H1300  H     0.52513   0.95324   0.61528   0.00000  Uiso   1.00
H1301  H     0.56125   0.95070   0.55022   0.00000  Uiso   1.00
H1302  H     0.55335   0.89112   0.50790   0.00000  Uiso   1.00
C1303  C     0.86321   0.50570   0.45667   0.00000  Uiso   1.00
C1304  C     0.86714   0.98187   0.42235   0.00000  Uiso   1.00
C1305  C     0.89852   0.99039   0.39570   0.00000  Uiso   1.00
C1306  C     0.92846   0.51960   0.40508   0.00000  Uiso   1.00
C1307  C     0.92691   0.54020   0.44107   0.00000  Uiso   1.00
C1308  C     0.89368   0.53449   0.46609   0.00000  Uiso   1.00
H1309  H     0.84428   0.95885   0.41495   0.00000  Uiso   1.00
H1310  H     0.90017   0.97372   0.36829   0.00000  Uiso   1.00
H1311  H     0.95324   0.52513   0.38472   0.00000  Uiso   1.00
H1312  H     0.95070   0.56125   0.44978   0.00000  Uiso   1.00
H1313  H     0.89112   0.55335   0.49210   0.00000  Uiso   1.00
C1314  C     0.63679   0.50570   0.54333   0.00000  Uiso   1.00
C1315  C     0.63286   0.98187   0.57765   0.00000  Uiso   1.00
C1316  C     0.60148   0.99039   0.60430   0.00000  Uiso   1.00
C1317  C     0.57154   0.51960   0.59493   0.00000  Uiso   1.00
C1318  C     0.57309   0.54020   0.55893   0.00000  Uiso   1.00
C1319  C     0.60632   0.53449   0.53391   0.00000  Uiso   1.00
H1320  H     0.65572   0.95885   0.58505   0.00000  Uiso   1.00
H1321  H     0.59983   0.97371   0.63171   0.00000  Uiso   1.00
H1322  H     0.54676   0.52513   0.61528   0.00000  Uiso   1.00
H1323  H     0.54931   0.56125   0.55022   0.00000  Uiso   1.00
H1324  H     0.60888   0.55335   0.50790   0.00000  Uiso   1.00
C1325  C     0.99430   0.86321   0.45667   0.00000  Uiso   1.00
C1326  C     0.51813   0.86714   0.42235   0.00000  Uiso   1.00
C1327  C     0.50961   0.89852   0.39570   0.00000  Uiso   1.00
C1328  C     0.98040   0.92846   0.40507   0.00000  Uiso   1.00
C1329  C     0.95980   0.92691   0.44107   0.00000  Uiso   1.00
C1330  C     0.96551   0.89368   0.46609   0.00000  Uiso   1.00
H1331  H     0.54115   0.84428   0.41495   0.00000  Uiso   1.00
H1332  H     0.52629   0.90017   0.36829   0.00000  Uiso   1.00
H1333  H     0.97487   0.95324   0.38472   0.00000  Uiso   1.00
H1334  H     0.93875   0.95069   0.44978   0.00000  Uiso   1.00
H1335  H     0.94665   0.89112   0.49210   0.00000  Uiso   1.00
C1336  C     0.99430   0.63679   0.54333   0.00000  Uiso   1.00
C1337  C     0.51813   0.63286   0.57765   0.00000  Uiso   1.00
C1338  C     0.50961   0.60148   0.60430   0.00000  Uiso   1.00
C1339  C     0.98040   0.57154   0.59492   0.00000  Uiso   1.00
C1340  C     0.95980   0.57309   0.55893   0.00000  Uiso   1.00
C1341  C     0.96551   0.60632   0.53391   0.00000  Uiso   1.00
H1342  H     0.54115   0.65572   0.58505   0.00000  Uiso   1.00
H1343  H     0.52628   0.59983   0.63171   0.00000  Uiso   1.00
H1344  H     0.97487   0.54676   0.61528   0.00000  Uiso   1.00
H1345  H     0.93875   0.54931   0.55022   0.00000  Uiso   1.00
H1346  H     0.94665   0.60888   0.50790   0.00000  Uiso   1.00
C1347  C     0.63679   0.99430   0.45667   0.00000  Uiso   1.00
C1348  C     0.63286   0.51813   0.42235   0.00000  Uiso   1.00
C1349  C     0.60148   0.50962   0.39570   0.00000  Uiso   1.00
C1350  C     0.57154   0.98040   0.40508   0.00000  Uiso   1.00
C1351  C     0.57309   0.95980   0.44107   0.00000  Uiso   1.00
C1352  C     0.60632   0.96551   0.46609   0.00000  Uiso   1.00
H1353  H     0.65572   0.54115   0.41495   0.00000  Uiso   1.00
H1354  H     0.59983   0.52629   0.36829   0.00000  Uiso   1.00
H1355  H     0.54676   0.97487   0.38472   0.00000  Uiso   1.00
H1356  H     0.54931   0.93875   0.44978   0.00000  Uiso   1.00
H1357  H     0.60888   0.94665   0.49210   0.00000  Uiso   1.00
C1358  C     0.86321   0.99430   0.54333   0.00000  Uiso   1.00
C1359  C     0.86714   0.51813   0.57765   0.00000  Uiso   1.00
C1360  C     0.89852   0.50961   0.60430   0.00000  Uiso   1.00
C1361  C     0.92846   0.98040   0.59492   0.00000  Uiso   1.00
C1362  C     0.92691   0.95980   0.55893   0.00000  Uiso   1.00
C1363  C     0.89368   0.96551   0.53391   0.00000  Uiso   1.00
H1364  H     0.84428   0.54115   0.58505   0.00000  Uiso   1.00
H1365  H     0.90017   0.52629   0.63171   0.00000  Uiso   1.00
H1366  H     0.95324   0.97487   0.61528   0.00000  Uiso   1.00
H1367  H     0.95069   0.93875   0.55022   0.00000  Uiso   1.00
H1368  H     0.89112   0.94665   0.50790   0.00000  Uiso   1.00
C1369  C     0.75570   0.88679   0.95667   0.00000  Uiso   1.00
C1370  C     0.73187   0.88286   0.92235   0.00000  Uiso   1.00
C1371  C     0.74039   0.85148   0.89570   0.00000  Uiso   1.00
C1372  C     0.76960   0.82154   0.90508   0.00000  Uiso   1.00
C1373  C     0.79020   0.82309   0.94107   0.00000  Uiso   1.00
C1374  C     0.78449   0.85632   0.96609   0.00000  Uiso   1.00
H1375  H     0.70885   0.90572   0.91495   0.00000  Uiso   1.00
H1376  H     0.72372   0.84983   0.86829   0.00000  Uiso   1.00
H1377  H     0.77513   0.79676   0.88472   0.00000  Uiso   1.00
H1378  H     0.81125   0.79931   0.94978   0.00000  Uiso   1.00
H1379  H     0.80335   0.85888   0.99210   0.00000  Uiso   1.00
C1380  C     0.75570   0.61321   0.04333   0.00000  Uiso   1.00
C1381  C     0.73187   0.61714   0.07765   0.00000  Uiso   1.00
C1382  C     0.74039   0.64853   0.10430   0.00000  Uiso   1.00
C1383  C     0.76960   0.67846   0.09492   0.00000  Uiso   1.00
C1384  C     0.79020   0.67691   0.05893   0.00000  Uiso   1.00
C1385  C     0.78449   0.64368   0.03391   0.00000  Uiso   1.00
H1386  H     0.70885   0.59428   0.08505   0.00000  Uiso   1.00
H1387  H     0.72371   0.65017   0.13171   0.00000  Uiso   1.00
H1388  H     0.77513   0.70324   0.11528   0.00000  Uiso   1.00
H1389  H     0.81125   0.70070   0.05022   0.00000  Uiso   1.00
H1390  H     0.80335   0.64112   0.00790   0.00000  Uiso   1.00
C1391  C     0.61321   0.75570   0.95667   0.00000  Uiso   1.00
C1392  C     0.61714   0.73187   0.92235   0.00000  Uiso   1.00
C1393  C     0.64852   0.74039   0.89570   0.00000  Uiso   1.00
C1394  C     0.67846   0.76960   0.90508   0.00000  Uiso   1.00
C1395  C     0.67691   0.79020   0.94107   0.00000  Uiso   1.00
C1396  C     0.64368   0.78449   0.96609   0.00000  Uiso   1.00
H1397  H     0.59428   0.70885   0.91495   0.00000  Uiso   1.00
H1398  H     0.65017   0.72372   0.86829   0.00000  Uiso   1.00
H1399  H     0.70324   0.77513   0.88472   0.00000  Uiso   1.00
H1400  H     0.70070   0.81125   0.94978   0.00000  Uiso   1.00
H1401  H     0.64112   0.80335   0.99210   0.00000  Uiso   1.00
C1402  C     0.88679   0.75570   0.04333   0.00000  Uiso   1.00
C1403  C     0.88286   0.73187   0.07765   0.00000  Uiso   1.00
C1404  C     0.85148   0.74039   0.10430   0.00000  Uiso   1.00
C1405  C     0.82154   0.76960   0.09493   0.00000  Uiso   1.00
C1406  C     0.82309   0.79020   0.05893   0.00000  Uiso   1.00
C1407  C     0.85632   0.78449   0.03391   0.00000  Uiso   1.00
H1408  H     0.90572   0.70885   0.08505   0.00000  Uiso   1.00
H1409  H     0.84983   0.72371   0.13171   0.00000  Uiso   1.00
H1410  H     0.79676   0.77513   0.11528   0.00000  Uiso   1.00
H1411  H     0.79931   0.81125   0.05022   0.00000  Uiso   1.00
H1412  H     0.85888   0.80335   0.00790   0.00000  Uiso   1.00
C1413  C     0.74430   0.61321   0.95667   0.00000  Uiso   1.00
C1414  C     0.76813   0.61714   0.92235   0.00000  Uiso   1.00
C1415  C     0.75961   0.64852   0.89570   0.00000  Uiso   1.00
C1416  C     0.73040   0.67846   0.90507   0.00000  Uiso   1.00
C1417  C     0.70980   0.67691   0.94107   0.00000  Uiso   1.00
C1418  C     0.71551   0.64368   0.96609   0.00000  Uiso   1.00
H1419  H     0.79115   0.59428   0.91495   0.00000  Uiso   1.00
H1420  H     0.77629   0.65017   0.86829   0.00000  Uiso   1.00
H1421  H     0.72487   0.70324   0.88472   0.00000  Uiso   1.00
H1422  H     0.68875   0.70069   0.94978   0.00000  Uiso   1.00
H1423  H     0.69665   0.64112   0.99210   0.00000  Uiso   1.00
C1424  C     0.74430   0.88679   0.04333   0.00000  Uiso   1.00
C1425  C     0.76813   0.88286   0.07765   0.00000  Uiso   1.00
C1426  C     0.75961   0.85148   0.10430   0.00000  Uiso   1.00
C1427  C     0.73040   0.82154   0.09492   0.00000  Uiso   1.00
C1428  C     0.70980   0.82309   0.05893   0.00000  Uiso   1.00
C1429  C     0.71551   0.85632   0.03391   0.00000  Uiso   1.00
H1430  H     0.79115   0.90572   0.08505   0.00000  Uiso   1.00
H1431  H     0.77628   0.84983   0.13171   0.00000  Uiso   1.00
H1432  H     0.72487   0.79676   0.11528   0.00000  Uiso   1.00
H1433  H     0.68875   0.79931   0.05022   0.00000  Uiso   1.00
H1434  H     0.69665   0.85888   0.00790   0.00000  Uiso   1.00
C1435  C     0.88679   0.74430   0.95667   0.00000  Uiso   1.00
C1436  C     0.88286   0.76813   0.92235   0.00000  Uiso   1.00
C1437  C     0.85148   0.75962   0.89570   0.00000  Uiso   1.00
C1438  C     0.82154   0.73040   0.90508   0.00000  Uiso   1.00
C1439  C     0.82309   0.70980   0.94107   0.00000  Uiso   1.00
C1440  C     0.85632   0.71551   0.96609   0.00000  Uiso   1.00
H1441  H     0.90572   0.79115   0.91495   0.00000  Uiso   1.00
H1442  H     0.84983   0.77629   0.86829   0.00000  Uiso   1.00
H1443  H     0.79676   0.72487   0.88472   0.00000  Uiso   1.00
H1444  H     0.79931   0.68875   0.94978   0.00000  Uiso   1.00
H1445  H     0.85888   0.69665   0.99210   0.00000  Uiso   1.00
C1446  C     0.61321   0.74430   0.04333   0.00000  Uiso   1.00
C1447  C     0.61714   0.76813   0.07765   0.00000  Uiso   1.00
C1448  C     0.64852   0.75961   0.10430   0.00000  Uiso   1.00
C1449  C     0.67846   0.73040   0.09492   0.00000  Uiso   1.00
C1450  C     0.67691   0.70980   0.05893   0.00000  Uiso   1.00
C1451  C     0.64368   0.71551   0.03391   0.00000  Uiso   1.00
H1452  H     0.59428   0.79115   0.08505   0.00000  Uiso   1.00
H1453  H     0.65017   0.77629   0.13171   0.00000  Uiso   1.00
H1454  H     0.70324   0.72487   0.11528   0.00000  Uiso   1.00
H1455  H     0.70069   0.68875   0.05022   0.00000  Uiso   1.00
H1456  H     0.64112   0.69665   0.00790   0.00000  Uiso   1.00
loop_
_geom_bond_atom_site_label_1
_geom_bond_atom_site_label_2
_geom_bond_distance
_geom_bond_site_symmetry_2
_ccdc_geom_bond_type
C1     O837    1.287   1_545 A
C1     C59     1.457   .     S
C1     O113    1.287   .     S
C2     O110    1.287   .     A
C2     C60     1.457   .     S
C2     O842    1.287   1_545 S
C3     O479    1.287   1_455 A
C3     C57     1.457   .     S
C3     O111    1.287   .     S
C4     C58     1.457   .     S
C4     O476    1.287   1_455 A
C4     O116    1.287   .     S
C5     C63     1.457   .     S
C5     O117    1.287   .     S
C5     O121    1.287   .     S
C6     C64     1.457   .     S
C6     O118    1.287   .     S
C6     O122    1.287   .     S
C7     O119    1.287   .     A
C7     O123    1.287   .     A
C7     C61     1.457   .     S
C8     C62     1.457   .     S
C8     O120    1.287   .     S
C8     O124    1.287   .     S
C9     O151    1.289   .     A
C9     O125    1.289   .     A
C9     C38     1.455   .     S
C10    O152    1.289   .     A
C10    C37     1.455   .     S
C10    O126    1.289   .     A
C11    O127    1.289   .     A
C11    O149    1.289   .     A
C11    C36     1.455   .     S
C12    O128    1.289   .     A
C12    C35     1.455   .     S
C12    O150    1.289   .     A
C13    O129    1.289   .     A
C13    C34     1.455   .     S
C13    O155    1.289   .     A
C14    C33     1.455   .     S
C14    O130    1.289   .     A
C14    O156    1.289   .     A
C15    O153    1.289   .     A
C15    O131    1.289   .     A
C15    C40     1.455   .     S
C16    O154    1.289   .     A
C16    O132    1.289   .     A
C16    C39     1.455   .     S
C17    C30     1.455   .     S
C17    O133    1.289   .     A
C17    O143    1.289   .     A
C18    C29     1.455   .     S
C18    O144    1.289   .     A
C18    O134    1.289   .     A
C19    O141    1.289   .     A
C19    C28     1.455   .     S
C19    O135    1.289   .     A
C20    O136    1.289   .     A
C20    C27     1.455   .     S
C20    O142    1.289   .     A
C21    C26     1.455   .     S
C21    O137    1.289   .     A
C21    O147    1.289   .     A
C22    C25     1.455   .     S
C22    O138    1.289   .     A
C22    O148    1.289   .     A
C23    C32     1.455   .     S
C23    O145    1.289   .     A
C23    O139    1.289   .     A
C24    O140    1.289   .     A
C24    C31     1.455   .     S
C24    O146    1.289   .     A
C25    C40     1.217   .     T
C26    C39     1.217   .     T
C27    C38     1.217   .     T
C28    C37     1.217   .     T
C29    C36     1.217   .     T
C30    C35     1.217   .     T
C31    C34     1.217   .     T
C32    C33     1.217   .     T
C41    C69     1.414   .     A
C41    I173    2.150   .     S
C41    C421    1.405   .     S
C42    C422    1.405   .     A
C42    C70     1.414   .     A
C42    I174    2.150   .     S
C43    I175    2.150   .     S
C43    C71     1.414   .     A
C43    C787    1.405   .     S
C44    C72     1.414   .     A
C44    I176    2.150   .     S
C44    C788    1.405   .     A
C45    C57     1.405   .     A
C45    C65     1.414   .     A
C45    I177    2.150   .     S
C46    C66     1.414   .     A
C46    I178    2.150   .     S
C46    C58     1.405   .     S
C47    C59     1.405   .     A
C47    I179    2.150   .     S
C47    C67     1.414   .     A
C48    I180    2.150   .     S
C48    C68     1.414   .     A
C48    C60     1.405   .     S
C49    I181    2.150   .     S
C49    C77     1.414   .     A
C49    C61     1.405   .     A
C50    I182    2.150   .     S
C50    C78     1.414   .     A
C50    C790    1.405   .     S
C51    I183    2.150   .     S
C51    C79     1.414   .     A
C51    C427    1.405   .     A
C52    I184    2.150   .     S
C52    C80     1.414   .     A
C52    C64     1.405   .     S
C53    I185    2.150   .     S
C53    C73     1.414   .     A
C53    C789    1.405   .     S
C54    C74     1.414   .     A
C54    C62     1.405   .     A
C54    I186    2.150   .     S
C55    I187    2.150   .     S
C55    C75     1.414   .     A
C55    C63     1.405   .     S
C56    C428    1.405   .     A
C56    C76     1.414   .     A
C56    I188    2.150   .     S
C57    C405    1.405   1_455 S
C58    C406    1.405   1_455 A
C59    C771    1.405   1_545 S
C60    C772    1.405   1_545 A
C61    C781    1.405   1_545 S
C62    C778    1.405   1_545 S
C63    C415    1.405   1_455 A
C64    C420    1.405   1_455 A
C65    C89     1.416   .     A
C65    C81     1.398   .     A
C66    C82     1.398   .     A
C66    C90     1.416   .     A
C67    C91     1.416   .     A
C67    C83     1.398   .     S
C68    C92     1.416   .     A
C68    C84     1.398   .     S
C69    C93     1.416   .     A
C69    C445    1.398   .     S
C70    C94     1.416   .     A
C70    C446    1.398   .     S
C71    C95     1.416   .     A
C71    C811    1.398   .     A
C72    C812    1.398   .     A
C72    C96     1.416   .     A
C73    C97     1.416   .     A
C73    C813    1.398   .     S
C74    C86     1.398   .     A
C74    C98     1.416   .     A
C75    C99     1.416   .     A
C75    C87     1.398   .     S
C76    C100    1.416   .     A
C76    C452    1.398   .     A
C77    C101    1.416   .     A
C77    C85     1.398   .     A
C78    C102    1.416   .     A
C78    C814    1.398   .     S
C79    C451    1.398   .     A
C79    C103    1.416   .     A
C80    C104    1.416   .     A
C80    C88     1.398   .     S
C81    C82     1.383   .     A
C81    C433    1.398   1_455 S
C82    C434    1.398   1_455 S
C83    C799    1.398   1_545 A
C83    C84     1.383   .     A
C84    C800    1.398   1_545 A
C85    C801    1.398   1_545 S
C85    C86     1.383   1_556 S
C86    C806    1.398   1_545 S
C86    C85     1.383   1_554 S
C87    C443    1.398   1_455 A
C87    C88     1.383   1_556 S
C88    C440    1.398   1_455 A
C88    C87     1.383   1_554 S
C89    C189    1.477   .     S
C89    C458    1.427   1_455 S
C90    C200    1.477   .     S
C90    C457    1.427   1_455 S
C91    C211    1.477   .     S
C91    C824    1.427   1_545 S
C92    C222    1.477   .     S
C92    C823    1.427   1_545 S
C93    C233    1.477   .     S
C93    C454    1.427   .     S
C94    C244    1.477   .     S
C94    C453    1.427   .     S
C95    C255    1.477   .     S
C95    C820    1.427   .     S
C96    C266    1.477   .     S
C96    C819    1.427   .     S
C97    C277    1.477   .     S
C97    C102    1.427   1_556 S
C98    C288    1.477   .     S
C98    C101    1.427   1_554 S
C99    C299    1.477   .     S
C99    C104    1.427   1_556 S
C100   C310    1.477   .     S
C100   C103    1.427   1_554 S
C101   C321    1.477   .     S
C101   C98     1.427   1_556 S
C102   C332    1.477   .     S
C102   C97     1.427   1_554 S
C103   C343    1.477   .     S
C103   C100    1.427   1_556 S
C104   C354    1.477   .     S
C104   C99     1.427   1_554 S
O105   Zn161   1.956   .     S
O105   Zn157   1.956   .     S
O105   Zn900   1.956   1_545 S
O105   Zn168   1.956   .     S
O106   Zn895   1.956   1_545 S
O106   Zn162   1.956   .     S
O106   Zn158   1.956   .     S
O106   Zn171   1.956   .     S
O107   Zn534   1.956   1_455 S
O107   Zn159   1.956   .     S
O107   Zn163   1.956   .     S
O107   Zn166   1.956   .     S
O108   Zn169   1.956   .     S
O108   Zn160   1.956   .     S
O108   Zn164   1.956   .     S
O108   Zn529   1.956   1_455 S
O109   Zn172   1.932   .     S
O109   C729    1.287   .     A
O110   Zn171   1.932   .     S
O111   Zn166   1.932   .     S
O112   Zn165   1.932   .     S
O112   C368    1.287   .     A
O113   Zn168   1.932   .     S
O114   Zn167   1.932   .     S
O114   C730    1.287   .     S
O115   C367    1.287   .     A
O115   Zn170   1.932   .     S
O116   Zn169   1.932   .     S
O117   Zn164   1.932   .     S
O118   Zn163   1.932   .     S
O119   Zn158   1.932   .     S
O120   Zn157   1.932   .     S
O121   Zn160   1.932   .     S
O122   Zn159   1.932   .     S
O123   Zn162   1.932   .     S
O124   Zn161   1.932   .     S
O125   Zn168   1.955   .     S
O126   Zn167   1.955   .     S
O127   Zn170   1.955   .     S
O128   Zn169   1.955   .     S
O129   Zn172   1.955   .     S
O130   Zn171   1.955   .     S
O131   Zn166   1.955   .     S
O132   Zn165   1.955   .     S
O133   Zn167   1.955   .     S
O134   Zn168   1.955   .     S
O135   Zn165   1.955   .     S
O136   Zn166   1.955   .     S
O137   Zn171   1.955   .     S
O138   Zn172   1.955   .     S
O139   Zn169   1.955   .     S
O140   Zn170   1.955   .     S
O141   Zn524   1.955   .     S
O142   Zn159   1.955   .     S
O143   Zn890   1.955   .     S
O144   Zn161   1.955   .     S
O145   Zn164   1.955   .     S
O146   Zn527   1.955   .     S
O147   Zn158   1.955   .     S
O148   Zn885   1.955   .     S
O149   Zn523   1.955   .     S
O150   Zn160   1.955   .     S
O151   Zn157   1.955   .     S
O152   Zn886   1.955   .     S
O153   Zn163   1.955   .     S
O154   Zn528   1.955   .     S
O155   Zn889   1.955   .     S
O156   Zn162   1.955   .     S
Zn157  O876    1.955   1_545 S
Zn158  O880    1.955   1_545 S
Zn159  O513    1.955   1_455 S
Zn160  O505    1.955   1_455 S
Zn161  O883    1.955   1_545 S
Zn162  O871    1.955   1_545 S
Zn163  O510    1.955   1_455 S
Zn164  O518    1.955   1_455 S
Zn165  O472    1.956   .     S
Zn167  O834    1.956   .     S
Zn170  O471    1.956   .     S
Zn172  O833    1.956   .     S
C189   C194    1.398   .     A
C189   C554    1.410   1_455 S
C190   C191    1.394   .     A
C190   H195    1.083   .     S
C190   C553    1.410   .     S
C191   H196    1.082   .     S
C191   C556    1.395   .     S
C192   H197    1.078   .     S
C192   C193    1.400   .     A
C192   C555    1.395   1_455 S
C193   C194    1.388   .     A
C193   H198    1.073   .     S
C194   H199    1.082   .     S
C200   C205    1.398   .     A
C200   C565    1.410   1_455 S
C201   H206    1.083   .     S
C201   C202    1.394   .     A
C201   C564    1.410   .     S
C202   H207    1.082   .     S
C202   C567    1.395   .     S
C203   H208    1.078   .     S
C203   C204    1.400   .     A
C203   C566    1.395   1_455 S
C204   C205    1.388   .     A
C204   H209    1.073   .     S
C205   H210    1.082   .     S
C211   C216    1.398   .     A
C211   C940    1.410   1_545 S
C212   C213    1.394   .     A
C212   H217    1.083   .     S
C212   C939    1.410   .     S
C213   H218    1.082   .     S
C213   C942    1.395   .     S
C214   C215    1.400   .     A
C214   H219    1.078   .     S
C214   C941    1.395   1_545 S
C215   C216    1.388   .     A
C215   H220    1.073   .     S
C216   H221    1.082   .     S
C222   C227    1.398   .     A
C222   C951    1.410   1_545 S
C223   C224    1.394   .     A
C223   H228    1.083   .     S
C223   C950    1.410   .     S
C224   H229    1.082   .     S
C224   C953    1.395   .     S
C225   H230    1.078   .     S
C225   C226    1.400   .     A
C225   C952    1.395   1_545 S
C226   C227    1.388   .     A
C226   H231    1.073   .     S
C227   H232    1.082   .     S
C233   C238    1.398   .     A
C233   C598    1.410   .     S
C234   C235    1.394   .     A
C234   H239    1.083   .     S
C234   C597    1.410   1_455 S
C235   H240    1.082   .     S
C235   C600    1.395   1_455 S
C236   C237    1.400   .     A
C236   H241    1.078   .     S
C236   C599    1.395   .     S
C237   H242    1.073   .     S
C237   C238    1.388   .     A
C238   H243    1.082   .     S
C244   C249    1.398   .     A
C244   C609    1.410   .     S
C245   H250    1.083   .     S
C245   C246    1.394   .     A
C245   C608    1.410   1_455 S
C246   H251    1.082   .     S
C246   C611    1.395   1_455 S
C247   H252    1.078   .     S
C247   C248    1.400   .     A
C247   C610    1.395   .     S
C248   H253    1.073   .     S
C248   C249    1.388   .     A
C249   H254    1.082   .     S
C255   C260    1.398   .     A
C255   C984    1.410   .     S
C256   C257    1.394   .     A
C256   H261    1.083   .     S
C256   C983    1.410   1_545 S
C257   H262    1.082   .     S
C257   C986    1.395   1_545 S
C258   C259    1.400   .     A
C258   H263    1.078   .     S
C258   C985    1.395   .     S
C259   H264    1.073   .     S
C259   C260    1.388   .     A
C260   H265    1.082   .     S
C266   C271    1.398   .     A
C266   C995    1.410   .     S
C267   H272    1.083   .     S
C267   C268    1.394   .     A
C267   C994    1.410   1_545 S
C268   H273    1.082   .     S
C268   C997    1.395   1_545 S
C269   H274    1.078   .     S
C269   C270    1.400   .     A
C269   C996    1.395   .     S
C270   H275    1.073   .     S
C270   C271    1.388   .     A
C271   H276    1.082   .     S
C277   C282    1.398   .     A
C277   C278    1.410   .     A
C278   H283    1.083   .     S
C278   C279    1.394   .     A
C279   C280    1.395   .     A
C279   H284    1.082   .     S
C280   C281    1.400   .     A
C280   H285    1.078   .     S
C281   H286    1.073   .     S
C281   C282    1.388   .     A
C282   H287    1.082   .     S
C288   C293    1.398   .     A
C288   C289    1.410   .     A
C289   C290    1.394   .     A
C289   H294    1.083   .     S
C290   C291    1.395   .     A
C290   H295    1.082   .     S
C291   C292    1.400   .     A
C291   H296    1.078   .     S
C292   H297    1.073   .     S
C292   C293    1.388   .     A
C293   H298    1.082   .     S
C299   C300    1.410   .     A
C299   C304    1.398   .     A
C300   C301    1.394   .     A
C300   H305    1.083   .     S
C301   C302    1.395   .     A
C301   H306    1.082   .     S
C302   H307    1.078   .     S
C302   C303    1.400   .     A
C303   H308    1.073   .     S
C303   C304    1.388   .     A
C304   H309    1.082   .     S
C310   C315    1.398   .     A
C310   C311    1.410   .     A
C311   C312    1.394   .     A
C311   H316    1.083   .     S
C312   C313    1.395   .     A
C312   H317    1.082   .     S
C313   H318    1.078   .     S
C313   C314    1.400   .     A
C314   C315    1.388   .     A
C314   H319    1.073   .     S
C315   H320    1.082   .     S
C321   C322    1.410   .     A
C321   C326    1.398   .     A
C322   H327    1.083   .     S
C322   C323    1.394   .     A
C323   C324    1.395   .     A
C323   H328    1.082   .     S
C324   C325    1.400   .     A
C324   H329    1.078   .     S
C325   C326    1.388   .     A
C325   H330    1.073   .     S
C326   H331    1.082   .     S
C332   C333    1.410   .     A
C332   C337    1.398   .     A
C333   C334    1.394   .     A
C333   H338    1.083   .     S
C334   H339    1.082   .     S
C334   C335    1.395   .     A
C335   C336    1.400   .     A
C335   H340    1.078   .     S
C336   C337    1.388   .     A
C336   H341    1.073   .     S
C337   H342    1.082   .     S
C343   C344    1.410   .     A
C343   C348    1.398   .     A
C344   H349    1.083   .     S
C344   C345    1.394   .     A
C345   H350    1.082   .     S
C345   C346    1.395   .     A
C346   H351    1.078   .     S
C346   C347    1.400   .     A
C347   H352    1.073   .     S
C347   C348    1.388   .     A
C348   H353    1.082   .     S
C354   C359    1.398   .     A
C354   C355    1.410   .     A
C355   C356    1.394   .     A
C355   H360    1.083   .     S
C356   H361    1.082   .     S
C356   C357    1.395   .     A
C357   C358    1.400   .     A
C357   H362    1.078   .     S
C358   H363    1.073   .     S
C358   C359    1.388   .     A
C359   H364    1.082   .     S
C365   O1201   1.287   1_545 A
C365   C423    1.457   .     S
C365   O477    1.287   .     S
C366   O474    1.287   .     A
C366   C424    1.457   .     S
C366   O1206   1.287   1_545 S
C367   C421    1.457   .     S
C367   O475    1.287   .     S
C368   C422    1.457   .     S
C368   O480    1.287   .     S
C369   C427    1.457   .     S
C369   O481    1.287   .     S
C369   O485    1.287   .     S
C370   C428    1.457   .     S
C370   O482    1.287   .     S
C370   O486    1.287   .     S
C371   O483    1.287   .     A
C371   O487    1.287   .     A
C371   C425    1.457   .     S
C372   C426    1.457   .     S
C372   O484    1.287   .     S
C372   O488    1.287   .     S
C373   O515    1.289   .     A
C373   O489    1.289   .     A
C373   C402    1.455   .     S
C374   O516    1.289   .     A
C374   C401    1.455   .     S
C374   O490    1.289   .     A
C375   O491    1.289   .     A
C375   O513    1.289   .     A
C375   C400    1.455   .     S
C376   O492    1.289   .     A
C376   C399    1.455   .     S
C376   O514    1.289   .     A
C377   O493    1.289   .     A
C377   C398    1.455   .     S
C377   O519    1.289   .     A
C378   C397    1.455   .     S
C378   O494    1.289   .     A
C378   O520    1.289   .     A
C379   O517    1.289   .     A
C379   O495    1.289   .     A
C379   C404    1.455   .     S
C380   O518    1.289   .     A
C380   O496    1.289   .     A
C380   C403    1.455   .     S
C381   C394    1.455   .     S
C381   O497    1.289   .     A
C381   O507    1.289   .     A
C382   C393    1.455   .     S
C382   O508    1.289   .     A
C382   O498    1.289   .     A
C383   O505    1.289   .     A
C383   C392    1.455   .     S
C383   O499    1.289   .     A
C384   O500    1.289   .     A
C384   C391    1.455   .     S
C384   O506    1.289   .     A
C385   C390    1.455   .     S
C385   O501    1.289   .     A
C385   O511    1.289   .     A
C386   C389    1.455   .     S
C386   O502    1.289   .     A
C386   O512    1.289   .     A
C387   C396    1.455   .     S
C387   O509    1.289   .     A
C387   O503    1.289   .     A
C388   O504    1.289   .     A
C388   C395    1.455   .     S
C388   O510    1.289   .     A
C389   C404    1.217   .     T
C390   C403    1.217   .     T
C391   C402    1.217   .     T
C392   C401    1.217   .     T
C393   C400    1.217   .     T
C394   C399    1.217   .     T
C395   C398    1.217   .     T
C396   C397    1.217   .     T
C405   C433    1.414   .     A
C405   I537    2.150   .     S
C405   C57     1.405   1_655 S
C406   C58     1.405   1_655 A
C406   C434    1.414   .     A
C406   I538    2.150   .     S
C407   I539    2.150   .     S
C407   C435    1.414   .     A
C407   C1151   1.405   .     S
C408   C436    1.414   .     A
C408   I540    2.150   .     S
C408   C1152   1.405   .     A
C409   C421    1.405   .     A
C409   C429    1.414   .     A
C409   I541    2.150   .     S
C410   C430    1.414   .     A
C410   I542    2.150   .     S
C410   C422    1.405   .     S
C411   C423    1.405   .     A
C411   I543    2.150   .     S
C411   C431    1.414   .     A
C412   I544    2.150   .     S
C412   C432    1.414   .     A
C412   C424    1.405   .     S
C413   I545    2.150   .     S
C413   C441    1.414   .     A
C413   C425    1.405   .     A
C414   I546    2.150   .     S
C414   C442    1.414   .     A
C414   C1154   1.405   .     S
C415   I547    2.150   .     S
C415   C443    1.414   .     A
C415   C63     1.405   1_655 A
C416   I548    2.150   .     S
C416   C444    1.414   .     A
C416   C428    1.405   .     S
C417   I549    2.150   .     S
C417   C437    1.414   .     A
C417   C1153   1.405   .     S
C418   C438    1.414   .     A
C418   C426    1.405   .     A
C418   I550    2.150   .     S
C419   I551    2.150   .     S
C419   C439    1.414   .     A
C419   C427    1.405   .     S
C420   C64     1.405   1_655 A
C420   C440    1.414   .     A
C420   I552    2.150   .     S
C423   C1135   1.405   1_545 S
C424   C1136   1.405   1_545 A
C425   C1145   1.405   1_545 S
C426   C1142   1.405   1_545 S
C429   C453    1.416   .     A
C429   C445    1.398   .     A
C430   C446    1.398   .     A
C430   C454    1.416   .     A
C431   C455    1.416   .     A
C431   C447    1.398   .     S
C432   C456    1.416   .     A
C432   C448    1.398   .     S
C433   C457    1.416   .     A
C433   C81     1.398   1_655 S
C434   C458    1.416   .     A
C434   C82     1.398   1_655 S
C435   C459    1.416   .     A
C435   C1175   1.398   .     A
C436   C1176   1.398   .     A
C436   C460    1.416   .     A
C437   C461    1.416   .     A
C437   C1177   1.398   .     S
C438   C450    1.398   .     A
C438   C462    1.416   .     A
C439   C463    1.416   .     A
C439   C451    1.398   .     S
C440   C464    1.416   .     A
C440   C88     1.398   1_655 A
C441   C465    1.416   .     A
C441   C449    1.398   .     A
C442   C466    1.416   .     A
C442   C1178   1.398   .     S
C443   C87     1.398   1_655 A
C443   C467    1.416   .     A
C444   C468    1.416   .     A
C444   C452    1.398   .     S
C445   C446    1.383   .     A
C447   C1163   1.398   1_545 A
C447   C448    1.383   .     A
C448   C1164   1.398   1_545 A
C449   C1165   1.398   1_545 S
C449   C450    1.383   1_556 S
C450   C1170   1.398   1_545 S
C450   C449    1.383   1_554 S
C451   C452    1.383   1_556 S
C452   C451    1.383   1_554 S
C453   C553    1.477   .     S
C454   C564    1.477   .     S
C455   C575    1.477   .     S
C455   C1188   1.427   1_545 S
C456   C586    1.477   .     S
C456   C1187   1.427   1_545 S
C457   C597    1.477   .     S
C457   C90     1.427   1_655 S
C458   C608    1.477   .     S
C458   C89     1.427   1_655 S
C459   C619    1.477   .     S
C459   C1184   1.427   .     S
C460   C630    1.477   .     S
C460   C1183   1.427   .     S
C461   C641    1.477   .     S
C461   C466    1.427   1_556 S
C462   C652    1.477   .     S
C462   C465    1.427   1_554 S
C463   C663    1.477   .     S
C463   C468    1.427   1_556 S
C464   C674    1.477   .     S
C464   C467    1.427   1_554 S
C465   C685    1.477   .     S
C465   C462    1.427   1_556 S
C466   C696    1.477   .     S
C466   C461    1.427   1_554 S
C467   C707    1.477   .     S
C467   C464    1.427   1_556 S
C468   C718    1.477   .     S
C468   C463    1.427   1_554 S
O469   Zn525   1.956   .     S
O469   Zn521   1.956   .     S
O469   Zn1264  1.956   1_545 S
O469   Zn532   1.956   .     S
O470   Zn1259  1.956   1_545 S
O470   Zn526   1.956   .     S
O470   Zn522   1.956   .     S
O470   Zn535   1.956   .     S
O471   Zn523   1.956   .     S
O471   Zn527   1.956   .     S
O471   Zn530   1.956   .     S
O472   Zn533   1.956   .     S
O472   Zn524   1.956   .     S
O472   Zn528   1.956   .     S
O473   Zn536   1.932   .     S
O473   C1093   1.287   .     A
O474   Zn535   1.932   .     S
O475   Zn530   1.932   .     S
O476   Zn529   1.932   .     S
O476   C4      1.287   1_655 A
O477   Zn532   1.932   .     S
O478   Zn531   1.932   .     S
O478   C1094   1.287   .     S
O479   C3      1.287   1_655 A
O479   Zn534   1.932   .     S
O480   Zn533   1.932   .     S
O481   Zn528   1.932   .     S
O482   Zn527   1.932   .     S
O483   Zn522   1.932   .     S
O484   Zn521   1.932   .     S
O485   Zn524   1.932   .     S
O486   Zn523   1.932   .     S
O487   Zn526   1.932   .     S
O488   Zn525   1.932   .     S
O489   Zn532   1.955   .     S
O490   Zn531   1.955   .     S
O491   Zn534   1.955   .     S
O492   Zn533   1.955   .     S
O493   Zn536   1.955   .     S
O494   Zn535   1.955   .     S
O495   Zn530   1.955   .     S
O496   Zn529   1.955   .     S
O497   Zn531   1.955   .     S
O498   Zn532   1.955   .     S
O499   Zn529   1.955   .     S
O500   Zn530   1.955   .     S
O501   Zn535   1.955   .     S
O502   Zn536   1.955   .     S
O503   Zn533   1.955   .     S
O504   Zn534   1.955   .     S
O505   Zn160   1.955   1_655 S
O506   Zn523   1.955   .     S
O507   Zn1254  1.955   .     S
O508   Zn525   1.955   .     S
O509   Zn528   1.955   .     S
O510   Zn163   1.955   1_655 S
O511   Zn522   1.955   .     S
O512   Zn1249  1.955   .     S
O513   Zn159   1.955   1_655 S
O514   Zn524   1.955   .     S
O515   Zn521   1.955   .     S
O516   Zn1250  1.955   .     S
O517   Zn527   1.955   .     S
O518   Zn164   1.955   1_655 S
O519   Zn1253  1.955   .     S
O520   Zn526   1.955   .     S
Zn521  O1240   1.955   1_545 S
Zn522  O1244   1.955   1_545 S
Zn525  O1247   1.955   1_545 S
Zn526  O1235   1.955   1_545 S
Zn529  O108    1.956   1_655 S
Zn531  O1198   1.956   .     S
Zn534  O107    1.956   1_655 S
Zn536  O1197   1.956   .     S
C553   C558    1.398   .     A
C554   C555    1.394   .     A
C554   H559    1.083   .     S
C554   C189    1.410   1_655 S
C555   H560    1.082   .     S
C555   C192    1.395   1_655 S
C556   H561    1.078   .     S
C556   C557    1.400   .     A
C557   C558    1.388   .     A
C557   H562    1.073   .     S
C558   H563    1.082   .     S
C564   C569    1.398   .     A
C565   H570    1.083   .     S
C565   C566    1.394   .     A
C565   C200    1.410   1_655 S
C566   H571    1.082   .     S
C566   C203    1.395   1_655 S
C567   H572    1.078   .     S
C567   C568    1.400   .     A
C568   C569    1.388   .     A
C568   H573    1.073   .     S
C569   H574    1.082   .     S
C575   C580    1.398   .     A
C575   C1304   1.410   1_545 S
C576   C577    1.394   .     A
C576   H581    1.083   .     S
C576   C1303   1.410   .     S
C577   H582    1.082   .     S
C577   C1306   1.395   .     S
C578   C579    1.400   .     A
C578   H583    1.078   .     S
C578   C1305   1.395   1_545 S
C579   C580    1.388   .     A
C579   H584    1.073   .     S
C580   H585    1.082   .     S
C586   C591    1.398   .     A
C586   C1315   1.410   1_545 S
C587   C588    1.394   .     A
C587   H592    1.083   .     S
C587   C1314   1.410   .     S
C588   H593    1.082   .     S
C588   C1317   1.395   .     S
C589   H594    1.078   .     S
C589   C590    1.400   .     A
C589   C1316   1.395   1_545 S
C590   C591    1.388   .     A
C590   H595    1.073   .     S
C591   H596    1.082   .     S
C597   C602    1.398   .     A
C597   C234    1.410   1_655 S
C598   C599    1.394   .     A
C598   H603    1.083   .     S
C599   H604    1.082   .     S
C600   C601    1.400   .     A
C600   H605    1.078   .     S
C600   C235    1.395   1_655 S
C601   H606    1.073   .     S
C601   C602    1.388   .     A
C602   H607    1.082   .     S
C608   C613    1.398   .     A
C608   C245    1.410   1_655 S
C609   H614    1.083   .     S
C609   C610    1.394   .     A
C610   H615    1.082   .     S
C611   H616    1.078   .     S
C611   C612    1.400   .     A
C611   C246    1.395   1_655 S
C612   H617    1.073   .     S
C612   C613    1.388   .     A
C613   H618    1.082   .     S
C619   C624    1.398   .     A
C619   C1348   1.410   .     S
C620   C621    1.394   .     A
C620   H625    1.083   .     S
C620   C1347   1.410   1_545 S
C621   H626    1.082   .     S
C621   C1350   1.395   1_545 S
C622   C623    1.400   .     A
C622   H627    1.078   .     S
C622   C1349   1.395   .     S
C623   H628    1.073   .     S
C623   C624    1.388   .     A
C624   H629    1.082   .     S
C630   C635    1.398   .     A
C630   C1359   1.410   .     S
C631   H636    1.083   .     S
C631   C632    1.394   .     A
C631   C1358   1.410   1_545 S
C632   H637    1.082   .     S
C632   C1361   1.395   1_545 S
C633   H638    1.078   .     S
C633   C634    1.400   .     A
C633   C1360   1.395   .     S
C634   H639    1.073   .     S
C634   C635    1.388   .     A
C635   H640    1.082   .     S
C641   C646    1.398   .     A
C641   C642    1.410   .     A
C642   H647    1.083   .     S
C642   C643    1.394   .     A
C643   C644    1.395   .     A
C643   H648    1.082   .     S
C644   C645    1.400   .     A
C644   H649    1.078   .     S
C645   H650    1.073   .     S
C645   C646    1.388   .     A
C646   H651    1.082   .     S
C652   C657    1.398   .     A
C652   C653    1.410   .     A
C653   C654    1.394   .     A
C653   H658    1.083   .     S
C654   C655    1.395   .     A
C654   H659    1.082   .     S
C655   C656    1.400   .     A
C655   H660    1.078   .     S
C656   H661    1.073   .     S
C656   C657    1.388   .     A
C657   H662    1.082   .     S
C663   C664    1.410   .     A
C663   C668    1.398   .     A
C664   C665    1.394   .     A
C664   H669    1.083   .     S
C665   C666    1.395   .     A
C665   H670    1.082   .     S
C666   H671    1.078   .     S
C666   C667    1.400   .     A
C667   H672    1.073   .     S
C667   C668    1.388   .     A
C668   H673    1.082   .     S
C674   C679    1.398   .     A
C674   C675    1.410   .     A
C675   C676    1.394   .     A
C675   H680    1.083   .     S
C676   C677    1.395   .     A
C676   H681    1.082   .     S
C677   H682    1.078   .     S
C677   C678    1.400   .     A
C678   C679    1.388   .     A
C678   H683    1.073   .     S
C679   H684    1.082   .     S
C685   C686    1.410   .     A
C685   C690    1.398   .     A
C686   H691    1.083   .     S
C686   C687    1.394   .     A
C687   C688    1.395   .     A
C687   H692    1.082   .     S
C688   C689    1.400   .     A
C688   H693    1.078   .     S
C689   C690    1.388   .     A
C689   H694    1.073   .     S
C690   H695    1.082   .     S
C696   C697    1.410   .     A
C696   C701    1.398   .     A
C697   C698    1.394   .     A
C697   H702    1.083   .     S
C698   H703    1.082   .     S
C698   C699    1.395   .     A
C699   C700    1.400   .     A
C699   H704    1.078   .     S
C700   C701    1.388   .     A
C700   H705    1.073   .     S
C701   H706    1.082   .     S
C707   C708    1.410   .     A
C707   C712    1.398   .     A
C708   H713    1.083   .     S
C708   C709    1.394   .     A
C709   H714    1.082   .     S
C709   C710    1.395   .     A
C710   H715    1.078   .     S
C710   C711    1.400   .     A
C711   H716    1.073   .     S
C711   C712    1.388   .     A
C712   H717    1.082   .     S
C718   C723    1.398   .     A
C718   C719    1.410   .     A
C719   C720    1.394   .     A
C719   H724    1.083   .     S
C720   H725    1.082   .     S
C720   C721    1.395   .     A
C721   C722    1.400   .     A
C721   H726    1.078   .     S
C722   H727    1.073   .     S
C722   C723    1.388   .     A
C723   H728    1.082   .     S
C729   C787    1.457   .     S
C729   O841    1.287   .     S
C730   O838    1.287   .     A
C730   C788    1.457   .     S
C731   O1207   1.287   1_455 A
C731   C785    1.457   .     S
C731   O839    1.287   .     S
C732   C786    1.457   .     S
C732   O1204   1.287   1_455 A
C732   O844    1.287   .     S
C733   C791    1.457   .     S
C733   O845    1.287   .     S
C733   O849    1.287   .     S
C734   C792    1.457   .     S
C734   O846    1.287   .     S
C734   O850    1.287   .     S
C735   O847    1.287   .     A
C735   O851    1.287   .     A
C735   C789    1.457   .     S
C736   C790    1.457   .     S
C736   O848    1.287   .     S
C736   O852    1.287   .     S
C737   O879    1.289   .     A
C737   O853    1.289   .     A
C737   C766    1.455   .     S
C738   O880    1.289   .     A
C738   C765    1.455   .     S
C738   O854    1.289   .     A
C739   O855    1.289   .     A
C739   O877    1.289   .     A
C739   C764    1.455   .     S
C740   O856    1.289   .     A
C740   C763    1.455   .     S
C740   O878    1.289   .     A
C741   O857    1.289   .     A
C741   C762    1.455   .     S
C741   O883    1.289   .     A
C742   C761    1.455   .     S
C742   O858    1.289   .     A
C742   O884    1.289   .     A
C743   O881    1.289   .     A
C743   O859    1.289   .     A
C743   C768    1.455   .     S
C744   O882    1.289   .     A
C744   O860    1.289   .     A
C744   C767    1.455   .     S
C745   C758    1.455   .     S
C745   O861    1.289   .     A
C745   O871    1.289   .     A
C746   C757    1.455   .     S
C746   O872    1.289   .     A
C746   O862    1.289   .     A
C747   O869    1.289   .     A
C747   C756    1.455   .     S
C747   O863    1.289   .     A
C748   O864    1.289   .     A
C748   C755    1.455   .     S
C748   O870    1.289   .     A
C749   C754    1.455   .     S
C749   O865    1.289   .     A
C749   O875    1.289   .     A
C750   C753    1.455   .     S
C750   O866    1.289   .     A
C750   O876    1.289   .     A
C751   C760    1.455   .     S
C751   O873    1.289   .     A
C751   O867    1.289   .     A
C752   O868    1.289   .     A
C752   C759    1.455   .     S
C752   O874    1.289   .     A
C753   C768    1.217   .     T
C754   C767    1.217   .     T
C755   C766    1.217   .     T
C756   C765    1.217   .     T
C757   C764    1.217   .     T
C758   C763    1.217   .     T
C759   C762    1.217   .     T
C760   C761    1.217   .     T
C769   C797    1.414   .     A
C769   I901    2.150   .     S
C769   C1149   1.405   .     S
C770   C1150   1.405   .     A
C770   C798    1.414   .     A
C770   I902    2.150   .     S
C771   I903    2.150   .     S
C771   C799    1.414   .     A
C771   C59     1.405   1_565 S
C772   C800    1.414   .     A
C772   I904    2.150   .     S
C772   C60     1.405   1_565 A
C773   C785    1.405   .     A
C773   C793    1.414   .     A
C773   I905    2.150   .     S
C774   C794    1.414   .     A
C774   I906    2.150   .     S
C774   C786    1.405   .     S
C775   C787    1.405   .     A
C775   I907    2.150   .     S
C775   C795    1.414   .     A
C776   I908    2.150   .     S
C776   C796    1.414   .     A
C776   C788    1.405   .     S
C777   I909    2.150   .     S
C777   C805    1.414   .     A
C777   C789    1.405   .     A
C778   I910    2.150   .     S
C778   C806    1.414   .     A
C778   C62     1.405   1_565 S
C779   I911    2.150   .     S
C779   C807    1.414   .     A
C779   C1155   1.405   .     A
C780   I912    2.150   .     S
C780   C808    1.414   .     A
C780   C792    1.405   .     S
C781   I913    2.150   .     S
C781   C801    1.414   .     A
C781   C61     1.405   1_565 S
C782   C802    1.414   .     A
C782   C790    1.405   .     A
C782   I914    2.150   .     S
C783   I915    2.150   .     S
C783   C803    1.414   .     A
C783   C791    1.405   .     S
C784   C1156   1.405   .     A
C784   C804    1.414   .     A
C784   I916    2.150   .     S
C785   C1133   1.405   1_455 S
C786   C1134   1.405   1_455 A
C791   C1143   1.405   1_455 A
C792   C1148   1.405   1_455 A
C793   C817    1.416   .     A
C793   C809    1.398   .     A
C794   C810    1.398   .     A
C794   C818    1.416   .     A
C795   C819    1.416   .     A
C795   C811    1.398   .     S
C796   C820    1.416   .     A
C796   C812    1.398   .     S
C797   C821    1.416   .     A
C797   C1173   1.398   .     S
C798   C822    1.416   .     A
C798   C1174   1.398   .     S
C799   C823    1.416   .     A
C799   C83     1.398   1_565 A
C800   C84     1.398   1_565 A
C800   C824    1.416   .     A
C801   C825    1.416   .     A
C801   C85     1.398   1_565 S
C802   C814    1.398   .     A
C802   C826    1.416   .     A
C803   C827    1.416   .     A
C803   C815    1.398   .     S
C804   C828    1.416   .     A
C804   C1180   1.398   .     A
C805   C829    1.416   .     A
C805   C813    1.398   .     A
C806   C830    1.416   .     A
C806   C86     1.398   1_565 S
C807   C1179   1.398   .     A
C807   C831    1.416   .     A
C808   C832    1.416   .     A
C808   C816    1.398   .     S
C809   C810    1.383   .     A
C809   C1161   1.398   1_455 S
C810   C1162   1.398   1_455 S
C811   C812    1.383   .     A
C813   C814    1.383   1_556 S
C814   C813    1.383   1_554 S
C815   C1171   1.398   1_455 A
C815   C816    1.383   1_556 S
C816   C1168   1.398   1_455 A
C816   C815    1.383   1_554 S
C817   C917    1.477   .     S
C817   C1186   1.427   1_455 S
C818   C928    1.477   .     S
C818   C1185   1.427   1_455 S
C819   C939    1.477   .     S
C820   C950    1.477   .     S
C821   C961    1.477   .     S
C821   C1182   1.427   .     S
C822   C972    1.477   .     S
C822   C1181   1.427   .     S
C823   C983    1.477   .     S
C823   C92     1.427   1_565 S
C824   C994    1.477   .     S
C824   C91     1.427   1_565 S
C825   C1005   1.477   .     S
C825   C830    1.427   1_556 S
C826   C1016   1.477   .     S
C826   C829    1.427   1_554 S
C827   C1027   1.477   .     S
C827   C832    1.427   1_556 S
C828   C1038   1.477   .     S
C828   C831    1.427   1_554 S
C829   C1049   1.477   .     S
C829   C826    1.427   1_556 S
C830   C1060   1.477   .     S
C830   C825    1.427   1_554 S
C831   C1071   1.477   .     S
C831   C828    1.427   1_556 S
C832   C1082   1.477   .     S
C832   C827    1.427   1_554 S
O833   Zn889   1.956   .     S
O833   Zn885   1.956   .     S
O833   Zn896   1.956   .     S
O834   Zn890   1.956   .     S
O834   Zn886   1.956   .     S
O834   Zn899   1.956   .     S
O835   Zn1262  1.956   1_455 S
O835   Zn887   1.956   .     S
O835   Zn891   1.956   .     S
O835   Zn894   1.956   .     S
O836   Zn897   1.956   .     S
O836   Zn888   1.956   .     S
O836   Zn892   1.956   .     S
O836   Zn1257  1.956   1_455 S
O837   Zn900   1.932   .     S
O837   C1      1.287   1_565 A
O838   Zn899   1.932   .     S
O839   Zn894   1.932   .     S
O840   Zn893   1.932   .     S
O840   C1096   1.287   .     A
O841   Zn896   1.932   .     S
O842   Zn895   1.932   .     S
O842   C2      1.287   1_565 S
O843   C1095   1.287   .     A
O843   Zn898   1.932   .     S
O844   Zn897   1.932   .     S
O845   Zn892   1.932   .     S
O846   Zn891   1.932   .     S
O847   Zn886   1.932   .     S
O848   Zn885   1.932   .     S
O849   Zn888   1.932   .     S
O850   Zn887   1.932   .     S
O851   Zn890   1.932   .     S
O852   Zn889   1.932   .     S
O853   Zn896   1.955   .     S
O854   Zn895   1.955   .     S
O855   Zn898   1.955   .     S
O856   Zn897   1.955   .     S
O857   Zn900   1.955   .     S
O858   Zn899   1.955   .     S
O859   Zn894   1.955   .     S
O860   Zn893   1.955   .     S
O861   Zn895   1.955   .     S
O862   Zn896   1.955   .     S
O863   Zn893   1.955   .     S
O864   Zn894   1.955   .     S
O865   Zn899   1.955   .     S
O866   Zn900   1.955   .     S
O867   Zn897   1.955   .     S
O868   Zn898   1.955   .     S
O869   Zn1252  1.955   .     S
O870   Zn887   1.955   .     S
O871   Zn162   1.955   1_565 S
O872   Zn889   1.955   .     S
O873   Zn892   1.955   .     S
O874   Zn1255  1.955   .     S
O875   Zn886   1.955   .     S
O876   Zn157   1.955   1_565 S
O877   Zn1251  1.955   .     S
O878   Zn888   1.955   .     S
O879   Zn885   1.955   .     S
O880   Zn158   1.955   1_565 S
O881   Zn891   1.955   .     S
O882   Zn1256  1.955   .     S
O883   Zn161   1.955   1_565 S
O884   Zn890   1.955   .     S
Zn887  O1241   1.955   1_455 S
Zn888  O1233   1.955   1_455 S
Zn891  O1238   1.955   1_455 S
Zn892  O1246   1.955   1_455 S
Zn893  O1200   1.956   .     S
Zn895  O106    1.956   1_565 S
Zn898  O1199   1.956   .     S
Zn900  O105    1.956   1_565 S
C917   C922    1.398   .     A
C917   C1282   1.410   1_455 S
C918   C919    1.394   .     A
C918   H923    1.083   .     S
C918   C1281   1.410   .     S
C919   H924    1.082   .     S
C919   C1284   1.395   .     S
C920   H925    1.078   .     S
C920   C921    1.400   .     A
C920   C1283   1.395   1_455 S
C921   C922    1.388   .     A
C921   H926    1.073   .     S
C922   H927    1.082   .     S
C928   C933    1.398   .     A
C928   C1293   1.410   1_455 S
C929   H934    1.083   .     S
C929   C930    1.394   .     A
C929   C1292   1.410   .     S
C930   H935    1.082   .     S
C930   C1295   1.395   .     S
C931   H936    1.078   .     S
C931   C932    1.400   .     A
C931   C1294   1.395   1_455 S
C932   C933    1.388   .     A
C932   H937    1.073   .     S
C933   H938    1.082   .     S
C939   C944    1.398   .     A
C940   C941    1.394   .     A
C940   H945    1.083   .     S
C940   C211    1.410   1_565 S
C941   H946    1.082   .     S
C941   C214    1.395   1_565 S
C942   C943    1.400   .     A
C942   H947    1.078   .     S
C943   C944    1.388   .     A
C943   H948    1.073   .     S
C944   H949    1.082   .     S
C950   C955    1.398   .     A
C951   C952    1.394   .     A
C951   H956    1.083   .     S
C951   C222    1.410   1_565 S
C952   H957    1.082   .     S
C952   C225    1.395   1_565 S
C953   H958    1.078   .     S
C953   C954    1.400   .     A
C954   C955    1.388   .     A
C954   H959    1.073   .     S
C955   H960    1.082   .     S
C961   C966    1.398   .     A
C961   C1326   1.410   .     S
C962   C963    1.394   .     A
C962   H967    1.083   .     S
C962   C1325   1.410   1_455 S
C963   H968    1.082   .     S
C963   C1328   1.395   1_455 S
C964   C965    1.400   .     A
C964   H969    1.078   .     S
C964   C1327   1.395   .     S
C965   H970    1.073   .     S
C965   C966    1.388   .     A
C966   H971    1.082   .     S
C972   C977    1.398   .     A
C972   C1337   1.410   .     S
C973   H978    1.083   .     S
C973   C974    1.394   .     A
C973   C1336   1.410   1_455 S
C974   H979    1.082   .     S
C974   C1339   1.395   1_455 S
C975   H980    1.078   .     S
C975   C976    1.400   .     A
C975   C1338   1.395   .     S
C976   H981    1.073   .     S
C976   C977    1.388   .     A
C977   H982    1.082   .     S
C983   C988    1.398   .     A
C983   C256    1.410   1_565 S
C984   C985    1.394   .     A
C984   H989    1.083   .     S
C985   H990    1.082   .     S
C986   C987    1.400   .     A
C986   H991    1.078   .     S
C986   C257    1.395   1_565 S
C987   H992    1.073   .     S
C987   C988    1.388   .     A
C988   H993    1.082   .     S
C994   C999    1.398   .     A
C994   C267    1.410   1_565 S
C995   H1000   1.083   .     S
C995   C996    1.394   .     A
C996   H1001   1.082   .     S
C997   H1002   1.078   .     S
C997   C998    1.400   .     A
C997   C268    1.395   1_565 S
C998   H1003   1.073   .     S
C998   C999    1.388   .     A
C999   H1004   1.082   .     S
C1005  C1010   1.398   .     A
C1005  C1006   1.410   .     A
C1006  H1011   1.083   .     S
C1006  C1007   1.394   .     A
C1007  C1008   1.395   .     A
C1007  H1012   1.082   .     S
C1008  C1009   1.400   .     A
C1008  H1013   1.078   .     S
C1009  H1014   1.073   .     S
C1009  C1010   1.388   .     A
C1010  H1015   1.082   .     S
C1016  C1021   1.398   .     A
C1016  C1017   1.410   .     A
C1017  C1018   1.394   .     A
C1017  H1022   1.083   .     S
C1018  C1019   1.395   .     A
C1018  H1023   1.082   .     S
C1019  C1020   1.400   .     A
C1019  H1024   1.078   .     S
C1020  H1025   1.073   .     S
C1020  C1021   1.388   .     A
C1021  H1026   1.082   .     S
C1027  C1028   1.410   .     A
C1027  C1032   1.398   .     A
C1028  C1029   1.394   .     A
C1028  H1033   1.083   .     S
C1029  C1030   1.395   .     A
C1029  H1034   1.082   .     S
C1030  H1035   1.078   .     S
C1030  C1031   1.400   .     A
C1031  H1036   1.073   .     S
C1031  C1032   1.388   .     A
C1032  H1037   1.082   .     S
C1038  C1043   1.398   .     A
C1038  C1039   1.410   .     A
C1039  C1040   1.394   .     A
C1039  H1044   1.083   .     S
C1040  C1041   1.395   .     A
C1040  H1045   1.082   .     S
C1041  H1046   1.078   .     S
C1041  C1042   1.400   .     A
C1042  C1043   1.388   .     A
C1042  H1047   1.073   .     S
C1043  H1048   1.082   .     S
C1049  C1050   1.410   .     A
C1049  C1054   1.398   .     A
C1050  H1055   1.083   .     S
C1050  C1051   1.394   .     A
C1051  C1052   1.395   .     A
C1051  H1056   1.082   .     S
C1052  C1053   1.400   .     A
C1052  H1057   1.078   .     S
C1053  C1054   1.388   .     A
C1053  H1058   1.073   .     S
C1054  H1059   1.082   .     S
C1060  C1061   1.410   .     A
C1060  C1065   1.398   .     A
C1061  C1062   1.394   .     A
C1061  H1066   1.083   .     S
C1062  H1067   1.082   .     S
C1062  C1063   1.395   .     A
C1063  C1064   1.400   .     A
C1063  H1068   1.078   .     S
C1064  C1065   1.388   .     A
C1064  H1069   1.073   .     S
C1065  H1070   1.082   .     S
C1071  C1072   1.410   .     A
C1071  C1076   1.398   .     A
C1072  H1077   1.083   .     S
C1072  C1073   1.394   .     A
C1073  H1078   1.082   .     S
C1073  C1074   1.395   .     A
C1074  H1079   1.078   .     S
C1074  C1075   1.400   .     A
C1075  H1080   1.073   .     S
C1075  C1076   1.388   .     A
C1076  H1081   1.082   .     S
C1082  C1087   1.398   .     A
C1082  C1083   1.410   .     A
C1083  C1084   1.394   .     A
C1083  H1088   1.083   .     S
C1084  H1089   1.082   .     S
C1084  C1085   1.395   .     A
C1085  C1086   1.400   .     A
C1085  H1090   1.078   .     S
C1086  H1091   1.073   .     S
C1086  C1087   1.388   .     A
C1087  H1092   1.082   .     S
C1093  C1151   1.457   .     S
C1093  O1205   1.287   .     S
C1094  O1202   1.287   .     A
C1094  C1152   1.457   .     S
C1095  C1149   1.457   .     S
C1095  O1203   1.287   .     S
C1096  C1150   1.457   .     S
C1096  O1208   1.287   .     S
C1097  C1155   1.457   .     S
C1097  O1209   1.287   .     S
C1097  O1213   1.287   .     S
C1098  C1156   1.457   .     S
C1098  O1210   1.287   .     S
C1098  O1214   1.287   .     S
C1099  O1211   1.287   .     A
C1099  O1215   1.287   .     A
C1099  C1153   1.457   .     S
C1100  C1154   1.457   .     S
C1100  O1212   1.287   .     S
C1100  O1216   1.287   .     S
C1101  O1243   1.289   .     A
C1101  O1217   1.289   .     A
C1101  C1130   1.455   .     S
C1102  O1244   1.289   .     A
C1102  C1129   1.455   .     S
C1102  O1218   1.289   .     A
C1103  O1219   1.289   .     A
C1103  O1241   1.289   .     A
C1103  C1128   1.455   .     S
C1104  O1220   1.289   .     A
C1104  C1127   1.455   .     S
C1104  O1242   1.289   .     A
C1105  O1221   1.289   .     A
C1105  C1126   1.455   .     S
C1105  O1247   1.289   .     A
C1106  C1125   1.455   .     S
C1106  O1222   1.289   .     A
C1106  O1248   1.289   .     A
C1107  O1245   1.289   .     A
C1107  O1223   1.289   .     A
C1107  C1132   1.455   .     S
C1108  O1246   1.289   .     A
C1108  O1224   1.289   .     A
C1108  C1131   1.455   .     S
C1109  C1122   1.455   .     S
C1109  O1225   1.289   .     A
C1109  O1235   1.289   .     A
C1110  C1121   1.455   .     S
C1110  O1236   1.289   .     A
C1110  O1226   1.289   .     A
C1111  O1233   1.289   .     A
C1111  C1120   1.455   .     S
C1111  O1227   1.289   .     A
C1112  O1228   1.289   .     A
C1112  C1119   1.455   .     S
C1112  O1234   1.289   .     A
C1113  C1118   1.455   .     S
C1113  O1229   1.289   .     A
C1113  O1239   1.289   .     A
C1114  C1117   1.455   .     S
C1114  O1230   1.289   .     A
C1114  O1240   1.289   .     A
C1115  C1124   1.455   .     S
C1115  O1237   1.289   .     A
C1115  O1231   1.289   .     A
C1116  O1232   1.289   .     A
C1116  C1123   1.455   .     S
C1116  O1238   1.289   .     A
C1117  C1132   1.217   .     T
C1118  C1131   1.217   .     T
C1119  C1130   1.217   .     T
C1120  C1129   1.217   .     T
C1121  C1128   1.217   .     T
C1122  C1127   1.217   .     T
C1123  C1126   1.217   .     T
C1124  C1125   1.217   .     T
C1133  C1161   1.414   .     A
C1133  I1265   2.150   .     S
C1133  C785    1.405   1_655 S
C1134  C786    1.405   1_655 A
C1134  C1162   1.414   .     A
C1134  I1266   2.150   .     S
C1135  I1267   2.150   .     S
C1135  C1163   1.414   .     A
C1135  C423    1.405   1_565 S
C1136  C1164   1.414   .     A
C1136  I1268   2.150   .     S
C1136  C424    1.405   1_565 A
C1137  C1149   1.405   .     A
C1137  C1157   1.414   .     A
C1137  I1269   2.150   .     S
C1138  C1158   1.414   .     A
C1138  I1270   2.150   .     S
C1138  C1150   1.405   .     S
C1139  C1151   1.405   .     A
C1139  I1271   2.150   .     S
C1139  C1159   1.414   .     A
C1140  I1272   2.150   .     S
C1140  C1160   1.414   .     A
C1140  C1152   1.405   .     S
C1141  I1273   2.150   .     S
C1141  C1169   1.414   .     A
C1141  C1153   1.405   .     A
C1142  I1274   2.150   .     S
C1142  C1170   1.414   .     A
C1142  C426    1.405   1_565 S
C1143  I1275   2.150   .     S
C1143  C1171   1.414   .     A
C1143  C791    1.405   1_655 A
C1144  I1276   2.150   .     S
C1144  C1172   1.414   .     A
C1144  C1156   1.405   .     S
C1145  I1277   2.150   .     S
C1145  C1165   1.414   .     A
C1145  C425    1.405   1_565 S
C1146  C1166   1.414   .     A
C1146  C1154   1.405   .     A
C1146  I1278   2.150   .     S
C1147  I1279   2.150   .     S
C1147  C1167   1.414   .     A
C1147  C1155   1.405   .     S
C1148  C792    1.405   1_655 A
C1148  C1168   1.414   .     A
C1148  I1280   2.150   .     S
C1157  C1181   1.416   .     A
C1157  C1173   1.398   .     A
C1158  C1174   1.398   .     A
C1158  C1182   1.416   .     A
C1159  C1183   1.416   .     A
C1159  C1175   1.398   .     S
C1160  C1184   1.416   .     A
C1160  C1176   1.398   .     S
C1161  C1185   1.416   .     A
C1161  C809    1.398   1_655 S
C1162  C1186   1.416   .     A
C1162  C810    1.398   1_655 S
C1163  C1187   1.416   .     A
C1163  C447    1.398   1_565 A
C1164  C448    1.398   1_565 A
C1164  C1188   1.416   .     A
C1165  C1189   1.416   .     A
C1165  C449    1.398   1_565 S
C1166  C1178   1.398   .     A
C1166  C1190   1.416   .     A
C1167  C1191   1.416   .     A
C1167  C1179   1.398   .     S
C1168  C1192   1.416   .     A
C1168  C816    1.398   1_655 A
C1169  C1193   1.416   .     A
C1169  C1177   1.398   .     A
C1170  C1194   1.416   .     A
C1170  C450    1.398   1_565 S
C1171  C815    1.398   1_655 A
C1171  C1195   1.416   .     A
C1172  C1196   1.416   .     A
C1172  C1180   1.398   .     S
C1173  C1174   1.383   .     A
C1175  C1176   1.383   .     A
C1177  C1178   1.383   1_556 S
C1178  C1177   1.383   1_554 S
C1179  C1180   1.383   1_556 S
C1180  C1179   1.383   1_554 S
C1181  C1281   1.477   .     S
C1182  C1292   1.477   .     S
C1183  C1303   1.477   .     S
C1184  C1314   1.477   .     S
C1185  C1325   1.477   .     S
C1185  C818    1.427   1_655 S
C1186  C1336   1.477   .     S
C1186  C817    1.427   1_655 S
C1187  C1347   1.477   .     S
C1187  C456    1.427   1_565 S
C1188  C1358   1.477   .     S
C1188  C455    1.427   1_565 S
C1189  C1369   1.477   .     S
C1189  C1194   1.427   1_556 S
C1190  C1380   1.477   .     S
C1190  C1193   1.427   1_554 S
C1191  C1391   1.477   .     S
C1191  C1196   1.427   1_556 S
C1192  C1402   1.477   .     S
C1192  C1195   1.427   1_554 S
C1193  C1413   1.477   .     S
C1193  C1190   1.427   1_556 S
C1194  C1424   1.477   .     S
C1194  C1189   1.427   1_554 S
C1195  C1435   1.477   .     S
C1195  C1192   1.427   1_556 S
C1196  C1446   1.477   .     S
C1196  C1191   1.427   1_554 S
O1197  Zn1253  1.956   .     S
O1197  Zn1249  1.956   .     S
O1197  Zn1260  1.956   .     S
O1198  Zn1254  1.956   .     S
O1198  Zn1250  1.956   .     S
O1198  Zn1263  1.956   .     S
O1199  Zn1251  1.956   .     S
O1199  Zn1255  1.956   .     S
O1199  Zn1258  1.956   .     S
O1200  Zn1261  1.956   .     S
O1200  Zn1252  1.956   .     S
O1200  Zn1256  1.956   .     S
O1201  Zn1264  1.932   .     S
O1201  C365    1.287   1_565 A
O1202  Zn1263  1.932   .     S
O1203  Zn1258  1.932   .     S
O1204  Zn1257  1.932   .     S
O1204  C732    1.287   1_655 A
O1205  Zn1260  1.932   .     S
O1206  Zn1259  1.932   .     S
O1206  C366    1.287   1_565 S
O1207  C731    1.287   1_655 A
O1207  Zn1262  1.932   .     S
O1208  Zn1261  1.932   .     S
O1209  Zn1256  1.932   .     S
O1210  Zn1255  1.932   .     S
O1211  Zn1250  1.932   .     S
O1212  Zn1249  1.932   .     S
O1213  Zn1252  1.932   .     S
O1214  Zn1251  1.932   .     S
O1215  Zn1254  1.932   .     S
O1216  Zn1253  1.932   .     S
O1217  Zn1260  1.955   .     S
O1218  Zn1259  1.955   .     S
O1219  Zn1262  1.955   .     S
O1220  Zn1261  1.955   .     S
O1221  Zn1264  1.955   .     S
O1222  Zn1263  1.955   .     S
O1223  Zn1258  1.955   .     S
O1224  Zn1257  1.955   .     S
O1225  Zn1259  1.955   .     S
O1226  Zn1260  1.955   .     S
O1227  Zn1257  1.955   .     S
O1228  Zn1258  1.955   .     S
O1229  Zn1263  1.955   .     S
O1230  Zn1264  1.955   .     S
O1231  Zn1261  1.955   .     S
O1232  Zn1262  1.955   .     S
O1233  Zn888   1.955   1_655 S
O1234  Zn1251  1.955   .     S
O1235  Zn526   1.955   1_565 S
O1236  Zn1253  1.955   .     S
O1237  Zn1256  1.955   .     S
O1238  Zn891   1.955   1_655 S
O1239  Zn1250  1.955   .     S
O1240  Zn521   1.955   1_565 S
O1241  Zn887   1.955   1_655 S
O1242  Zn1252  1.955   .     S
O1243  Zn1249  1.955   .     S
O1244  Zn522   1.955   1_565 S
O1245  Zn1255  1.955   .     S
O1246  Zn892   1.955   1_655 S
O1247  Zn525   1.955   1_565 S
O1248  Zn1254  1.955   .     S
Zn1257 O836    1.956   1_655 S
Zn1259 O470    1.956   1_565 S
Zn1262 O835    1.956   1_655 S
Zn1264 O469    1.956   1_565 S
C1281  C1286   1.398   .     A
C1282  C1283   1.394   .     A
C1282  H1287   1.083   .     S
C1282  C917    1.410   1_655 S
C1283  H1288   1.082   .     S
C1283  C920    1.395   1_655 S
C1284  H1289   1.078   .     S
C1284  C1285   1.400   .     A
C1285  C1286   1.388   .     A
C1285  H1290   1.073   .     S
C1286  H1291   1.082   .     S
C1292  C1297   1.398   .     A
C1293  H1298   1.083   .     S
C1293  C1294   1.394   .     A
C1293  C928    1.410   1_655 S
C1294  H1299   1.082   .     S
C1294  C931    1.395   1_655 S
C1295  H1300   1.078   .     S
C1295  C1296   1.400   .     A
C1296  C1297   1.388   .     A
C1296  H1301   1.073   .     S
C1297  H1302   1.082   .     S
C1303  C1308   1.398   .     A
C1304  C1305   1.394   .     A
C1304  H1309   1.083   .     S
C1304  C575    1.410   1_565 S
C1305  H1310   1.082   .     S
C1305  C578    1.395   1_565 S
C1306  C1307   1.400   .     A
C1306  H1311   1.078   .     S
C1307  C1308   1.388   .     A
C1307  H1312   1.073   .     S
C1308  H1313   1.082   .     S
C1314  C1319   1.398   .     A
C1315  C1316   1.394   .     A
C1315  H1320   1.083   .     S
C1315  C586    1.410   1_565 S
C1316  H1321   1.082   .     S
C1316  C589    1.395   1_565 S
C1317  H1322   1.078   .     S
C1317  C1318   1.400   .     A
C1318  C1319   1.388   .     A
C1318  H1323   1.073   .     S
C1319  H1324   1.082   .     S
C1325  C1330   1.398   .     A
C1325  C962    1.410   1_655 S
C1326  C1327   1.394   .     A
C1326  H1331   1.083   .     S
C1327  H1332   1.082   .     S
C1328  C1329   1.400   .     A
C1328  H1333   1.078   .     S
C1328  C963    1.395   1_655 S
C1329  H1334   1.073   .     S
C1329  C1330   1.388   .     A
C1330  H1335   1.082   .     S
C1336  C1341   1.398   .     A
C1336  C973    1.410   1_655 S
C1337  H1342   1.083   .     S
C1337  C1338   1.394   .     A
C1338  H1343   1.082   .     S
C1339  H1344   1.078   .     S
C1339  C1340   1.400   .     A
C1339  C974    1.395   1_655 S
C1340  H1345   1.073   .     S
C1340  C1341   1.388   .     A
C1341  H1346   1.082   .     S
C1347  C1352   1.398   .     A
C1347  C620    1.410   1_565 S
C1348  C1349   1.394   .     A
C1348  H1353   1.083   .     S
C1349  H1354   1.082   .     S
C1350  C1351   1.400   .     A
C1350  H1355   1.078   .     S
C1350  C621    1.395   1_565 S
C1351  H1356   1.073   .     S
C1351  C1352   1.388   .     A
C1352  H1357   1.082   .     S
C1358  C1363   1.398   .     A
C1358  C631    1.410   1_565 S
C1359  H1364   1.083   .     S
C1359  C1360   1.394   .     A
C1360  H1365   1.082   .     S
C1361  H1366   1.078   .     S
C1361  C1362   1.400   .     A
C1361  C632    1.395   1_565 S
C1362  H1367   1.073   .     S
C1362  C1363   1.388   .     A
C1363  H1368   1.082   .     S
C1369  C1374   1.398   .     A
C1369  C1370   1.410   .     A
C1370  H1375   1.083   .     S
C1370  C1371   1.394   .     A
C1371  C1372   1.395   .     A
C1371  H1376   1.082   .     S
C1372  C1373   1.400   .     A
C1372  H1377   1.078   .     S
C1373  H1378   1.073   .     S
C1373  C1374   1.388   .     A
C1374  H1379   1.082   .     S
C1380  C1385   1.398   .     A
C1380  C1381   1.410   .     A
C1381  C1382   1.394   .     A
C1381  H1386   1.083   .     S
C1382  C1383   1.395   .     A
C1382  H1387   1.082   .     S
C1383  C1384   1.400   .     A
C1383  H1388   1.078   .     S
C1384  H1389   1.073   .     S
C1384  C1385   1.388   .     A
C1385  H1390   1.082   .     S
C1391  C1392   1.410   .     A
C1391  C1396   1.398   .     A
C1392  C1393   1.394   .     A
C1392  H1397   1.083   .     S
C1393  C1394   1.395   .     A
C1393  H1398   1.082   .     S
C1394  H1399   1.078   .     S
C1394  C1395   1.400   .     A
C1395  H1400   1.073   .     S
C1395  C1396   1.388   .     A
C1396  H1401   1.082   .     S
C1402  C1407   1.398   .     A
C1402  C1403   1.410   .     A
C1403  C1404   1.394   .     A
C1403  H1408   1.083   .     S
C1404  C1405   1.395   .     A
C1404  H1409   1.082   .     S
C1405  H1410   1.078   .     S
C1405  C1406   1.400   .     A
C1406  C1407   1.388   .     A
C1406  H1411   1.073   .     S
C1407  H1412   1.082   .     S
C1413  C1414   1.410   .     A
C1413  C1418   1.398   .     A
C1414  H1419   1.083   .     S
C1414  C1415   1.394   .     A
C1415  C1416   1.395   .     A
C1415  H1420   1.082   .     S
C1416  C1417   1.400   .     A
C1416  H1421   1.078   .     S
C1417  C1418   1.388   .     A
C1417  H1422   1.073   .     S
C1418  H1423   1.082   .     S
C1424  C1425   1.410   .     A
C1424  C1429   1.398   .     A
C1425  C1426   1.394   .     A
C1425  H1430   1.083   .     S
C1426  H1431   1.082   .     S
C1426  C1427   1.395   .     A
C1427  C1428   1.400   .     A
C1427  H1432   1.078   .     S
C1428  C1429   1.388   .     A
C1428  H1433   1.073   .     S
C1429  H1434   1.082   .     S
C1435  C1436   1.410   .     A
C1435  C1440   1.398   .     A
C1436  H1441   1.083   .     S
C1436  C1437   1.394   .     A
C1437  H1442   1.082   .     S
C1437  C1438   1.395   .     A
C1438  H1443   1.078   .     S
C1438  C1439   1.400   .     A
C1439  H1444   1.073   .     S
C1439  C1440   1.388   .     A
C1440  H1445   1.082   .     S
C1446  C1451   1.398   .     A
C1446  C1447   1.410   .     A
C1447  C1448   1.394   .     A
C1447  H1452   1.083   .     S
C1448  H1453   1.082   .     S
C1448  C1449   1.395   .     A
C1449  C1450   1.400   .     A
C1449  H1454   1.078   .     S
C1450  H1455   1.073   .     S
C1450  C1451   1.388   .     A
C1451  H1456   1.082   .     S
