data_str_m1_o10_o18_pcu_sym.83
_audit_creation_date              2020-01-03
_audit_creation_method            'Materials Studio'
_symmetry_space_group_name_H-M    'P1'
_symmetry_Int_Tables_number       1
_symmetry_cell_setting            triclinic
loop_
_symmetry_equiv_pos_as_xyz
  x,y,z
_cell_length_a                    32.5977
_cell_length_b                    32.8666
_cell_length_c                    35.2865
_cell_angle_alpha                 98.5336
_cell_angle_beta                  73.4573
_cell_angle_gamma                 98.3362
loop_
_atom_site_label
_atom_site_type_symbol
_atom_site_fract_x
_atom_site_fract_y
_atom_site_fract_z
_atom_site_U_iso_or_equiv
_atom_site_adp_type
_atom_site_occupancy
Zn1    Zn    0.19244   0.14090   0.28277   0.00000  Uiso   1.00
Zn2    Zn    0.13459   0.12378   0.22257   0.00000  Uiso   1.00
Zn3    Zn    0.21166   0.19664   0.21188   0.00000  Uiso   1.00
Zn4    Zn    0.12798   0.20535   0.28277   0.00000  Uiso   1.00
O5     O     0.16667   0.16667   0.25000   0.00000  Uiso   1.00
O6     O     0.06990   0.18960   0.27820   0.00000  Uiso   1.00
O7     O     0.25440   0.15277   0.26767   0.00000  Uiso   1.00
O8     O     0.13800   0.06903   0.23607   0.00000  Uiso   1.00
O9     O     0.20437   0.25527   0.21805   0.00000  Uiso   1.00
O10    O     0.15693   0.12393   0.16625   0.00000  Uiso   1.00
O11    O     0.12687   0.20646   0.33749   0.00000  Uiso   1.00
O12    O     0.21088   0.17493   0.15877   0.00000  Uiso   1.00
O13    O     0.17198   0.16135   0.33749   0.00000  Uiso   1.00
O14    O     0.17849   0.08101   0.27820   0.00000  Uiso   1.00
O15    O     0.14581   0.26136   0.26767   0.00000  Uiso   1.00
O16    O     0.07452   0.13251   0.23607   0.00000  Uiso   1.00
O17    O     0.26785   0.19179   0.21805   0.00000  Uiso   1.00
C18    C     0.05248   0.15978   0.25883   0.00000  Uiso   1.00
C19    C     0.28097   0.17351   0.24135   0.00000  Uiso   1.00
C20    C     0.15630   0.05626   0.25892   0.00000  Uiso   1.00
C21    C     0.17561   0.27719   0.24001   0.00000  Uiso   1.00
C22    C     0.18798   0.14496   0.14390   0.00000  Uiso   1.00
C23    C     0.14632   0.18876   0.35647   0.00000  Uiso   1.00
C24    C     0.13678   0.19788   0.40059   0.00000  Uiso   1.00
C25    C     0.19542   0.13412   0.10106   0.00000  Uiso   1.00
C26    C     0.09698   0.23139   0.46481   0.00000  Uiso   1.00
C27    C     0.10956   0.22810   0.42270   0.00000  Uiso   1.00
C28    C     0.15441   0.17486   0.42106   0.00000  Uiso   1.00
C29    C     0.13814   0.17368   0.46220   0.00000  Uiso   1.00
C30    C     0.10774   0.20101   0.48403   0.00000  Uiso   1.00
C31    C     0.15187   0.14637   0.48263   0.00000  Uiso   1.00
C32    C     0.14654   0.15704   0.02408   0.00000  Uiso   1.00
C33    C     0.11155   0.17981   0.04574   0.00000  Uiso   1.00
C34    C     0.08827   0.19599   0.02442   0.00000  Uiso   1.00
C35    C     0.16710   0.10745   0.46492   0.00000  Uiso   1.00
C36    C     0.18788   0.08734   0.48547   0.00000  Uiso   1.00
C37    C     0.19109   0.10335   0.02362   0.00000  Uiso   1.00
C38    C     0.17182   0.13950   0.04271   0.00000  Uiso   1.00
C39    C     0.21008   0.08168   0.04438   0.00000  Uiso   1.00
C40    C     0.21045   0.09612   0.08353   0.00000  Uiso   1.00
C41    C     0.17781   0.15645   0.08009   0.00000  Uiso   1.00
H42    H     0.16680   0.18594   0.09413   0.00000  Uiso   1.00
H43    H     0.22261   0.07777   0.10017   0.00000  Uiso   1.00
H44    H     0.19987   0.05788   0.47247   0.00000  Uiso   1.00
H45    H     0.18113   0.15803   0.40460   0.00000  Uiso   1.00
H46    H     0.22307   0.05279   0.03095   0.00000  Uiso   1.00
C47    C     0.32677   0.17632   0.23809   0.00000  Uiso   1.00
H48    H     0.01615   0.19406   0.21586   0.00000  Uiso   1.00
C49    C     0.00717   0.15717   0.26221   0.00000  Uiso   1.00
H50    H     0.31850   0.13907   0.28449   0.00000  Uiso   1.00
C51    C     0.17496   0.32008   0.23254   0.00000  Uiso   1.00
C52    C     0.15396   0.01291   0.26296   0.00000  Uiso   1.00
C53    C     0.03938   0.19182   0.03933   0.00000  Uiso   1.00
C54    C     0.02189   0.14586   0.03616   0.00000  Uiso   1.00
C55    C     0.30638   0.14007   0.04920   0.00000  Uiso   1.00
H56    H     0.29436   0.15326   0.08070   0.00000  Uiso   1.00
H57    H     0.29280   0.15509   0.02994   0.00000  Uiso   1.00
H58    H     0.29578   0.10641   0.04645   0.00000  Uiso   1.00
H59    H     0.03291   0.13177   0.00479   0.00000  Uiso   1.00
H60    H     0.03405   0.12891   0.05497   0.00000  Uiso   1.00
H61    H     0.02874   0.20650   0.07043   0.00000  Uiso   1.00
H62    H     0.02471   0.20686   0.02102   0.00000  Uiso   1.00
C63    C     0.19541   0.00182   0.19134   0.00000  Uiso   1.00
C64    C     0.21511   0.30300   0.15709   0.00000  Uiso   1.00
C65    C     0.22872   0.32094   0.11728   0.00000  Uiso   1.00
H66    H     0.20039   0.33013   0.11037   0.00000  Uiso   1.00
H67    H     0.25293   0.01501   0.11807   0.00000  Uiso   1.00
H68    H     0.24327   0.29724   0.09323   0.00000  Uiso   1.00
H69    H     0.24424   0.29338   0.16217   0.00000  Uiso   1.00
H70    H     0.19117   0.27555   0.15509   0.00000  Uiso   1.00
H71    H     0.16995   0.01409   0.18240   0.00000  Uiso   1.00
H72    H     0.22080   0.02776   0.19404   0.00000  Uiso   1.00
N73    N     0.13838   0.00193   0.30277   0.00000  Uiso   1.00
O74    O     0.09716   0.33041   0.31936   0.00000  Uiso   1.00
O75    O     0.16526   0.00289   0.32405   0.00000  Uiso   1.00
C76    C     0.07660   0.26954   0.48892   0.00000  Uiso   1.00
C77    C     0.10855   0.30888   0.48502   0.00000  Uiso   1.00
C78    C     0.09114   0.01029   0.01696   0.00000  Uiso   1.00
H79    H     0.05942   0.01680   0.01480   0.00000  Uiso   1.00
H80    H     0.08745   0.00157   0.04708   0.00000  Uiso   1.00
H81    H     0.11379   0.03884   0.01312   0.00000  Uiso   1.00
H82    H     0.13977   0.30251   0.48856   0.00000  Uiso   1.00
H83    H     0.11438   0.31936   0.45530   0.00000  Uiso   1.00
H84    H     0.04762   0.27385   0.48003   0.00000  Uiso   1.00
H85    H     0.06565   0.26619   0.02109   0.00000  Uiso   1.00
N86    N     0.09673   0.25696   0.40274   0.00000  Uiso   1.00
O87    O     0.12578   0.28142   0.38078   0.00000  Uiso   1.00
O88    O     0.05620   0.25856   0.40603   0.00000  Uiso   1.00
N89    N     0.09348   0.17867   0.08787   0.00000  Uiso   1.00
O90    O     0.08432   0.14357   0.10293   0.00000  Uiso   1.00
O91    O     0.08324   0.21253   0.11085   0.00000  Uiso   1.00
C92    C     0.15345   0.08199   0.42972   0.00000  Uiso   1.00
C93    C     0.10440   0.07854   0.43563   0.00000  Uiso   1.00
C94    C     0.09114   0.05187   0.40110   0.00000  Uiso   1.00
H95    H     0.10732   0.06547   0.37288   0.00000  Uiso   1.00
H96    H     0.09978   0.02006   0.39875   0.00000  Uiso   1.00
H97    H     0.05576   0.05031   0.40616   0.00000  Uiso   1.00
H98    H     0.08732   0.06496   0.46359   0.00000  Uiso   1.00
H99    H     0.09321   0.10924   0.43787   0.00000  Uiso   1.00
H100   H     0.17109   0.09367   0.40109   0.00000  Uiso   1.00
H101   H     0.16232   0.04994   0.42622   0.00000  Uiso   1.00
Zn102  Zn    0.52577   0.14090   0.28277   0.00000  Uiso   1.00
Zn103  Zn    0.46792   0.12378   0.22257   0.00000  Uiso   1.00
Zn104  Zn    0.54500   0.19664   0.21188   0.00000  Uiso   1.00
Zn105  Zn    0.46131   0.20535   0.28277   0.00000  Uiso   1.00
O106   O     0.50000   0.16667   0.25000   0.00000  Uiso   1.00
O107   O     0.40323   0.18960   0.27820   0.00000  Uiso   1.00
O108   O     0.58773   0.15277   0.26767   0.00000  Uiso   1.00
O109   O     0.47133   0.06903   0.23607   0.00000  Uiso   1.00
O110   O     0.53771   0.25527   0.21805   0.00000  Uiso   1.00
O111   O     0.49027   0.12393   0.16625   0.00000  Uiso   1.00
O112   O     0.46020   0.20646   0.33749   0.00000  Uiso   1.00
O113   O     0.54421   0.17493   0.15877   0.00000  Uiso   1.00
O114   O     0.50532   0.16135   0.33749   0.00000  Uiso   1.00
O115   O     0.51182   0.08101   0.27820   0.00000  Uiso   1.00
O116   O     0.47914   0.26136   0.26767   0.00000  Uiso   1.00
O117   O     0.40785   0.13251   0.23607   0.00000  Uiso   1.00
O118   O     0.60119   0.19179   0.21805   0.00000  Uiso   1.00
C119   C     0.38581   0.15978   0.25883   0.00000  Uiso   1.00
C120   C     0.61430   0.17351   0.24135   0.00000  Uiso   1.00
C121   C     0.48963   0.05626   0.25892   0.00000  Uiso   1.00
C122   C     0.50894   0.27719   0.24001   0.00000  Uiso   1.00
C123   C     0.52131   0.14496   0.14390   0.00000  Uiso   1.00
C124   C     0.47965   0.18876   0.35647   0.00000  Uiso   1.00
C125   C     0.47011   0.19788   0.40059   0.00000  Uiso   1.00
C126   C     0.52876   0.13412   0.10106   0.00000  Uiso   1.00
C127   C     0.43031   0.23139   0.46481   0.00000  Uiso   1.00
C128   C     0.44290   0.22810   0.42270   0.00000  Uiso   1.00
C129   C     0.48774   0.17486   0.42106   0.00000  Uiso   1.00
C130   C     0.47148   0.17368   0.46220   0.00000  Uiso   1.00
C131   C     0.44107   0.20101   0.48403   0.00000  Uiso   1.00
C132   C     0.48521   0.14637   0.48263   0.00000  Uiso   1.00
C133   C     0.47988   0.15704   0.02408   0.00000  Uiso   1.00
C134   C     0.44488   0.17981   0.04574   0.00000  Uiso   1.00
C135   C     0.42160   0.19599   0.02442   0.00000  Uiso   1.00
C136   C     0.50043   0.10745   0.46492   0.00000  Uiso   1.00
C137   C     0.52121   0.08734   0.48547   0.00000  Uiso   1.00
C138   C     0.52442   0.10335   0.02362   0.00000  Uiso   1.00
C139   C     0.50515   0.13950   0.04271   0.00000  Uiso   1.00
C140   C     0.54341   0.08168   0.04438   0.00000  Uiso   1.00
C141   C     0.54378   0.09612   0.08353   0.00000  Uiso   1.00
C142   C     0.51114   0.15645   0.08009   0.00000  Uiso   1.00
H143   H     0.50013   0.18594   0.09413   0.00000  Uiso   1.00
H144   H     0.55595   0.07777   0.10017   0.00000  Uiso   1.00
H145   H     0.53321   0.05788   0.47247   0.00000  Uiso   1.00
H146   H     0.51447   0.15803   0.40460   0.00000  Uiso   1.00
H147   H     0.55640   0.05279   0.03095   0.00000  Uiso   1.00
C148   C     0.66010   0.17632   0.23809   0.00000  Uiso   1.00
H149   H     0.34948   0.19406   0.21586   0.00000  Uiso   1.00
C150   C     0.34050   0.15717   0.26221   0.00000  Uiso   1.00
H151   H     0.65184   0.13907   0.28449   0.00000  Uiso   1.00
C152   C     0.50829   0.32008   0.23254   0.00000  Uiso   1.00
C153   C     0.48729   0.01291   0.26296   0.00000  Uiso   1.00
C154   C     0.37271   0.19182   0.03933   0.00000  Uiso   1.00
C155   C     0.35522   0.14586   0.03616   0.00000  Uiso   1.00
C156   C     0.63971   0.14007   0.04920   0.00000  Uiso   1.00
H157   H     0.62770   0.15326   0.08070   0.00000  Uiso   1.00
H158   H     0.62614   0.15509   0.02994   0.00000  Uiso   1.00
H159   H     0.62912   0.10641   0.04645   0.00000  Uiso   1.00
H160   H     0.36624   0.13177   0.00479   0.00000  Uiso   1.00
H161   H     0.36738   0.12891   0.05497   0.00000  Uiso   1.00
H162   H     0.36208   0.20650   0.07043   0.00000  Uiso   1.00
H163   H     0.35804   0.20686   0.02102   0.00000  Uiso   1.00
C164   C     0.52875   0.00182   0.19134   0.00000  Uiso   1.00
C165   C     0.54844   0.30300   0.15709   0.00000  Uiso   1.00
C166   C     0.56205   0.32094   0.11728   0.00000  Uiso   1.00
H167   H     0.53372   0.33013   0.11037   0.00000  Uiso   1.00
H168   H     0.58626   0.01501   0.11807   0.00000  Uiso   1.00
H169   H     0.57661   0.29724   0.09323   0.00000  Uiso   1.00
H170   H     0.57757   0.29338   0.16217   0.00000  Uiso   1.00
H171   H     0.52450   0.27555   0.15509   0.00000  Uiso   1.00
H172   H     0.50328   0.01409   0.18240   0.00000  Uiso   1.00
H173   H     0.55413   0.02776   0.19404   0.00000  Uiso   1.00
N174   N     0.47171   0.00193   0.30277   0.00000  Uiso   1.00
O175   O     0.43049   0.33041   0.31936   0.00000  Uiso   1.00
O176   O     0.49860   0.00289   0.32405   0.00000  Uiso   1.00
C177   C     0.40993   0.26954   0.48892   0.00000  Uiso   1.00
C178   C     0.44188   0.30888   0.48502   0.00000  Uiso   1.00
C179   C     0.42447   0.01029   0.01696   0.00000  Uiso   1.00
H180   H     0.39276   0.01680   0.01480   0.00000  Uiso   1.00
H181   H     0.42079   0.00157   0.04708   0.00000  Uiso   1.00
H182   H     0.44713   0.03884   0.01312   0.00000  Uiso   1.00
H183   H     0.47310   0.30251   0.48856   0.00000  Uiso   1.00
H184   H     0.44772   0.31936   0.45530   0.00000  Uiso   1.00
H185   H     0.38095   0.27385   0.48003   0.00000  Uiso   1.00
H186   H     0.39899   0.26619   0.02109   0.00000  Uiso   1.00
N187   N     0.43006   0.25696   0.40274   0.00000  Uiso   1.00
O188   O     0.45912   0.28142   0.38078   0.00000  Uiso   1.00
O189   O     0.38953   0.25856   0.40603   0.00000  Uiso   1.00
N190   N     0.42681   0.17867   0.08787   0.00000  Uiso   1.00
O191   O     0.41765   0.14357   0.10293   0.00000  Uiso   1.00
O192   O     0.41658   0.21253   0.11085   0.00000  Uiso   1.00
C193   C     0.48679   0.08199   0.42972   0.00000  Uiso   1.00
C194   C     0.43773   0.07854   0.43563   0.00000  Uiso   1.00
C195   C     0.42447   0.05187   0.40110   0.00000  Uiso   1.00
H196   H     0.44065   0.06547   0.37288   0.00000  Uiso   1.00
H197   H     0.43311   0.02006   0.39875   0.00000  Uiso   1.00
H198   H     0.38909   0.05031   0.40616   0.00000  Uiso   1.00
H199   H     0.42065   0.06496   0.46359   0.00000  Uiso   1.00
H200   H     0.42654   0.10924   0.43787   0.00000  Uiso   1.00
H201   H     0.50442   0.09367   0.40109   0.00000  Uiso   1.00
H202   H     0.49566   0.04994   0.42622   0.00000  Uiso   1.00
Zn203  Zn    0.85910   0.14090   0.28277   0.00000  Uiso   1.00
Zn204  Zn    0.80125   0.12378   0.22257   0.00000  Uiso   1.00
Zn205  Zn    0.87833   0.19664   0.21188   0.00000  Uiso   1.00
Zn206  Zn    0.79465   0.20535   0.28277   0.00000  Uiso   1.00
O207   O     0.83333   0.16667   0.25000   0.00000  Uiso   1.00
O208   O     0.73656   0.18960   0.27820   0.00000  Uiso   1.00
O209   O     0.92106   0.15277   0.26767   0.00000  Uiso   1.00
O210   O     0.80467   0.06903   0.23607   0.00000  Uiso   1.00
O211   O     0.87104   0.25527   0.21805   0.00000  Uiso   1.00
O212   O     0.82360   0.12393   0.16625   0.00000  Uiso   1.00
O213   O     0.79354   0.20646   0.33749   0.00000  Uiso   1.00
O214   O     0.87755   0.17493   0.15877   0.00000  Uiso   1.00
O215   O     0.83865   0.16135   0.33749   0.00000  Uiso   1.00
O216   O     0.84515   0.08101   0.27820   0.00000  Uiso   1.00
O217   O     0.81247   0.26136   0.26767   0.00000  Uiso   1.00
O218   O     0.74119   0.13251   0.23607   0.00000  Uiso   1.00
O219   O     0.93452   0.19179   0.21805   0.00000  Uiso   1.00
C220   C     0.71915   0.15978   0.25883   0.00000  Uiso   1.00
C221   C     0.94763   0.17351   0.24135   0.00000  Uiso   1.00
C222   C     0.82297   0.05626   0.25892   0.00000  Uiso   1.00
C223   C     0.84228   0.27719   0.24001   0.00000  Uiso   1.00
C224   C     0.85464   0.14496   0.14390   0.00000  Uiso   1.00
C225   C     0.81299   0.18876   0.35647   0.00000  Uiso   1.00
C226   C     0.80344   0.19788   0.40059   0.00000  Uiso   1.00
C227   C     0.86209   0.13412   0.10106   0.00000  Uiso   1.00
C228   C     0.76364   0.23139   0.46481   0.00000  Uiso   1.00
C229   C     0.77623   0.22810   0.42270   0.00000  Uiso   1.00
C230   C     0.82108   0.17486   0.42106   0.00000  Uiso   1.00
C231   C     0.80481   0.17368   0.46220   0.00000  Uiso   1.00
C232   C     0.77441   0.20101   0.48403   0.00000  Uiso   1.00
C233   C     0.81854   0.14637   0.48263   0.00000  Uiso   1.00
C234   C     0.81321   0.15704   0.02408   0.00000  Uiso   1.00
C235   C     0.77821   0.17981   0.04574   0.00000  Uiso   1.00
C236   C     0.75493   0.19599   0.02442   0.00000  Uiso   1.00
C237   C     0.83377   0.10745   0.46492   0.00000  Uiso   1.00
C238   C     0.85455   0.08734   0.48547   0.00000  Uiso   1.00
C239   C     0.85775   0.10335   0.02362   0.00000  Uiso   1.00
C240   C     0.83848   0.13950   0.04271   0.00000  Uiso   1.00
C241   C     0.87674   0.08168   0.04438   0.00000  Uiso   1.00
C242   C     0.87711   0.09612   0.08353   0.00000  Uiso   1.00
C243   C     0.84448   0.15645   0.08009   0.00000  Uiso   1.00
H244   H     0.83346   0.18594   0.09413   0.00000  Uiso   1.00
H245   H     0.88928   0.07777   0.10017   0.00000  Uiso   1.00
H246   H     0.86654   0.05788   0.47247   0.00000  Uiso   1.00
H247   H     0.84780   0.15803   0.40460   0.00000  Uiso   1.00
H248   H     0.88973   0.05279   0.03095   0.00000  Uiso   1.00
C249   C     0.99343   0.17632   0.23809   0.00000  Uiso   1.00
H250   H     0.68281   0.19406   0.21586   0.00000  Uiso   1.00
C251   C     0.67384   0.15717   0.26221   0.00000  Uiso   1.00
H252   H     0.98517   0.13907   0.28449   0.00000  Uiso   1.00
C253   C     0.84162   0.32008   0.23254   0.00000  Uiso   1.00
C254   C     0.82063   0.01291   0.26296   0.00000  Uiso   1.00
C255   C     0.70604   0.19182   0.03933   0.00000  Uiso   1.00
C256   C     0.68856   0.14586   0.03616   0.00000  Uiso   1.00
C257   C     0.97304   0.14007   0.04920   0.00000  Uiso   1.00
H258   H     0.96103   0.15326   0.08070   0.00000  Uiso   1.00
H259   H     0.95947   0.15509   0.02994   0.00000  Uiso   1.00
H260   H     0.96245   0.10641   0.04645   0.00000  Uiso   1.00
H261   H     0.69957   0.13177   0.00479   0.00000  Uiso   1.00
H262   H     0.70071   0.12891   0.05497   0.00000  Uiso   1.00
H263   H     0.69541   0.20650   0.07043   0.00000  Uiso   1.00
H264   H     0.69137   0.20686   0.02102   0.00000  Uiso   1.00
C265   C     0.86208   0.00182   0.19134   0.00000  Uiso   1.00
C266   C     0.88177   0.30300   0.15709   0.00000  Uiso   1.00
C267   C     0.89538   0.32094   0.11728   0.00000  Uiso   1.00
H268   H     0.86705   0.33013   0.11037   0.00000  Uiso   1.00
H269   H     0.91960   0.01501   0.11807   0.00000  Uiso   1.00
H270   H     0.90994   0.29724   0.09323   0.00000  Uiso   1.00
H271   H     0.91090   0.29338   0.16217   0.00000  Uiso   1.00
H272   H     0.85783   0.27555   0.15509   0.00000  Uiso   1.00
H273   H     0.83662   0.01409   0.18240   0.00000  Uiso   1.00
H274   H     0.88747   0.02776   0.19404   0.00000  Uiso   1.00
N275   N     0.80505   0.00193   0.30277   0.00000  Uiso   1.00
O276   O     0.76382   0.33041   0.31936   0.00000  Uiso   1.00
O277   O     0.83193   0.00289   0.32405   0.00000  Uiso   1.00
C278   C     0.74327   0.26954   0.48892   0.00000  Uiso   1.00
C279   C     0.77522   0.30888   0.48502   0.00000  Uiso   1.00
C280   C     0.75780   0.01029   0.01696   0.00000  Uiso   1.00
H281   H     0.72609   0.01680   0.01480   0.00000  Uiso   1.00
H282   H     0.75412   0.00157   0.04708   0.00000  Uiso   1.00
H283   H     0.78046   0.03884   0.01312   0.00000  Uiso   1.00
H284   H     0.80643   0.30251   0.48856   0.00000  Uiso   1.00
H285   H     0.78105   0.31936   0.45530   0.00000  Uiso   1.00
H286   H     0.71429   0.27385   0.48003   0.00000  Uiso   1.00
H287   H     0.73232   0.26619   0.02109   0.00000  Uiso   1.00
N288   N     0.76339   0.25696   0.40274   0.00000  Uiso   1.00
O289   O     0.79245   0.28142   0.38078   0.00000  Uiso   1.00
O290   O     0.72286   0.25856   0.40603   0.00000  Uiso   1.00
N291   N     0.76014   0.17867   0.08787   0.00000  Uiso   1.00
O292   O     0.75099   0.14357   0.10293   0.00000  Uiso   1.00
O293   O     0.74991   0.21253   0.11085   0.00000  Uiso   1.00
C294   C     0.82012   0.08199   0.42972   0.00000  Uiso   1.00
C295   C     0.77107   0.07854   0.43563   0.00000  Uiso   1.00
C296   C     0.75780   0.05187   0.40110   0.00000  Uiso   1.00
H297   H     0.77398   0.06547   0.37288   0.00000  Uiso   1.00
H298   H     0.76644   0.02006   0.39875   0.00000  Uiso   1.00
H299   H     0.72242   0.05031   0.40616   0.00000  Uiso   1.00
H300   H     0.75399   0.06496   0.46359   0.00000  Uiso   1.00
H301   H     0.75988   0.10924   0.43787   0.00000  Uiso   1.00
H302   H     0.83776   0.09367   0.40109   0.00000  Uiso   1.00
H303   H     0.82899   0.04994   0.42622   0.00000  Uiso   1.00
Zn304  Zn    0.19244   0.47423   0.28277   0.00000  Uiso   1.00
Zn305  Zn    0.13459   0.45711   0.22257   0.00000  Uiso   1.00
Zn306  Zn    0.21166   0.52997   0.21188   0.00000  Uiso   1.00
Zn307  Zn    0.12798   0.53868   0.28277   0.00000  Uiso   1.00
O308   O     0.16667   0.50000   0.25000   0.00000  Uiso   1.00
O309   O     0.06990   0.52293   0.27820   0.00000  Uiso   1.00
O310   O     0.25440   0.48610   0.26767   0.00000  Uiso   1.00
O311   O     0.13800   0.40236   0.23607   0.00000  Uiso   1.00
O312   O     0.20437   0.58860   0.21805   0.00000  Uiso   1.00
O313   O     0.15693   0.45726   0.16625   0.00000  Uiso   1.00
O314   O     0.12687   0.53979   0.33749   0.00000  Uiso   1.00
O315   O     0.21088   0.50826   0.15877   0.00000  Uiso   1.00
O316   O     0.17198   0.49468   0.33749   0.00000  Uiso   1.00
O317   O     0.17849   0.41434   0.27820   0.00000  Uiso   1.00
O318   O     0.14581   0.59469   0.26767   0.00000  Uiso   1.00
O319   O     0.07452   0.46584   0.23607   0.00000  Uiso   1.00
O320   O     0.26785   0.52512   0.21805   0.00000  Uiso   1.00
C321   C     0.05248   0.49312   0.25883   0.00000  Uiso   1.00
C322   C     0.28097   0.50685   0.24135   0.00000  Uiso   1.00
C323   C     0.15630   0.38959   0.25892   0.00000  Uiso   1.00
C324   C     0.17561   0.61052   0.24001   0.00000  Uiso   1.00
C325   C     0.18798   0.47829   0.14390   0.00000  Uiso   1.00
C326   C     0.14632   0.52210   0.35647   0.00000  Uiso   1.00
C327   C     0.13678   0.53121   0.40059   0.00000  Uiso   1.00
C328   C     0.19542   0.46745   0.10106   0.00000  Uiso   1.00
C329   C     0.09698   0.56472   0.46481   0.00000  Uiso   1.00
C330   C     0.10956   0.56144   0.42270   0.00000  Uiso   1.00
C331   C     0.15441   0.50819   0.42106   0.00000  Uiso   1.00
C332   C     0.13814   0.50701   0.46220   0.00000  Uiso   1.00
C333   C     0.10774   0.53434   0.48403   0.00000  Uiso   1.00
C334   C     0.15187   0.47970   0.48263   0.00000  Uiso   1.00
C335   C     0.14654   0.49038   0.02408   0.00000  Uiso   1.00
C336   C     0.11155   0.51314   0.04574   0.00000  Uiso   1.00
C337   C     0.08827   0.52932   0.02442   0.00000  Uiso   1.00
C338   C     0.16710   0.44079   0.46492   0.00000  Uiso   1.00
C339   C     0.18788   0.42067   0.48547   0.00000  Uiso   1.00
C340   C     0.19109   0.43668   0.02362   0.00000  Uiso   1.00
C341   C     0.17182   0.47283   0.04271   0.00000  Uiso   1.00
C342   C     0.21008   0.41502   0.04438   0.00000  Uiso   1.00
C343   C     0.21045   0.42945   0.08353   0.00000  Uiso   1.00
C344   C     0.17781   0.48979   0.08009   0.00000  Uiso   1.00
H345   H     0.16680   0.51927   0.09413   0.00000  Uiso   1.00
H346   H     0.22261   0.41110   0.10017   0.00000  Uiso   1.00
H347   H     0.19987   0.39121   0.47247   0.00000  Uiso   1.00
H348   H     0.18113   0.49137   0.40460   0.00000  Uiso   1.00
H349   H     0.22307   0.38613   0.03095   0.00000  Uiso   1.00
C350   C     0.32677   0.50965   0.23809   0.00000  Uiso   1.00
H351   H     0.01615   0.52739   0.21586   0.00000  Uiso   1.00
C352   C     0.00717   0.49051   0.26221   0.00000  Uiso   1.00
H353   H     0.31850   0.47241   0.28449   0.00000  Uiso   1.00
C354   C     0.17496   0.65341   0.23254   0.00000  Uiso   1.00
C355   C     0.15396   0.34624   0.26296   0.00000  Uiso   1.00
C356   C     0.03938   0.52515   0.03933   0.00000  Uiso   1.00
C357   C     0.02189   0.47920   0.03616   0.00000  Uiso   1.00
C358   C     0.30638   0.47340   0.04920   0.00000  Uiso   1.00
H359   H     0.29436   0.48659   0.08070   0.00000  Uiso   1.00
H360   H     0.29280   0.48842   0.02994   0.00000  Uiso   1.00
H361   H     0.29578   0.43974   0.04645   0.00000  Uiso   1.00
H362   H     0.03291   0.46510   0.00479   0.00000  Uiso   1.00
H363   H     0.03405   0.46224   0.05497   0.00000  Uiso   1.00
H364   H     0.02874   0.53983   0.07043   0.00000  Uiso   1.00
H365   H     0.02471   0.54019   0.02102   0.00000  Uiso   1.00
C366   C     0.19541   0.33515   0.19134   0.00000  Uiso   1.00
C367   C     0.21511   0.63633   0.15709   0.00000  Uiso   1.00
C368   C     0.22872   0.65427   0.11728   0.00000  Uiso   1.00
H369   H     0.20039   0.66346   0.11037   0.00000  Uiso   1.00
H370   H     0.25293   0.34835   0.11807   0.00000  Uiso   1.00
H371   H     0.24327   0.63057   0.09323   0.00000  Uiso   1.00
H372   H     0.24424   0.62672   0.16217   0.00000  Uiso   1.00
H373   H     0.19117   0.60888   0.15509   0.00000  Uiso   1.00
H374   H     0.16995   0.34743   0.18240   0.00000  Uiso   1.00
H375   H     0.22080   0.36110   0.19404   0.00000  Uiso   1.00
N376   N     0.13838   0.33527   0.30277   0.00000  Uiso   1.00
O377   O     0.09716   0.66374   0.31936   0.00000  Uiso   1.00
O378   O     0.16526   0.33623   0.32405   0.00000  Uiso   1.00
C379   C     0.07660   0.60287   0.48892   0.00000  Uiso   1.00
C380   C     0.10855   0.64222   0.48502   0.00000  Uiso   1.00
C381   C     0.09114   0.34363   0.01696   0.00000  Uiso   1.00
H382   H     0.05942   0.35013   0.01480   0.00000  Uiso   1.00
H383   H     0.08745   0.33491   0.04708   0.00000  Uiso   1.00
H384   H     0.11379   0.37217   0.01312   0.00000  Uiso   1.00
H385   H     0.13977   0.63584   0.48856   0.00000  Uiso   1.00
H386   H     0.11438   0.65270   0.45530   0.00000  Uiso   1.00
H387   H     0.04762   0.60718   0.48003   0.00000  Uiso   1.00
H388   H     0.06565   0.59952   0.02109   0.00000  Uiso   1.00
N389   N     0.09673   0.59029   0.40274   0.00000  Uiso   1.00
O390   O     0.12578   0.61475   0.38078   0.00000  Uiso   1.00
O391   O     0.05620   0.59189   0.40603   0.00000  Uiso   1.00
N392   N     0.09348   0.51201   0.08787   0.00000  Uiso   1.00
O393   O     0.08432   0.47690   0.10293   0.00000  Uiso   1.00
O394   O     0.08324   0.54586   0.11085   0.00000  Uiso   1.00
C395   C     0.15345   0.41532   0.42972   0.00000  Uiso   1.00
C396   C     0.10440   0.41188   0.43563   0.00000  Uiso   1.00
C397   C     0.09114   0.38520   0.40110   0.00000  Uiso   1.00
H398   H     0.10732   0.39880   0.37288   0.00000  Uiso   1.00
H399   H     0.09978   0.35339   0.39875   0.00000  Uiso   1.00
H400   H     0.05576   0.38365   0.40616   0.00000  Uiso   1.00
H401   H     0.08732   0.39829   0.46359   0.00000  Uiso   1.00
H402   H     0.09321   0.44257   0.43787   0.00000  Uiso   1.00
H403   H     0.17109   0.42700   0.40109   0.00000  Uiso   1.00
H404   H     0.16232   0.38328   0.42622   0.00000  Uiso   1.00
Zn405  Zn    0.52577   0.47423   0.28277   0.00000  Uiso   1.00
Zn406  Zn    0.46792   0.45711   0.22257   0.00000  Uiso   1.00
Zn407  Zn    0.54500   0.52997   0.21188   0.00000  Uiso   1.00
Zn408  Zn    0.46131   0.53868   0.28277   0.00000  Uiso   1.00
O409   O     0.50000   0.50000   0.25000   0.00000  Uiso   1.00
O410   O     0.40323   0.52293   0.27820   0.00000  Uiso   1.00
O411   O     0.58773   0.48610   0.26767   0.00000  Uiso   1.00
O412   O     0.47133   0.40236   0.23607   0.00000  Uiso   1.00
O413   O     0.53771   0.58860   0.21805   0.00000  Uiso   1.00
O414   O     0.49027   0.45726   0.16625   0.00000  Uiso   1.00
O415   O     0.46020   0.53979   0.33749   0.00000  Uiso   1.00
O416   O     0.54421   0.50826   0.15877   0.00000  Uiso   1.00
O417   O     0.50532   0.49468   0.33749   0.00000  Uiso   1.00
O418   O     0.51182   0.41434   0.27820   0.00000  Uiso   1.00
O419   O     0.47914   0.59469   0.26767   0.00000  Uiso   1.00
O420   O     0.40785   0.46584   0.23607   0.00000  Uiso   1.00
O421   O     0.60119   0.52512   0.21805   0.00000  Uiso   1.00
C422   C     0.38581   0.49312   0.25883   0.00000  Uiso   1.00
C423   C     0.61430   0.50685   0.24135   0.00000  Uiso   1.00
C424   C     0.48963   0.38959   0.25892   0.00000  Uiso   1.00
C425   C     0.50894   0.61052   0.24001   0.00000  Uiso   1.00
C426   C     0.52131   0.47829   0.14390   0.00000  Uiso   1.00
C427   C     0.47965   0.52210   0.35647   0.00000  Uiso   1.00
C428   C     0.47011   0.53121   0.40059   0.00000  Uiso   1.00
C429   C     0.52876   0.46745   0.10106   0.00000  Uiso   1.00
C430   C     0.43031   0.56472   0.46481   0.00000  Uiso   1.00
C431   C     0.44290   0.56144   0.42270   0.00000  Uiso   1.00
C432   C     0.48774   0.50819   0.42106   0.00000  Uiso   1.00
C433   C     0.47148   0.50701   0.46220   0.00000  Uiso   1.00
C434   C     0.44107   0.53434   0.48403   0.00000  Uiso   1.00
C435   C     0.48521   0.47970   0.48263   0.00000  Uiso   1.00
C436   C     0.47988   0.49038   0.02408   0.00000  Uiso   1.00
C437   C     0.44488   0.51314   0.04574   0.00000  Uiso   1.00
C438   C     0.42160   0.52932   0.02442   0.00000  Uiso   1.00
C439   C     0.50043   0.44079   0.46492   0.00000  Uiso   1.00
C440   C     0.52121   0.42067   0.48547   0.00000  Uiso   1.00
C441   C     0.52442   0.43668   0.02362   0.00000  Uiso   1.00
C442   C     0.50515   0.47283   0.04271   0.00000  Uiso   1.00
C443   C     0.54341   0.41502   0.04438   0.00000  Uiso   1.00
C444   C     0.54378   0.42945   0.08353   0.00000  Uiso   1.00
C445   C     0.51114   0.48979   0.08009   0.00000  Uiso   1.00
H446   H     0.50013   0.51927   0.09413   0.00000  Uiso   1.00
H447   H     0.55595   0.41110   0.10017   0.00000  Uiso   1.00
H448   H     0.53321   0.39121   0.47247   0.00000  Uiso   1.00
H449   H     0.51447   0.49137   0.40460   0.00000  Uiso   1.00
H450   H     0.55640   0.38613   0.03095   0.00000  Uiso   1.00
C451   C     0.66010   0.50965   0.23809   0.00000  Uiso   1.00
H452   H     0.34948   0.52739   0.21586   0.00000  Uiso   1.00
C453   C     0.34050   0.49051   0.26221   0.00000  Uiso   1.00
H454   H     0.65184   0.47241   0.28449   0.00000  Uiso   1.00
C455   C     0.50829   0.65341   0.23254   0.00000  Uiso   1.00
C456   C     0.48729   0.34624   0.26296   0.00000  Uiso   1.00
C457   C     0.37271   0.52515   0.03933   0.00000  Uiso   1.00
C458   C     0.35522   0.47920   0.03616   0.00000  Uiso   1.00
C459   C     0.63971   0.47340   0.04920   0.00000  Uiso   1.00
H460   H     0.62770   0.48659   0.08070   0.00000  Uiso   1.00
H461   H     0.62614   0.48842   0.02994   0.00000  Uiso   1.00
H462   H     0.62912   0.43974   0.04645   0.00000  Uiso   1.00
H463   H     0.36624   0.46510   0.00479   0.00000  Uiso   1.00
H464   H     0.36738   0.46224   0.05497   0.00000  Uiso   1.00
H465   H     0.36208   0.53983   0.07043   0.00000  Uiso   1.00
H466   H     0.35804   0.54019   0.02102   0.00000  Uiso   1.00
C467   C     0.52875   0.33515   0.19134   0.00000  Uiso   1.00
C468   C     0.54844   0.63633   0.15709   0.00000  Uiso   1.00
C469   C     0.56205   0.65427   0.11728   0.00000  Uiso   1.00
H470   H     0.53372   0.66346   0.11037   0.00000  Uiso   1.00
H471   H     0.58626   0.34835   0.11807   0.00000  Uiso   1.00
H472   H     0.57661   0.63057   0.09323   0.00000  Uiso   1.00
H473   H     0.57757   0.62672   0.16217   0.00000  Uiso   1.00
H474   H     0.52450   0.60888   0.15509   0.00000  Uiso   1.00
H475   H     0.50328   0.34743   0.18240   0.00000  Uiso   1.00
H476   H     0.55413   0.36110   0.19404   0.00000  Uiso   1.00
N477   N     0.47171   0.33527   0.30277   0.00000  Uiso   1.00
O478   O     0.43049   0.66374   0.31936   0.00000  Uiso   1.00
O479   O     0.49860   0.33623   0.32405   0.00000  Uiso   1.00
C480   C     0.40993   0.60287   0.48892   0.00000  Uiso   1.00
C481   C     0.44188   0.64222   0.48502   0.00000  Uiso   1.00
C482   C     0.42447   0.34363   0.01696   0.00000  Uiso   1.00
H483   H     0.39276   0.35013   0.01480   0.00000  Uiso   1.00
H484   H     0.42079   0.33491   0.04708   0.00000  Uiso   1.00
H485   H     0.44713   0.37217   0.01312   0.00000  Uiso   1.00
H486   H     0.47310   0.63584   0.48856   0.00000  Uiso   1.00
H487   H     0.44772   0.65270   0.45530   0.00000  Uiso   1.00
H488   H     0.38095   0.60718   0.48003   0.00000  Uiso   1.00
H489   H     0.39899   0.59952   0.02109   0.00000  Uiso   1.00
N490   N     0.43006   0.59029   0.40274   0.00000  Uiso   1.00
O491   O     0.45912   0.61475   0.38078   0.00000  Uiso   1.00
O492   O     0.38953   0.59189   0.40603   0.00000  Uiso   1.00
N493   N     0.42681   0.51201   0.08787   0.00000  Uiso   1.00
O494   O     0.41765   0.47690   0.10293   0.00000  Uiso   1.00
O495   O     0.41658   0.54586   0.11085   0.00000  Uiso   1.00
C496   C     0.48679   0.41532   0.42972   0.00000  Uiso   1.00
C497   C     0.43773   0.41188   0.43563   0.00000  Uiso   1.00
C498   C     0.42447   0.38520   0.40110   0.00000  Uiso   1.00
H499   H     0.44065   0.39880   0.37288   0.00000  Uiso   1.00
H500   H     0.43311   0.35339   0.39875   0.00000  Uiso   1.00
H501   H     0.38909   0.38365   0.40616   0.00000  Uiso   1.00
H502   H     0.42065   0.39829   0.46359   0.00000  Uiso   1.00
H503   H     0.42654   0.44257   0.43787   0.00000  Uiso   1.00
H504   H     0.50442   0.42700   0.40109   0.00000  Uiso   1.00
H505   H     0.49566   0.38328   0.42622   0.00000  Uiso   1.00
Zn506  Zn    0.85910   0.47423   0.28277   0.00000  Uiso   1.00
Zn507  Zn    0.80125   0.45711   0.22257   0.00000  Uiso   1.00
Zn508  Zn    0.87833   0.52997   0.21188   0.00000  Uiso   1.00
Zn509  Zn    0.79465   0.53868   0.28277   0.00000  Uiso   1.00
O510   O     0.83333   0.50000   0.25000   0.00000  Uiso   1.00
O511   O     0.73656   0.52293   0.27820   0.00000  Uiso   1.00
O512   O     0.92106   0.48610   0.26767   0.00000  Uiso   1.00
O513   O     0.80467   0.40236   0.23607   0.00000  Uiso   1.00
O514   O     0.87104   0.58860   0.21805   0.00000  Uiso   1.00
O515   O     0.82360   0.45726   0.16625   0.00000  Uiso   1.00
O516   O     0.79354   0.53979   0.33749   0.00000  Uiso   1.00
O517   O     0.87755   0.50826   0.15877   0.00000  Uiso   1.00
O518   O     0.83865   0.49468   0.33749   0.00000  Uiso   1.00
O519   O     0.84515   0.41434   0.27820   0.00000  Uiso   1.00
O520   O     0.81247   0.59469   0.26767   0.00000  Uiso   1.00
O521   O     0.74119   0.46584   0.23607   0.00000  Uiso   1.00
O522   O     0.93452   0.52512   0.21805   0.00000  Uiso   1.00
C523   C     0.71915   0.49312   0.25883   0.00000  Uiso   1.00
C524   C     0.94763   0.50685   0.24135   0.00000  Uiso   1.00
C525   C     0.82297   0.38959   0.25892   0.00000  Uiso   1.00
C526   C     0.84228   0.61052   0.24001   0.00000  Uiso   1.00
C527   C     0.85464   0.47829   0.14390   0.00000  Uiso   1.00
C528   C     0.81299   0.52210   0.35647   0.00000  Uiso   1.00
C529   C     0.80344   0.53121   0.40059   0.00000  Uiso   1.00
C530   C     0.86209   0.46745   0.10106   0.00000  Uiso   1.00
C531   C     0.76364   0.56472   0.46481   0.00000  Uiso   1.00
C532   C     0.77623   0.56144   0.42270   0.00000  Uiso   1.00
C533   C     0.82108   0.50819   0.42106   0.00000  Uiso   1.00
C534   C     0.80481   0.50701   0.46220   0.00000  Uiso   1.00
C535   C     0.77441   0.53434   0.48403   0.00000  Uiso   1.00
C536   C     0.81854   0.47970   0.48263   0.00000  Uiso   1.00
C537   C     0.81321   0.49038   0.02408   0.00000  Uiso   1.00
C538   C     0.77821   0.51314   0.04574   0.00000  Uiso   1.00
C539   C     0.75493   0.52932   0.02442   0.00000  Uiso   1.00
C540   C     0.83377   0.44079   0.46492   0.00000  Uiso   1.00
C541   C     0.85455   0.42067   0.48547   0.00000  Uiso   1.00
C542   C     0.85775   0.43668   0.02362   0.00000  Uiso   1.00
C543   C     0.83848   0.47283   0.04271   0.00000  Uiso   1.00
C544   C     0.87674   0.41502   0.04438   0.00000  Uiso   1.00
C545   C     0.87711   0.42945   0.08353   0.00000  Uiso   1.00
C546   C     0.84448   0.48979   0.08009   0.00000  Uiso   1.00
H547   H     0.83346   0.51927   0.09413   0.00000  Uiso   1.00
H548   H     0.88928   0.41110   0.10017   0.00000  Uiso   1.00
H549   H     0.86654   0.39121   0.47247   0.00000  Uiso   1.00
H550   H     0.84780   0.49137   0.40460   0.00000  Uiso   1.00
H551   H     0.88973   0.38613   0.03095   0.00000  Uiso   1.00
C552   C     0.99343   0.50965   0.23809   0.00000  Uiso   1.00
H553   H     0.68281   0.52739   0.21586   0.00000  Uiso   1.00
C554   C     0.67384   0.49051   0.26221   0.00000  Uiso   1.00
H555   H     0.98517   0.47241   0.28449   0.00000  Uiso   1.00
C556   C     0.84162   0.65341   0.23254   0.00000  Uiso   1.00
C557   C     0.82063   0.34624   0.26296   0.00000  Uiso   1.00
C558   C     0.70604   0.52515   0.03933   0.00000  Uiso   1.00
C559   C     0.68856   0.47920   0.03616   0.00000  Uiso   1.00
C560   C     0.97304   0.47340   0.04920   0.00000  Uiso   1.00
H561   H     0.96103   0.48659   0.08070   0.00000  Uiso   1.00
H562   H     0.95947   0.48842   0.02994   0.00000  Uiso   1.00
H563   H     0.96245   0.43974   0.04645   0.00000  Uiso   1.00
H564   H     0.69957   0.46510   0.00479   0.00000  Uiso   1.00
H565   H     0.70071   0.46224   0.05497   0.00000  Uiso   1.00
H566   H     0.69541   0.53983   0.07043   0.00000  Uiso   1.00
H567   H     0.69137   0.54019   0.02102   0.00000  Uiso   1.00
C568   C     0.86208   0.33515   0.19134   0.00000  Uiso   1.00
C569   C     0.88177   0.63633   0.15709   0.00000  Uiso   1.00
C570   C     0.89538   0.65427   0.11728   0.00000  Uiso   1.00
H571   H     0.86705   0.66346   0.11037   0.00000  Uiso   1.00
H572   H     0.91960   0.34835   0.11807   0.00000  Uiso   1.00
H573   H     0.90994   0.63057   0.09323   0.00000  Uiso   1.00
H574   H     0.91090   0.62672   0.16217   0.00000  Uiso   1.00
H575   H     0.85783   0.60888   0.15509   0.00000  Uiso   1.00
H576   H     0.83662   0.34743   0.18240   0.00000  Uiso   1.00
H577   H     0.88747   0.36110   0.19404   0.00000  Uiso   1.00
N578   N     0.80505   0.33527   0.30277   0.00000  Uiso   1.00
O579   O     0.76382   0.66374   0.31936   0.00000  Uiso   1.00
O580   O     0.83193   0.33623   0.32405   0.00000  Uiso   1.00
C581   C     0.74327   0.60287   0.48892   0.00000  Uiso   1.00
C582   C     0.77522   0.64222   0.48502   0.00000  Uiso   1.00
C583   C     0.75780   0.34363   0.01696   0.00000  Uiso   1.00
H584   H     0.72609   0.35013   0.01480   0.00000  Uiso   1.00
H585   H     0.75412   0.33491   0.04708   0.00000  Uiso   1.00
H586   H     0.78046   0.37217   0.01312   0.00000  Uiso   1.00
H587   H     0.80643   0.63584   0.48856   0.00000  Uiso   1.00
H588   H     0.78105   0.65270   0.45530   0.00000  Uiso   1.00
H589   H     0.71429   0.60718   0.48003   0.00000  Uiso   1.00
H590   H     0.73232   0.59952   0.02109   0.00000  Uiso   1.00
N591   N     0.76339   0.59029   0.40274   0.00000  Uiso   1.00
O592   O     0.79245   0.61475   0.38078   0.00000  Uiso   1.00
O593   O     0.72286   0.59189   0.40603   0.00000  Uiso   1.00
N594   N     0.76014   0.51201   0.08787   0.00000  Uiso   1.00
O595   O     0.75099   0.47690   0.10293   0.00000  Uiso   1.00
O596   O     0.74991   0.54586   0.11085   0.00000  Uiso   1.00
C597   C     0.82012   0.41532   0.42972   0.00000  Uiso   1.00
C598   C     0.77107   0.41188   0.43563   0.00000  Uiso   1.00
C599   C     0.75780   0.38520   0.40110   0.00000  Uiso   1.00
H600   H     0.77398   0.39880   0.37288   0.00000  Uiso   1.00
H601   H     0.76644   0.35339   0.39875   0.00000  Uiso   1.00
H602   H     0.72242   0.38365   0.40616   0.00000  Uiso   1.00
H603   H     0.75399   0.39829   0.46359   0.00000  Uiso   1.00
H604   H     0.75988   0.44257   0.43787   0.00000  Uiso   1.00
H605   H     0.83776   0.42700   0.40109   0.00000  Uiso   1.00
H606   H     0.82899   0.38328   0.42622   0.00000  Uiso   1.00
Zn607  Zn    0.19244   0.80756   0.28277   0.00000  Uiso   1.00
Zn608  Zn    0.13459   0.79044   0.22257   0.00000  Uiso   1.00
Zn609  Zn    0.21166   0.86331   0.21188   0.00000  Uiso   1.00
Zn610  Zn    0.12798   0.87202   0.28277   0.00000  Uiso   1.00
O611   O     0.16667   0.83333   0.25000   0.00000  Uiso   1.00
O612   O     0.06990   0.85627   0.27820   0.00000  Uiso   1.00
O613   O     0.25440   0.81944   0.26767   0.00000  Uiso   1.00
O614   O     0.13800   0.73570   0.23607   0.00000  Uiso   1.00
O615   O     0.20437   0.92193   0.21805   0.00000  Uiso   1.00
O616   O     0.15693   0.79060   0.16625   0.00000  Uiso   1.00
O617   O     0.12687   0.87313   0.33749   0.00000  Uiso   1.00
O618   O     0.21088   0.84159   0.15877   0.00000  Uiso   1.00
O619   O     0.17198   0.82802   0.33749   0.00000  Uiso   1.00
O620   O     0.17849   0.74768   0.27820   0.00000  Uiso   1.00
O621   O     0.14581   0.92803   0.26767   0.00000  Uiso   1.00
O622   O     0.07452   0.79917   0.23607   0.00000  Uiso   1.00
O623   O     0.26785   0.85845   0.21805   0.00000  Uiso   1.00
C624   C     0.05248   0.82645   0.25883   0.00000  Uiso   1.00
C625   C     0.28097   0.84018   0.24135   0.00000  Uiso   1.00
C626   C     0.15630   0.72293   0.25892   0.00000  Uiso   1.00
C627   C     0.17561   0.94386   0.24001   0.00000  Uiso   1.00
C628   C     0.18798   0.81163   0.14390   0.00000  Uiso   1.00
C629   C     0.14632   0.85543   0.35647   0.00000  Uiso   1.00
C630   C     0.13678   0.86455   0.40059   0.00000  Uiso   1.00
C631   C     0.19542   0.80078   0.10106   0.00000  Uiso   1.00
C632   C     0.09698   0.89806   0.46481   0.00000  Uiso   1.00
C633   C     0.10956   0.89477   0.42270   0.00000  Uiso   1.00
C634   C     0.15441   0.84152   0.42106   0.00000  Uiso   1.00
C635   C     0.13814   0.84035   0.46220   0.00000  Uiso   1.00
C636   C     0.10774   0.86767   0.48403   0.00000  Uiso   1.00
C637   C     0.15187   0.81304   0.48263   0.00000  Uiso   1.00
C638   C     0.14654   0.82371   0.02408   0.00000  Uiso   1.00
C639   C     0.11155   0.84647   0.04574   0.00000  Uiso   1.00
C640   C     0.08827   0.86266   0.02442   0.00000  Uiso   1.00
C641   C     0.16710   0.77412   0.46492   0.00000  Uiso   1.00
C642   C     0.18788   0.75400   0.48547   0.00000  Uiso   1.00
C643   C     0.19109   0.77002   0.02362   0.00000  Uiso   1.00
C644   C     0.17182   0.80616   0.04271   0.00000  Uiso   1.00
C645   C     0.21008   0.74835   0.04438   0.00000  Uiso   1.00
C646   C     0.21045   0.76279   0.08353   0.00000  Uiso   1.00
C647   C     0.17781   0.82312   0.08009   0.00000  Uiso   1.00
H648   H     0.16680   0.85261   0.09413   0.00000  Uiso   1.00
H649   H     0.22261   0.74443   0.10017   0.00000  Uiso   1.00
H650   H     0.19987   0.72455   0.47247   0.00000  Uiso   1.00
H651   H     0.18113   0.82470   0.40460   0.00000  Uiso   1.00
H652   H     0.22307   0.71946   0.03095   0.00000  Uiso   1.00
C653   C     0.32677   0.84299   0.23809   0.00000  Uiso   1.00
H654   H     0.01615   0.86073   0.21586   0.00000  Uiso   1.00
C655   C     0.00717   0.82384   0.26221   0.00000  Uiso   1.00
H656   H     0.31850   0.80574   0.28449   0.00000  Uiso   1.00
C657   C     0.17496   0.98674   0.23254   0.00000  Uiso   1.00
C658   C     0.15396   0.67957   0.26296   0.00000  Uiso   1.00
C659   C     0.03938   0.85849   0.03933   0.00000  Uiso   1.00
C660   C     0.02189   0.81253   0.03616   0.00000  Uiso   1.00
C661   C     0.30638   0.80673   0.04920   0.00000  Uiso   1.00
H662   H     0.29436   0.81992   0.08070   0.00000  Uiso   1.00
H663   H     0.29280   0.82175   0.02994   0.00000  Uiso   1.00
H664   H     0.29578   0.77307   0.04645   0.00000  Uiso   1.00
H665   H     0.03291   0.79843   0.00479   0.00000  Uiso   1.00
H666   H     0.03405   0.79557   0.05497   0.00000  Uiso   1.00
H667   H     0.02874   0.87317   0.07043   0.00000  Uiso   1.00
H668   H     0.02471   0.87352   0.02102   0.00000  Uiso   1.00
C669   C     0.19541   0.66848   0.19134   0.00000  Uiso   1.00
C670   C     0.21511   0.96967   0.15709   0.00000  Uiso   1.00
C671   C     0.22872   0.98760   0.11728   0.00000  Uiso   1.00
H672   H     0.20039   0.99679   0.11037   0.00000  Uiso   1.00
H673   H     0.25293   0.68168   0.11807   0.00000  Uiso   1.00
H674   H     0.24327   0.96391   0.09323   0.00000  Uiso   1.00
H675   H     0.24424   0.96005   0.16217   0.00000  Uiso   1.00
H676   H     0.19117   0.94221   0.15509   0.00000  Uiso   1.00
H677   H     0.16995   0.68076   0.18240   0.00000  Uiso   1.00
H678   H     0.22080   0.69443   0.19404   0.00000  Uiso   1.00
N679   N     0.13838   0.66860   0.30277   0.00000  Uiso   1.00
O680   O     0.09716   0.99707   0.31936   0.00000  Uiso   1.00
O681   O     0.16526   0.66956   0.32405   0.00000  Uiso   1.00
C682   C     0.07660   0.93621   0.48892   0.00000  Uiso   1.00
C683   C     0.10855   0.97555   0.48502   0.00000  Uiso   1.00
C684   C     0.09114   0.67696   0.01696   0.00000  Uiso   1.00
H685   H     0.05942   0.68347   0.01480   0.00000  Uiso   1.00
H686   H     0.08745   0.66824   0.04708   0.00000  Uiso   1.00
H687   H     0.11379   0.70551   0.01312   0.00000  Uiso   1.00
H688   H     0.13977   0.96918   0.48856   0.00000  Uiso   1.00
H689   H     0.11438   0.98603   0.45530   0.00000  Uiso   1.00
H690   H     0.04762   0.94051   0.48003   0.00000  Uiso   1.00
H691   H     0.06565   0.93285   0.02109   0.00000  Uiso   1.00
N692   N     0.09673   0.92363   0.40274   0.00000  Uiso   1.00
O693   O     0.12578   0.94809   0.38078   0.00000  Uiso   1.00
O694   O     0.05620   0.92523   0.40603   0.00000  Uiso   1.00
N695   N     0.09348   0.84534   0.08787   0.00000  Uiso   1.00
O696   O     0.08432   0.81023   0.10293   0.00000  Uiso   1.00
O697   O     0.08324   0.87919   0.11085   0.00000  Uiso   1.00
C698   C     0.15345   0.74865   0.42972   0.00000  Uiso   1.00
C699   C     0.10440   0.74521   0.43563   0.00000  Uiso   1.00
C700   C     0.09114   0.71853   0.40110   0.00000  Uiso   1.00
H701   H     0.10732   0.73213   0.37288   0.00000  Uiso   1.00
H702   H     0.09978   0.68672   0.39875   0.00000  Uiso   1.00
H703   H     0.05576   0.71698   0.40616   0.00000  Uiso   1.00
H704   H     0.08732   0.73163   0.46359   0.00000  Uiso   1.00
H705   H     0.09321   0.77590   0.43787   0.00000  Uiso   1.00
H706   H     0.17109   0.76033   0.40109   0.00000  Uiso   1.00
H707   H     0.16232   0.71661   0.42622   0.00000  Uiso   1.00
Zn708  Zn    0.52577   0.80756   0.28277   0.00000  Uiso   1.00
Zn709  Zn    0.46792   0.79044   0.22257   0.00000  Uiso   1.00
Zn710  Zn    0.54500   0.86331   0.21188   0.00000  Uiso   1.00
Zn711  Zn    0.46131   0.87202   0.28277   0.00000  Uiso   1.00
O712   O     0.50000   0.83333   0.25000   0.00000  Uiso   1.00
O713   O     0.40323   0.85627   0.27820   0.00000  Uiso   1.00
O714   O     0.58773   0.81944   0.26767   0.00000  Uiso   1.00
O715   O     0.47133   0.73570   0.23607   0.00000  Uiso   1.00
O716   O     0.53771   0.92193   0.21805   0.00000  Uiso   1.00
O717   O     0.49027   0.79060   0.16625   0.00000  Uiso   1.00
O718   O     0.46020   0.87313   0.33749   0.00000  Uiso   1.00
O719   O     0.54421   0.84159   0.15877   0.00000  Uiso   1.00
O720   O     0.50532   0.82802   0.33749   0.00000  Uiso   1.00
O721   O     0.51182   0.74768   0.27820   0.00000  Uiso   1.00
O722   O     0.47914   0.92803   0.26767   0.00000  Uiso   1.00
O723   O     0.40785   0.79917   0.23607   0.00000  Uiso   1.00
O724   O     0.60119   0.85845   0.21805   0.00000  Uiso   1.00
C725   C     0.38581   0.82645   0.25883   0.00000  Uiso   1.00
C726   C     0.61430   0.84018   0.24135   0.00000  Uiso   1.00
C727   C     0.48963   0.72293   0.25892   0.00000  Uiso   1.00
C728   C     0.50894   0.94386   0.24001   0.00000  Uiso   1.00
C729   C     0.52131   0.81163   0.14390   0.00000  Uiso   1.00
C730   C     0.47965   0.85543   0.35647   0.00000  Uiso   1.00
C731   C     0.47011   0.86455   0.40059   0.00000  Uiso   1.00
C732   C     0.52876   0.80078   0.10106   0.00000  Uiso   1.00
C733   C     0.43031   0.89806   0.46481   0.00000  Uiso   1.00
C734   C     0.44290   0.89477   0.42270   0.00000  Uiso   1.00
C735   C     0.48774   0.84152   0.42106   0.00000  Uiso   1.00
C736   C     0.47148   0.84035   0.46220   0.00000  Uiso   1.00
C737   C     0.44107   0.86767   0.48403   0.00000  Uiso   1.00
C738   C     0.48521   0.81304   0.48263   0.00000  Uiso   1.00
C739   C     0.47988   0.82371   0.02408   0.00000  Uiso   1.00
C740   C     0.44488   0.84647   0.04574   0.00000  Uiso   1.00
C741   C     0.42160   0.86266   0.02442   0.00000  Uiso   1.00
C742   C     0.50043   0.77412   0.46492   0.00000  Uiso   1.00
C743   C     0.52121   0.75400   0.48547   0.00000  Uiso   1.00
C744   C     0.52442   0.77002   0.02362   0.00000  Uiso   1.00
C745   C     0.50515   0.80616   0.04271   0.00000  Uiso   1.00
C746   C     0.54341   0.74835   0.04438   0.00000  Uiso   1.00
C747   C     0.54378   0.76279   0.08353   0.00000  Uiso   1.00
C748   C     0.51114   0.82312   0.08009   0.00000  Uiso   1.00
H749   H     0.50013   0.85261   0.09413   0.00000  Uiso   1.00
H750   H     0.55595   0.74443   0.10017   0.00000  Uiso   1.00
H751   H     0.53321   0.72455   0.47247   0.00000  Uiso   1.00
H752   H     0.51447   0.82470   0.40460   0.00000  Uiso   1.00
H753   H     0.55640   0.71946   0.03095   0.00000  Uiso   1.00
C754   C     0.66010   0.84299   0.23809   0.00000  Uiso   1.00
H755   H     0.34948   0.86073   0.21586   0.00000  Uiso   1.00
C756   C     0.34050   0.82384   0.26221   0.00000  Uiso   1.00
H757   H     0.65184   0.80574   0.28449   0.00000  Uiso   1.00
C758   C     0.50829   0.98674   0.23254   0.00000  Uiso   1.00
C759   C     0.48729   0.67957   0.26296   0.00000  Uiso   1.00
C760   C     0.37271   0.85849   0.03933   0.00000  Uiso   1.00
C761   C     0.35522   0.81253   0.03616   0.00000  Uiso   1.00
C762   C     0.63971   0.80673   0.04920   0.00000  Uiso   1.00
H763   H     0.62770   0.81992   0.08070   0.00000  Uiso   1.00
H764   H     0.62614   0.82175   0.02994   0.00000  Uiso   1.00
H765   H     0.62912   0.77307   0.04645   0.00000  Uiso   1.00
H766   H     0.36624   0.79843   0.00479   0.00000  Uiso   1.00
H767   H     0.36738   0.79557   0.05497   0.00000  Uiso   1.00
H768   H     0.36208   0.87317   0.07043   0.00000  Uiso   1.00
H769   H     0.35804   0.87352   0.02102   0.00000  Uiso   1.00
C770   C     0.52875   0.66848   0.19134   0.00000  Uiso   1.00
C771   C     0.54844   0.96967   0.15709   0.00000  Uiso   1.00
C772   C     0.56205   0.98760   0.11728   0.00000  Uiso   1.00
H773   H     0.53372   0.99679   0.11037   0.00000  Uiso   1.00
H774   H     0.58626   0.68168   0.11807   0.00000  Uiso   1.00
H775   H     0.57661   0.96391   0.09323   0.00000  Uiso   1.00
H776   H     0.57757   0.96005   0.16217   0.00000  Uiso   1.00
H777   H     0.52450   0.94221   0.15509   0.00000  Uiso   1.00
H778   H     0.50328   0.68076   0.18240   0.00000  Uiso   1.00
H779   H     0.55413   0.69443   0.19404   0.00000  Uiso   1.00
N780   N     0.47171   0.66860   0.30277   0.00000  Uiso   1.00
O781   O     0.43049   0.99707   0.31936   0.00000  Uiso   1.00
O782   O     0.49860   0.66956   0.32405   0.00000  Uiso   1.00
C783   C     0.40993   0.93621   0.48892   0.00000  Uiso   1.00
C784   C     0.44188   0.97555   0.48502   0.00000  Uiso   1.00
C785   C     0.42447   0.67696   0.01696   0.00000  Uiso   1.00
H786   H     0.39276   0.68347   0.01480   0.00000  Uiso   1.00
H787   H     0.42079   0.66824   0.04708   0.00000  Uiso   1.00
H788   H     0.44713   0.70551   0.01312   0.00000  Uiso   1.00
H789   H     0.47310   0.96918   0.48856   0.00000  Uiso   1.00
H790   H     0.44772   0.98603   0.45530   0.00000  Uiso   1.00
H791   H     0.38095   0.94051   0.48003   0.00000  Uiso   1.00
H792   H     0.39899   0.93285   0.02109   0.00000  Uiso   1.00
N793   N     0.43006   0.92363   0.40274   0.00000  Uiso   1.00
O794   O     0.45912   0.94809   0.38078   0.00000  Uiso   1.00
O795   O     0.38953   0.92523   0.40603   0.00000  Uiso   1.00
N796   N     0.42681   0.84534   0.08787   0.00000  Uiso   1.00
O797   O     0.41765   0.81023   0.10293   0.00000  Uiso   1.00
O798   O     0.41658   0.87919   0.11085   0.00000  Uiso   1.00
C799   C     0.48679   0.74865   0.42972   0.00000  Uiso   1.00
C800   C     0.43773   0.74521   0.43563   0.00000  Uiso   1.00
C801   C     0.42447   0.71853   0.40110   0.00000  Uiso   1.00
H802   H     0.44065   0.73213   0.37288   0.00000  Uiso   1.00
H803   H     0.43311   0.68672   0.39875   0.00000  Uiso   1.00
H804   H     0.38909   0.71698   0.40616   0.00000  Uiso   1.00
H805   H     0.42065   0.73163   0.46359   0.00000  Uiso   1.00
H806   H     0.42654   0.77590   0.43787   0.00000  Uiso   1.00
H807   H     0.50442   0.76033   0.40109   0.00000  Uiso   1.00
H808   H     0.49566   0.71661   0.42622   0.00000  Uiso   1.00
Zn809  Zn    0.85910   0.80756   0.28277   0.00000  Uiso   1.00
Zn810  Zn    0.80125   0.79044   0.22257   0.00000  Uiso   1.00
Zn811  Zn    0.87833   0.86331   0.21188   0.00000  Uiso   1.00
Zn812  Zn    0.79465   0.87202   0.28277   0.00000  Uiso   1.00
O813   O     0.83333   0.83333   0.25000   0.00000  Uiso   1.00
O814   O     0.73656   0.85627   0.27820   0.00000  Uiso   1.00
O815   O     0.92106   0.81944   0.26767   0.00000  Uiso   1.00
O816   O     0.80467   0.73570   0.23607   0.00000  Uiso   1.00
O817   O     0.87104   0.92193   0.21805   0.00000  Uiso   1.00
O818   O     0.82360   0.79060   0.16625   0.00000  Uiso   1.00
O819   O     0.79354   0.87313   0.33749   0.00000  Uiso   1.00
O820   O     0.87755   0.84159   0.15877   0.00000  Uiso   1.00
O821   O     0.83865   0.82802   0.33749   0.00000  Uiso   1.00
O822   O     0.84515   0.74768   0.27820   0.00000  Uiso   1.00
O823   O     0.81247   0.92803   0.26767   0.00000  Uiso   1.00
O824   O     0.74119   0.79917   0.23607   0.00000  Uiso   1.00
O825   O     0.93452   0.85845   0.21805   0.00000  Uiso   1.00
C826   C     0.71915   0.82645   0.25883   0.00000  Uiso   1.00
C827   C     0.94763   0.84018   0.24135   0.00000  Uiso   1.00
C828   C     0.82297   0.72293   0.25892   0.00000  Uiso   1.00
C829   C     0.84228   0.94386   0.24001   0.00000  Uiso   1.00
C830   C     0.85464   0.81163   0.14390   0.00000  Uiso   1.00
C831   C     0.81299   0.85543   0.35647   0.00000  Uiso   1.00
C832   C     0.80344   0.86455   0.40059   0.00000  Uiso   1.00
C833   C     0.86209   0.80078   0.10106   0.00000  Uiso   1.00
C834   C     0.76364   0.89806   0.46481   0.00000  Uiso   1.00
C835   C     0.77623   0.89477   0.42270   0.00000  Uiso   1.00
C836   C     0.82108   0.84152   0.42106   0.00000  Uiso   1.00
C837   C     0.80481   0.84035   0.46220   0.00000  Uiso   1.00
C838   C     0.77441   0.86767   0.48403   0.00000  Uiso   1.00
C839   C     0.81854   0.81304   0.48263   0.00000  Uiso   1.00
C840   C     0.81321   0.82371   0.02408   0.00000  Uiso   1.00
C841   C     0.77821   0.84647   0.04574   0.00000  Uiso   1.00
C842   C     0.75493   0.86266   0.02442   0.00000  Uiso   1.00
C843   C     0.83377   0.77412   0.46492   0.00000  Uiso   1.00
C844   C     0.85455   0.75400   0.48547   0.00000  Uiso   1.00
C845   C     0.85775   0.77002   0.02362   0.00000  Uiso   1.00
C846   C     0.83848   0.80616   0.04271   0.00000  Uiso   1.00
C847   C     0.87674   0.74835   0.04438   0.00000  Uiso   1.00
C848   C     0.87711   0.76279   0.08353   0.00000  Uiso   1.00
C849   C     0.84448   0.82312   0.08009   0.00000  Uiso   1.00
H850   H     0.83346   0.85261   0.09413   0.00000  Uiso   1.00
H851   H     0.88928   0.74443   0.10017   0.00000  Uiso   1.00
H852   H     0.86654   0.72455   0.47247   0.00000  Uiso   1.00
H853   H     0.84780   0.82470   0.40460   0.00000  Uiso   1.00
H854   H     0.88973   0.71946   0.03095   0.00000  Uiso   1.00
C855   C     0.99343   0.84299   0.23809   0.00000  Uiso   1.00
H856   H     0.68281   0.86073   0.21586   0.00000  Uiso   1.00
C857   C     0.67384   0.82384   0.26221   0.00000  Uiso   1.00
H858   H     0.98517   0.80574   0.28449   0.00000  Uiso   1.00
C859   C     0.84162   0.98674   0.23254   0.00000  Uiso   1.00
C860   C     0.82063   0.67957   0.26296   0.00000  Uiso   1.00
C861   C     0.70604   0.85849   0.03933   0.00000  Uiso   1.00
C862   C     0.68856   0.81253   0.03616   0.00000  Uiso   1.00
C863   C     0.97304   0.80673   0.04920   0.00000  Uiso   1.00
H864   H     0.96103   0.81992   0.08070   0.00000  Uiso   1.00
H865   H     0.95947   0.82175   0.02994   0.00000  Uiso   1.00
H866   H     0.96245   0.77307   0.04645   0.00000  Uiso   1.00
H867   H     0.69957   0.79843   0.00479   0.00000  Uiso   1.00
H868   H     0.70071   0.79557   0.05497   0.00000  Uiso   1.00
H869   H     0.69541   0.87317   0.07043   0.00000  Uiso   1.00
H870   H     0.69137   0.87352   0.02102   0.00000  Uiso   1.00
C871   C     0.86208   0.66848   0.19134   0.00000  Uiso   1.00
C872   C     0.88177   0.96967   0.15709   0.00000  Uiso   1.00
C873   C     0.89538   0.98760   0.11728   0.00000  Uiso   1.00
H874   H     0.86705   0.99679   0.11037   0.00000  Uiso   1.00
H875   H     0.91960   0.68168   0.11807   0.00000  Uiso   1.00
H876   H     0.90994   0.96391   0.09323   0.00000  Uiso   1.00
H877   H     0.91090   0.96005   0.16217   0.00000  Uiso   1.00
H878   H     0.85783   0.94221   0.15509   0.00000  Uiso   1.00
H879   H     0.83662   0.68076   0.18240   0.00000  Uiso   1.00
H880   H     0.88747   0.69443   0.19404   0.00000  Uiso   1.00
N881   N     0.80505   0.66860   0.30277   0.00000  Uiso   1.00
O882   O     0.76382   0.99707   0.31936   0.00000  Uiso   1.00
O883   O     0.83193   0.66956   0.32405   0.00000  Uiso   1.00
C884   C     0.74327   0.93621   0.48892   0.00000  Uiso   1.00
C885   C     0.77522   0.97555   0.48502   0.00000  Uiso   1.00
C886   C     0.75780   0.67696   0.01696   0.00000  Uiso   1.00
H887   H     0.72609   0.68347   0.01480   0.00000  Uiso   1.00
H888   H     0.75412   0.66824   0.04708   0.00000  Uiso   1.00
H889   H     0.78046   0.70551   0.01312   0.00000  Uiso   1.00
H890   H     0.80643   0.96918   0.48856   0.00000  Uiso   1.00
H891   H     0.78105   0.98603   0.45530   0.00000  Uiso   1.00
H892   H     0.71429   0.94051   0.48003   0.00000  Uiso   1.00
H893   H     0.73232   0.93285   0.02109   0.00000  Uiso   1.00
N894   N     0.76339   0.92363   0.40274   0.00000  Uiso   1.00
O895   O     0.79245   0.94809   0.38078   0.00000  Uiso   1.00
O896   O     0.72286   0.92523   0.40603   0.00000  Uiso   1.00
N897   N     0.76014   0.84534   0.08787   0.00000  Uiso   1.00
O898   O     0.75099   0.81023   0.10293   0.00000  Uiso   1.00
O899   O     0.74991   0.87919   0.11085   0.00000  Uiso   1.00
C900   C     0.82012   0.74865   0.42972   0.00000  Uiso   1.00
C901   C     0.77107   0.74521   0.43563   0.00000  Uiso   1.00
C902   C     0.75780   0.71853   0.40110   0.00000  Uiso   1.00
H903   H     0.77398   0.73213   0.37288   0.00000  Uiso   1.00
H904   H     0.76644   0.68672   0.39875   0.00000  Uiso   1.00
H905   H     0.72242   0.71698   0.40616   0.00000  Uiso   1.00
H906   H     0.75399   0.73163   0.46359   0.00000  Uiso   1.00
H907   H     0.75988   0.77590   0.43787   0.00000  Uiso   1.00
H908   H     0.83776   0.76033   0.40109   0.00000  Uiso   1.00
H909   H     0.82899   0.71661   0.42622   0.00000  Uiso   1.00
Zn910  Zn    0.19244   0.14090   0.78277   0.00000  Uiso   1.00
Zn911  Zn    0.13459   0.12378   0.72257   0.00000  Uiso   1.00
Zn912  Zn    0.21166   0.19664   0.71188   0.00000  Uiso   1.00
Zn913  Zn    0.12798   0.20535   0.78277   0.00000  Uiso   1.00
O914   O     0.16667   0.16667   0.75000   0.00000  Uiso   1.00
O915   O     0.06990   0.18960   0.77820   0.00000  Uiso   1.00
O916   O     0.25440   0.15277   0.76767   0.00000  Uiso   1.00
O917   O     0.13800   0.06903   0.73607   0.00000  Uiso   1.00
O918   O     0.20437   0.25527   0.71805   0.00000  Uiso   1.00
O919   O     0.15693   0.12393   0.66625   0.00000  Uiso   1.00
O920   O     0.12687   0.20646   0.83749   0.00000  Uiso   1.00
O921   O     0.21088   0.17493   0.65877   0.00000  Uiso   1.00
O922   O     0.17198   0.16135   0.83749   0.00000  Uiso   1.00
O923   O     0.17849   0.08101   0.77820   0.00000  Uiso   1.00
O924   O     0.14581   0.26136   0.76767   0.00000  Uiso   1.00
O925   O     0.07452   0.13251   0.73607   0.00000  Uiso   1.00
O926   O     0.26785   0.19179   0.71805   0.00000  Uiso   1.00
C927   C     0.05248   0.15978   0.75883   0.00000  Uiso   1.00
C928   C     0.28097   0.17351   0.74135   0.00000  Uiso   1.00
C929   C     0.15630   0.05626   0.75892   0.00000  Uiso   1.00
C930   C     0.17561   0.27719   0.74001   0.00000  Uiso   1.00
C931   C     0.18798   0.14496   0.64390   0.00000  Uiso   1.00
C932   C     0.14632   0.18876   0.85647   0.00000  Uiso   1.00
C933   C     0.13678   0.19788   0.90059   0.00000  Uiso   1.00
C934   C     0.19542   0.13412   0.60106   0.00000  Uiso   1.00
C935   C     0.09698   0.23139   0.96481   0.00000  Uiso   1.00
C936   C     0.10956   0.22810   0.92270   0.00000  Uiso   1.00
C937   C     0.15441   0.17486   0.92106   0.00000  Uiso   1.00
C938   C     0.13814   0.17368   0.96220   0.00000  Uiso   1.00
C939   C     0.10774   0.20101   0.98403   0.00000  Uiso   1.00
C940   C     0.15187   0.14637   0.98263   0.00000  Uiso   1.00
C941   C     0.14654   0.15704   0.52408   0.00000  Uiso   1.00
C942   C     0.11155   0.17981   0.54574   0.00000  Uiso   1.00
C943   C     0.08827   0.19599   0.52442   0.00000  Uiso   1.00
C944   C     0.16710   0.10745   0.96492   0.00000  Uiso   1.00
C945   C     0.18788   0.08734   0.98547   0.00000  Uiso   1.00
C946   C     0.19109   0.10335   0.52362   0.00000  Uiso   1.00
C947   C     0.17182   0.13950   0.54271   0.00000  Uiso   1.00
C948   C     0.21008   0.08168   0.54438   0.00000  Uiso   1.00
C949   C     0.21045   0.09612   0.58353   0.00000  Uiso   1.00
C950   C     0.17781   0.15645   0.58009   0.00000  Uiso   1.00
H951   H     0.16680   0.18594   0.59413   0.00000  Uiso   1.00
H952   H     0.22261   0.07777   0.60017   0.00000  Uiso   1.00
H953   H     0.19987   0.05788   0.97247   0.00000  Uiso   1.00
H954   H     0.18113   0.15803   0.90460   0.00000  Uiso   1.00
H955   H     0.22307   0.05279   0.53095   0.00000  Uiso   1.00
C956   C     0.32677   0.17632   0.73809   0.00000  Uiso   1.00
H957   H     0.01615   0.19406   0.71586   0.00000  Uiso   1.00
C958   C     0.00717   0.15717   0.76221   0.00000  Uiso   1.00
H959   H     0.31850   0.13907   0.78449   0.00000  Uiso   1.00
C960   C     0.17496   0.32008   0.73254   0.00000  Uiso   1.00
C961   C     0.15396   0.01291   0.76296   0.00000  Uiso   1.00
C962   C     0.03938   0.19182   0.53933   0.00000  Uiso   1.00
C963   C     0.02189   0.14586   0.53616   0.00000  Uiso   1.00
C964   C     0.30638   0.14007   0.54920   0.00000  Uiso   1.00
H965   H     0.29436   0.15326   0.58070   0.00000  Uiso   1.00
H966   H     0.29280   0.15509   0.52994   0.00000  Uiso   1.00
H967   H     0.29578   0.10641   0.54645   0.00000  Uiso   1.00
H968   H     0.03291   0.13177   0.50479   0.00000  Uiso   1.00
H969   H     0.03405   0.12891   0.55497   0.00000  Uiso   1.00
H970   H     0.02874   0.20650   0.57043   0.00000  Uiso   1.00
H971   H     0.02471   0.20686   0.52102   0.00000  Uiso   1.00
C972   C     0.19541   0.00182   0.69134   0.00000  Uiso   1.00
C973   C     0.21511   0.30300   0.65709   0.00000  Uiso   1.00
C974   C     0.22872   0.32094   0.61728   0.00000  Uiso   1.00
H975   H     0.20039   0.33013   0.61037   0.00000  Uiso   1.00
H976   H     0.25293   0.01501   0.61807   0.00000  Uiso   1.00
H977   H     0.24327   0.29724   0.59323   0.00000  Uiso   1.00
H978   H     0.24424   0.29338   0.66217   0.00000  Uiso   1.00
H979   H     0.19117   0.27555   0.65509   0.00000  Uiso   1.00
H980   H     0.16995   0.01409   0.68240   0.00000  Uiso   1.00
H981   H     0.22080   0.02776   0.69404   0.00000  Uiso   1.00
N982   N     0.13838   0.00193   0.80277   0.00000  Uiso   1.00
O983   O     0.09716   0.33041   0.81936   0.00000  Uiso   1.00
O984   O     0.16526   0.00289   0.82405   0.00000  Uiso   1.00
C985   C     0.07660   0.26954   0.98892   0.00000  Uiso   1.00
C986   C     0.10855   0.30888   0.98502   0.00000  Uiso   1.00
C987   C     0.09114   0.01029   0.51696   0.00000  Uiso   1.00
H988   H     0.05942   0.01680   0.51480   0.00000  Uiso   1.00
H989   H     0.08745   0.00157   0.54708   0.00000  Uiso   1.00
H990   H     0.11379   0.03884   0.51312   0.00000  Uiso   1.00
H991   H     0.13977   0.30251   0.98856   0.00000  Uiso   1.00
H992   H     0.11438   0.31936   0.95530   0.00000  Uiso   1.00
H993   H     0.04762   0.27385   0.98003   0.00000  Uiso   1.00
H994   H     0.06565   0.26619   0.52109   0.00000  Uiso   1.00
N995   N     0.09673   0.25696   0.90274   0.00000  Uiso   1.00
O996   O     0.12578   0.28142   0.88078   0.00000  Uiso   1.00
O997   O     0.05620   0.25856   0.90603   0.00000  Uiso   1.00
N998   N     0.09348   0.17867   0.58787   0.00000  Uiso   1.00
O999   O     0.08432   0.14357   0.60293   0.00000  Uiso   1.00
O1000  O     0.08324   0.21253   0.61085   0.00000  Uiso   1.00
C1001  C     0.15345   0.08199   0.92972   0.00000  Uiso   1.00
C1002  C     0.10440   0.07854   0.93563   0.00000  Uiso   1.00
C1003  C     0.09114   0.05187   0.90110   0.00000  Uiso   1.00
H1004  H     0.10732   0.06547   0.87288   0.00000  Uiso   1.00
H1005  H     0.09978   0.02006   0.89875   0.00000  Uiso   1.00
H1006  H     0.05576   0.05031   0.90616   0.00000  Uiso   1.00
H1007  H     0.08732   0.06496   0.96359   0.00000  Uiso   1.00
H1008  H     0.09321   0.10924   0.93787   0.00000  Uiso   1.00
H1009  H     0.17109   0.09367   0.90109   0.00000  Uiso   1.00
H1010  H     0.16232   0.04994   0.92622   0.00000  Uiso   1.00
Zn1011 Zn    0.52577   0.14090   0.78277   0.00000  Uiso   1.00
Zn1012 Zn    0.46792   0.12378   0.72257   0.00000  Uiso   1.00
Zn1013 Zn    0.54500   0.19664   0.71188   0.00000  Uiso   1.00
Zn1014 Zn    0.46131   0.20535   0.78277   0.00000  Uiso   1.00
O1015  O     0.50000   0.16667   0.75000   0.00000  Uiso   1.00
O1016  O     0.40323   0.18960   0.77820   0.00000  Uiso   1.00
O1017  O     0.58773   0.15277   0.76767   0.00000  Uiso   1.00
O1018  O     0.47133   0.06903   0.73607   0.00000  Uiso   1.00
O1019  O     0.53771   0.25527   0.71805   0.00000  Uiso   1.00
O1020  O     0.49027   0.12393   0.66625   0.00000  Uiso   1.00
O1021  O     0.46020   0.20646   0.83749   0.00000  Uiso   1.00
O1022  O     0.54421   0.17493   0.65877   0.00000  Uiso   1.00
O1023  O     0.50532   0.16135   0.83749   0.00000  Uiso   1.00
O1024  O     0.51182   0.08101   0.77820   0.00000  Uiso   1.00
O1025  O     0.47914   0.26136   0.76767   0.00000  Uiso   1.00
O1026  O     0.40785   0.13251   0.73607   0.00000  Uiso   1.00
O1027  O     0.60119   0.19179   0.71805   0.00000  Uiso   1.00
C1028  C     0.38581   0.15978   0.75883   0.00000  Uiso   1.00
C1029  C     0.61430   0.17351   0.74135   0.00000  Uiso   1.00
C1030  C     0.48963   0.05626   0.75892   0.00000  Uiso   1.00
C1031  C     0.50894   0.27719   0.74001   0.00000  Uiso   1.00
C1032  C     0.52131   0.14496   0.64390   0.00000  Uiso   1.00
C1033  C     0.47965   0.18876   0.85647   0.00000  Uiso   1.00
C1034  C     0.47011   0.19788   0.90059   0.00000  Uiso   1.00
C1035  C     0.52876   0.13412   0.60106   0.00000  Uiso   1.00
C1036  C     0.43031   0.23139   0.96481   0.00000  Uiso   1.00
C1037  C     0.44290   0.22810   0.92270   0.00000  Uiso   1.00
C1038  C     0.48774   0.17486   0.92106   0.00000  Uiso   1.00
C1039  C     0.47148   0.17368   0.96220   0.00000  Uiso   1.00
C1040  C     0.44107   0.20101   0.98403   0.00000  Uiso   1.00
C1041  C     0.48521   0.14637   0.98263   0.00000  Uiso   1.00
C1042  C     0.47988   0.15704   0.52408   0.00000  Uiso   1.00
C1043  C     0.44488   0.17981   0.54574   0.00000  Uiso   1.00
C1044  C     0.42160   0.19599   0.52442   0.00000  Uiso   1.00
C1045  C     0.50043   0.10745   0.96492   0.00000  Uiso   1.00
C1046  C     0.52121   0.08734   0.98547   0.00000  Uiso   1.00
C1047  C     0.52442   0.10335   0.52362   0.00000  Uiso   1.00
C1048  C     0.50515   0.13950   0.54271   0.00000  Uiso   1.00
C1049  C     0.54341   0.08168   0.54438   0.00000  Uiso   1.00
C1050  C     0.54378   0.09612   0.58353   0.00000  Uiso   1.00
C1051  C     0.51114   0.15645   0.58009   0.00000  Uiso   1.00
H1052  H     0.50013   0.18594   0.59413   0.00000  Uiso   1.00
H1053  H     0.55595   0.07777   0.60017   0.00000  Uiso   1.00
H1054  H     0.53321   0.05788   0.97247   0.00000  Uiso   1.00
H1055  H     0.51447   0.15803   0.90460   0.00000  Uiso   1.00
H1056  H     0.55640   0.05279   0.53095   0.00000  Uiso   1.00
C1057  C     0.66010   0.17632   0.73809   0.00000  Uiso   1.00
H1058  H     0.34948   0.19406   0.71586   0.00000  Uiso   1.00
C1059  C     0.34050   0.15717   0.76221   0.00000  Uiso   1.00
H1060  H     0.65184   0.13907   0.78449   0.00000  Uiso   1.00
C1061  C     0.50829   0.32008   0.73254   0.00000  Uiso   1.00
C1062  C     0.48729   0.01291   0.76296   0.00000  Uiso   1.00
C1063  C     0.37271   0.19182   0.53933   0.00000  Uiso   1.00
C1064  C     0.35522   0.14586   0.53616   0.00000  Uiso   1.00
C1065  C     0.63971   0.14007   0.54920   0.00000  Uiso   1.00
H1066  H     0.62770   0.15326   0.58070   0.00000  Uiso   1.00
H1067  H     0.62614   0.15509   0.52994   0.00000  Uiso   1.00
H1068  H     0.62912   0.10641   0.54645   0.00000  Uiso   1.00
H1069  H     0.36624   0.13177   0.50479   0.00000  Uiso   1.00
H1070  H     0.36738   0.12891   0.55497   0.00000  Uiso   1.00
H1071  H     0.36208   0.20650   0.57043   0.00000  Uiso   1.00
H1072  H     0.35804   0.20686   0.52102   0.00000  Uiso   1.00
C1073  C     0.52875   0.00182   0.69134   0.00000  Uiso   1.00
C1074  C     0.54844   0.30300   0.65709   0.00000  Uiso   1.00
C1075  C     0.56205   0.32094   0.61728   0.00000  Uiso   1.00
H1076  H     0.53372   0.33013   0.61037   0.00000  Uiso   1.00
H1077  H     0.58626   0.01501   0.61807   0.00000  Uiso   1.00
H1078  H     0.57661   0.29724   0.59323   0.00000  Uiso   1.00
H1079  H     0.57757   0.29338   0.66217   0.00000  Uiso   1.00
H1080  H     0.52450   0.27555   0.65509   0.00000  Uiso   1.00
H1081  H     0.50328   0.01409   0.68240   0.00000  Uiso   1.00
H1082  H     0.55413   0.02776   0.69404   0.00000  Uiso   1.00
N1083  N     0.47171   0.00193   0.80277   0.00000  Uiso   1.00
O1084  O     0.43049   0.33041   0.81936   0.00000  Uiso   1.00
O1085  O     0.49860   0.00289   0.82405   0.00000  Uiso   1.00
C1086  C     0.40993   0.26954   0.98892   0.00000  Uiso   1.00
C1087  C     0.44188   0.30888   0.98502   0.00000  Uiso   1.00
C1088  C     0.42447   0.01029   0.51696   0.00000  Uiso   1.00
H1089  H     0.39276   0.01680   0.51480   0.00000  Uiso   1.00
H1090  H     0.42079   0.00157   0.54708   0.00000  Uiso   1.00
H1091  H     0.44713   0.03884   0.51312   0.00000  Uiso   1.00
H1092  H     0.47310   0.30251   0.98856   0.00000  Uiso   1.00
H1093  H     0.44772   0.31936   0.95530   0.00000  Uiso   1.00
H1094  H     0.38095   0.27385   0.98003   0.00000  Uiso   1.00
H1095  H     0.39899   0.26619   0.52109   0.00000  Uiso   1.00
N1096  N     0.43006   0.25696   0.90274   0.00000  Uiso   1.00
O1097  O     0.45912   0.28142   0.88078   0.00000  Uiso   1.00
O1098  O     0.38953   0.25856   0.90603   0.00000  Uiso   1.00
N1099  N     0.42681   0.17867   0.58787   0.00000  Uiso   1.00
O1100  O     0.41765   0.14357   0.60293   0.00000  Uiso   1.00
O1101  O     0.41658   0.21253   0.61085   0.00000  Uiso   1.00
C1102  C     0.48679   0.08199   0.92972   0.00000  Uiso   1.00
C1103  C     0.43773   0.07854   0.93563   0.00000  Uiso   1.00
C1104  C     0.42447   0.05187   0.90110   0.00000  Uiso   1.00
H1105  H     0.44065   0.06547   0.87288   0.00000  Uiso   1.00
H1106  H     0.43311   0.02006   0.89875   0.00000  Uiso   1.00
H1107  H     0.38909   0.05031   0.90616   0.00000  Uiso   1.00
H1108  H     0.42065   0.06496   0.96359   0.00000  Uiso   1.00
H1109  H     0.42654   0.10924   0.93787   0.00000  Uiso   1.00
H1110  H     0.50442   0.09367   0.90109   0.00000  Uiso   1.00
H1111  H     0.49566   0.04994   0.92622   0.00000  Uiso   1.00
Zn1112 Zn    0.85910   0.14090   0.78277   0.00000  Uiso   1.00
Zn1113 Zn    0.80125   0.12378   0.72257   0.00000  Uiso   1.00
Zn1114 Zn    0.87833   0.19664   0.71188   0.00000  Uiso   1.00
Zn1115 Zn    0.79465   0.20535   0.78277   0.00000  Uiso   1.00
O1116  O     0.83333   0.16667   0.75000   0.00000  Uiso   1.00
O1117  O     0.73656   0.18960   0.77820   0.00000  Uiso   1.00
O1118  O     0.92106   0.15277   0.76767   0.00000  Uiso   1.00
O1119  O     0.80467   0.06903   0.73607   0.00000  Uiso   1.00
O1120  O     0.87104   0.25527   0.71805   0.00000  Uiso   1.00
O1121  O     0.82360   0.12393   0.66625   0.00000  Uiso   1.00
O1122  O     0.79354   0.20646   0.83749   0.00000  Uiso   1.00
O1123  O     0.87755   0.17493   0.65877   0.00000  Uiso   1.00
O1124  O     0.83865   0.16135   0.83749   0.00000  Uiso   1.00
O1125  O     0.84515   0.08101   0.77820   0.00000  Uiso   1.00
O1126  O     0.81247   0.26136   0.76767   0.00000  Uiso   1.00
O1127  O     0.74119   0.13251   0.73607   0.00000  Uiso   1.00
O1128  O     0.93452   0.19179   0.71805   0.00000  Uiso   1.00
C1129  C     0.71915   0.15978   0.75883   0.00000  Uiso   1.00
C1130  C     0.94763   0.17351   0.74135   0.00000  Uiso   1.00
C1131  C     0.82297   0.05626   0.75892   0.00000  Uiso   1.00
C1132  C     0.84228   0.27719   0.74001   0.00000  Uiso   1.00
C1133  C     0.85464   0.14496   0.64390   0.00000  Uiso   1.00
C1134  C     0.81299   0.18876   0.85647   0.00000  Uiso   1.00
C1135  C     0.80344   0.19788   0.90059   0.00000  Uiso   1.00
C1136  C     0.86209   0.13412   0.60106   0.00000  Uiso   1.00
C1137  C     0.76364   0.23139   0.96481   0.00000  Uiso   1.00
C1138  C     0.77623   0.22810   0.92270   0.00000  Uiso   1.00
C1139  C     0.82108   0.17486   0.92106   0.00000  Uiso   1.00
C1140  C     0.80481   0.17368   0.96220   0.00000  Uiso   1.00
C1141  C     0.77441   0.20101   0.98403   0.00000  Uiso   1.00
C1142  C     0.81854   0.14637   0.98263   0.00000  Uiso   1.00
C1143  C     0.81321   0.15704   0.52408   0.00000  Uiso   1.00
C1144  C     0.77821   0.17981   0.54574   0.00000  Uiso   1.00
C1145  C     0.75493   0.19599   0.52442   0.00000  Uiso   1.00
C1146  C     0.83377   0.10745   0.96492   0.00000  Uiso   1.00
C1147  C     0.85455   0.08734   0.98547   0.00000  Uiso   1.00
C1148  C     0.85775   0.10335   0.52362   0.00000  Uiso   1.00
C1149  C     0.83848   0.13950   0.54271   0.00000  Uiso   1.00
C1150  C     0.87674   0.08168   0.54438   0.00000  Uiso   1.00
C1151  C     0.87711   0.09612   0.58353   0.00000  Uiso   1.00
C1152  C     0.84448   0.15645   0.58009   0.00000  Uiso   1.00
H1153  H     0.83346   0.18594   0.59413   0.00000  Uiso   1.00
H1154  H     0.88928   0.07777   0.60017   0.00000  Uiso   1.00
H1155  H     0.86654   0.05788   0.97247   0.00000  Uiso   1.00
H1156  H     0.84780   0.15803   0.90460   0.00000  Uiso   1.00
H1157  H     0.88973   0.05279   0.53095   0.00000  Uiso   1.00
C1158  C     0.99343   0.17632   0.73809   0.00000  Uiso   1.00
H1159  H     0.68281   0.19406   0.71586   0.00000  Uiso   1.00
C1160  C     0.67384   0.15717   0.76221   0.00000  Uiso   1.00
H1161  H     0.98517   0.13907   0.78449   0.00000  Uiso   1.00
C1162  C     0.84162   0.32008   0.73254   0.00000  Uiso   1.00
C1163  C     0.82063   0.01291   0.76296   0.00000  Uiso   1.00
C1164  C     0.70604   0.19182   0.53933   0.00000  Uiso   1.00
C1165  C     0.68856   0.14586   0.53616   0.00000  Uiso   1.00
C1166  C     0.97304   0.14007   0.54920   0.00000  Uiso   1.00
H1167  H     0.96103   0.15326   0.58070   0.00000  Uiso   1.00
H1168  H     0.95947   0.15509   0.52994   0.00000  Uiso   1.00
H1169  H     0.96245   0.10641   0.54645   0.00000  Uiso   1.00
H1170  H     0.69957   0.13177   0.50479   0.00000  Uiso   1.00
H1171  H     0.70071   0.12891   0.55497   0.00000  Uiso   1.00
H1172  H     0.69541   0.20650   0.57043   0.00000  Uiso   1.00
H1173  H     0.69137   0.20686   0.52102   0.00000  Uiso   1.00
C1174  C     0.86208   0.00182   0.69134   0.00000  Uiso   1.00
C1175  C     0.88177   0.30300   0.65709   0.00000  Uiso   1.00
C1176  C     0.89538   0.32094   0.61728   0.00000  Uiso   1.00
H1177  H     0.86705   0.33013   0.61037   0.00000  Uiso   1.00
H1178  H     0.91960   0.01501   0.61807   0.00000  Uiso   1.00
H1179  H     0.90994   0.29724   0.59323   0.00000  Uiso   1.00
H1180  H     0.91090   0.29338   0.66217   0.00000  Uiso   1.00
H1181  H     0.85783   0.27555   0.65509   0.00000  Uiso   1.00
H1182  H     0.83662   0.01409   0.68240   0.00000  Uiso   1.00
H1183  H     0.88747   0.02776   0.69404   0.00000  Uiso   1.00
N1184  N     0.80505   0.00193   0.80277   0.00000  Uiso   1.00
O1185  O     0.76382   0.33041   0.81936   0.00000  Uiso   1.00
O1186  O     0.83193   0.00289   0.82405   0.00000  Uiso   1.00
C1187  C     0.74327   0.26954   0.98892   0.00000  Uiso   1.00
C1188  C     0.77522   0.30888   0.98502   0.00000  Uiso   1.00
C1189  C     0.75780   0.01029   0.51696   0.00000  Uiso   1.00
H1190  H     0.72609   0.01680   0.51480   0.00000  Uiso   1.00
H1191  H     0.75412   0.00157   0.54708   0.00000  Uiso   1.00
H1192  H     0.78046   0.03884   0.51312   0.00000  Uiso   1.00
H1193  H     0.80643   0.30251   0.98856   0.00000  Uiso   1.00
H1194  H     0.78105   0.31936   0.95530   0.00000  Uiso   1.00
H1195  H     0.71429   0.27385   0.98003   0.00000  Uiso   1.00
H1196  H     0.73232   0.26619   0.52109   0.00000  Uiso   1.00
N1197  N     0.76339   0.25696   0.90274   0.00000  Uiso   1.00
O1198  O     0.79245   0.28142   0.88078   0.00000  Uiso   1.00
O1199  O     0.72286   0.25856   0.90603   0.00000  Uiso   1.00
N1200  N     0.76014   0.17867   0.58787   0.00000  Uiso   1.00
O1201  O     0.75099   0.14357   0.60293   0.00000  Uiso   1.00
O1202  O     0.74991   0.21253   0.61085   0.00000  Uiso   1.00
C1203  C     0.82012   0.08199   0.92972   0.00000  Uiso   1.00
C1204  C     0.77107   0.07854   0.93563   0.00000  Uiso   1.00
C1205  C     0.75780   0.05187   0.90110   0.00000  Uiso   1.00
H1206  H     0.77398   0.06547   0.87288   0.00000  Uiso   1.00
H1207  H     0.76644   0.02006   0.89875   0.00000  Uiso   1.00
H1208  H     0.72242   0.05031   0.90616   0.00000  Uiso   1.00
H1209  H     0.75399   0.06496   0.96359   0.00000  Uiso   1.00
H1210  H     0.75988   0.10924   0.93787   0.00000  Uiso   1.00
H1211  H     0.83776   0.09367   0.90109   0.00000  Uiso   1.00
H1212  H     0.82899   0.04994   0.92622   0.00000  Uiso   1.00
Zn1213 Zn    0.19244   0.47423   0.78277   0.00000  Uiso   1.00
Zn1214 Zn    0.13459   0.45711   0.72257   0.00000  Uiso   1.00
Zn1215 Zn    0.21166   0.52997   0.71188   0.00000  Uiso   1.00
Zn1216 Zn    0.12798   0.53868   0.78277   0.00000  Uiso   1.00
O1217  O     0.16667   0.50000   0.75000   0.00000  Uiso   1.00
O1218  O     0.06990   0.52293   0.77820   0.00000  Uiso   1.00
O1219  O     0.25440   0.48610   0.76767   0.00000  Uiso   1.00
O1220  O     0.13800   0.40236   0.73607   0.00000  Uiso   1.00
O1221  O     0.20437   0.58860   0.71805   0.00000  Uiso   1.00
O1222  O     0.15693   0.45726   0.66625   0.00000  Uiso   1.00
O1223  O     0.12687   0.53979   0.83749   0.00000  Uiso   1.00
O1224  O     0.21088   0.50826   0.65877   0.00000  Uiso   1.00
O1225  O     0.17198   0.49468   0.83749   0.00000  Uiso   1.00
O1226  O     0.17849   0.41434   0.77820   0.00000  Uiso   1.00
O1227  O     0.14581   0.59469   0.76767   0.00000  Uiso   1.00
O1228  O     0.07452   0.46584   0.73607   0.00000  Uiso   1.00
O1229  O     0.26785   0.52512   0.71805   0.00000  Uiso   1.00
C1230  C     0.05248   0.49312   0.75883   0.00000  Uiso   1.00
C1231  C     0.28097   0.50685   0.74135   0.00000  Uiso   1.00
C1232  C     0.15630   0.38959   0.75892   0.00000  Uiso   1.00
C1233  C     0.17561   0.61052   0.74001   0.00000  Uiso   1.00
C1234  C     0.18798   0.47829   0.64390   0.00000  Uiso   1.00
C1235  C     0.14632   0.52210   0.85647   0.00000  Uiso   1.00
C1236  C     0.13678   0.53121   0.90059   0.00000  Uiso   1.00
C1237  C     0.19542   0.46745   0.60106   0.00000  Uiso   1.00
C1238  C     0.09698   0.56472   0.96481   0.00000  Uiso   1.00
C1239  C     0.10956   0.56144   0.92270   0.00000  Uiso   1.00
C1240  C     0.15441   0.50819   0.92106   0.00000  Uiso   1.00
C1241  C     0.13814   0.50701   0.96220   0.00000  Uiso   1.00
C1242  C     0.10774   0.53434   0.98403   0.00000  Uiso   1.00
C1243  C     0.15187   0.47970   0.98263   0.00000  Uiso   1.00
C1244  C     0.14654   0.49038   0.52408   0.00000  Uiso   1.00
C1245  C     0.11155   0.51314   0.54574   0.00000  Uiso   1.00
C1246  C     0.08827   0.52932   0.52442   0.00000  Uiso   1.00
C1247  C     0.16710   0.44079   0.96492   0.00000  Uiso   1.00
C1248  C     0.18788   0.42067   0.98547   0.00000  Uiso   1.00
C1249  C     0.19109   0.43668   0.52362   0.00000  Uiso   1.00
C1250  C     0.17182   0.47283   0.54271   0.00000  Uiso   1.00
C1251  C     0.21008   0.41502   0.54438   0.00000  Uiso   1.00
C1252  C     0.21045   0.42945   0.58353   0.00000  Uiso   1.00
C1253  C     0.17781   0.48979   0.58009   0.00000  Uiso   1.00
H1254  H     0.16680   0.51927   0.59413   0.00000  Uiso   1.00
H1255  H     0.22261   0.41110   0.60017   0.00000  Uiso   1.00
H1256  H     0.19987   0.39121   0.97247   0.00000  Uiso   1.00
H1257  H     0.18113   0.49137   0.90460   0.00000  Uiso   1.00
H1258  H     0.22307   0.38613   0.53095   0.00000  Uiso   1.00
C1259  C     0.32677   0.50965   0.73809   0.00000  Uiso   1.00
H1260  H     0.01615   0.52739   0.71586   0.00000  Uiso   1.00
C1261  C     0.00717   0.49051   0.76221   0.00000  Uiso   1.00
H1262  H     0.31850   0.47241   0.78449   0.00000  Uiso   1.00
C1263  C     0.17496   0.65341   0.73254   0.00000  Uiso   1.00
C1264  C     0.15396   0.34624   0.76296   0.00000  Uiso   1.00
C1265  C     0.03938   0.52515   0.53933   0.00000  Uiso   1.00
C1266  C     0.02189   0.47920   0.53616   0.00000  Uiso   1.00
C1267  C     0.30638   0.47340   0.54920   0.00000  Uiso   1.00
H1268  H     0.29436   0.48659   0.58070   0.00000  Uiso   1.00
H1269  H     0.29280   0.48842   0.52994   0.00000  Uiso   1.00
H1270  H     0.29578   0.43974   0.54645   0.00000  Uiso   1.00
H1271  H     0.03291   0.46510   0.50479   0.00000  Uiso   1.00
H1272  H     0.03405   0.46224   0.55497   0.00000  Uiso   1.00
H1273  H     0.02874   0.53983   0.57043   0.00000  Uiso   1.00
H1274  H     0.02471   0.54019   0.52102   0.00000  Uiso   1.00
C1275  C     0.19541   0.33515   0.69134   0.00000  Uiso   1.00
C1276  C     0.21511   0.63633   0.65709   0.00000  Uiso   1.00
C1277  C     0.22872   0.65427   0.61728   0.00000  Uiso   1.00
H1278  H     0.20039   0.66346   0.61037   0.00000  Uiso   1.00
H1279  H     0.25293   0.34835   0.61807   0.00000  Uiso   1.00
H1280  H     0.24327   0.63057   0.59323   0.00000  Uiso   1.00
H1281  H     0.24424   0.62672   0.66217   0.00000  Uiso   1.00
H1282  H     0.19117   0.60888   0.65509   0.00000  Uiso   1.00
H1283  H     0.16995   0.34743   0.68240   0.00000  Uiso   1.00
H1284  H     0.22080   0.36110   0.69404   0.00000  Uiso   1.00
N1285  N     0.13838   0.33527   0.80277   0.00000  Uiso   1.00
O1286  O     0.09716   0.66374   0.81936   0.00000  Uiso   1.00
O1287  O     0.16526   0.33623   0.82405   0.00000  Uiso   1.00
C1288  C     0.07660   0.60287   0.98892   0.00000  Uiso   1.00
C1289  C     0.10855   0.64222   0.98502   0.00000  Uiso   1.00
C1290  C     0.09114   0.34363   0.51696   0.00000  Uiso   1.00
H1291  H     0.05942   0.35013   0.51480   0.00000  Uiso   1.00
H1292  H     0.08745   0.33491   0.54708   0.00000  Uiso   1.00
H1293  H     0.11379   0.37217   0.51312   0.00000  Uiso   1.00
H1294  H     0.13977   0.63584   0.98856   0.00000  Uiso   1.00
H1295  H     0.11438   0.65270   0.95530   0.00000  Uiso   1.00
H1296  H     0.04762   0.60718   0.98003   0.00000  Uiso   1.00
H1297  H     0.06565   0.59952   0.52109   0.00000  Uiso   1.00
N1298  N     0.09673   0.59029   0.90274   0.00000  Uiso   1.00
O1299  O     0.12578   0.61475   0.88078   0.00000  Uiso   1.00
O1300  O     0.05620   0.59189   0.90603   0.00000  Uiso   1.00
N1301  N     0.09348   0.51201   0.58787   0.00000  Uiso   1.00
O1302  O     0.08432   0.47690   0.60293   0.00000  Uiso   1.00
O1303  O     0.08324   0.54586   0.61085   0.00000  Uiso   1.00
C1304  C     0.15345   0.41532   0.92972   0.00000  Uiso   1.00
C1305  C     0.10440   0.41188   0.93563   0.00000  Uiso   1.00
C1306  C     0.09114   0.38520   0.90110   0.00000  Uiso   1.00
H1307  H     0.10732   0.39880   0.87288   0.00000  Uiso   1.00
H1308  H     0.09978   0.35339   0.89875   0.00000  Uiso   1.00
H1309  H     0.05576   0.38365   0.90616   0.00000  Uiso   1.00
H1310  H     0.08732   0.39829   0.96359   0.00000  Uiso   1.00
H1311  H     0.09321   0.44257   0.93787   0.00000  Uiso   1.00
H1312  H     0.17109   0.42700   0.90109   0.00000  Uiso   1.00
H1313  H     0.16232   0.38328   0.92622   0.00000  Uiso   1.00
Zn1314 Zn    0.52577   0.47423   0.78277   0.00000  Uiso   1.00
Zn1315 Zn    0.46792   0.45711   0.72257   0.00000  Uiso   1.00
Zn1316 Zn    0.54500   0.52997   0.71188   0.00000  Uiso   1.00
Zn1317 Zn    0.46131   0.53868   0.78277   0.00000  Uiso   1.00
O1318  O     0.50000   0.50000   0.75000   0.00000  Uiso   1.00
O1319  O     0.40323   0.52293   0.77820   0.00000  Uiso   1.00
O1320  O     0.58773   0.48610   0.76767   0.00000  Uiso   1.00
O1321  O     0.47133   0.40236   0.73607   0.00000  Uiso   1.00
O1322  O     0.53771   0.58860   0.71805   0.00000  Uiso   1.00
O1323  O     0.49027   0.45726   0.66625   0.00000  Uiso   1.00
O1324  O     0.46020   0.53979   0.83749   0.00000  Uiso   1.00
O1325  O     0.54421   0.50826   0.65877   0.00000  Uiso   1.00
O1326  O     0.50532   0.49468   0.83749   0.00000  Uiso   1.00
O1327  O     0.51182   0.41434   0.77820   0.00000  Uiso   1.00
O1328  O     0.47914   0.59469   0.76767   0.00000  Uiso   1.00
O1329  O     0.40785   0.46584   0.73607   0.00000  Uiso   1.00
O1330  O     0.60119   0.52512   0.71805   0.00000  Uiso   1.00
C1331  C     0.38581   0.49312   0.75883   0.00000  Uiso   1.00
C1332  C     0.61430   0.50685   0.74135   0.00000  Uiso   1.00
C1333  C     0.48963   0.38959   0.75892   0.00000  Uiso   1.00
C1334  C     0.50894   0.61052   0.74001   0.00000  Uiso   1.00
C1335  C     0.52131   0.47829   0.64390   0.00000  Uiso   1.00
C1336  C     0.47965   0.52210   0.85647   0.00000  Uiso   1.00
C1337  C     0.47011   0.53121   0.90059   0.00000  Uiso   1.00
C1338  C     0.52876   0.46745   0.60106   0.00000  Uiso   1.00
C1339  C     0.43031   0.56472   0.96481   0.00000  Uiso   1.00
C1340  C     0.44290   0.56144   0.92270   0.00000  Uiso   1.00
C1341  C     0.48774   0.50819   0.92106   0.00000  Uiso   1.00
C1342  C     0.47148   0.50701   0.96220   0.00000  Uiso   1.00
C1343  C     0.44107   0.53434   0.98403   0.00000  Uiso   1.00
C1344  C     0.48521   0.47970   0.98263   0.00000  Uiso   1.00
C1345  C     0.47988   0.49038   0.52408   0.00000  Uiso   1.00
C1346  C     0.44488   0.51314   0.54574   0.00000  Uiso   1.00
C1347  C     0.42160   0.52932   0.52442   0.00000  Uiso   1.00
C1348  C     0.50043   0.44079   0.96492   0.00000  Uiso   1.00
C1349  C     0.52121   0.42067   0.98547   0.00000  Uiso   1.00
C1350  C     0.52442   0.43668   0.52362   0.00000  Uiso   1.00
C1351  C     0.50515   0.47283   0.54271   0.00000  Uiso   1.00
C1352  C     0.54341   0.41502   0.54438   0.00000  Uiso   1.00
C1353  C     0.54378   0.42945   0.58353   0.00000  Uiso   1.00
C1354  C     0.51114   0.48979   0.58009   0.00000  Uiso   1.00
H1355  H     0.50013   0.51927   0.59413   0.00000  Uiso   1.00
H1356  H     0.55595   0.41110   0.60017   0.00000  Uiso   1.00
H1357  H     0.53321   0.39121   0.97247   0.00000  Uiso   1.00
H1358  H     0.51447   0.49137   0.90460   0.00000  Uiso   1.00
H1359  H     0.55640   0.38613   0.53095   0.00000  Uiso   1.00
C1360  C     0.66010   0.50965   0.73809   0.00000  Uiso   1.00
H1361  H     0.34948   0.52739   0.71586   0.00000  Uiso   1.00
C1362  C     0.34050   0.49051   0.76221   0.00000  Uiso   1.00
H1363  H     0.65184   0.47241   0.78449   0.00000  Uiso   1.00
C1364  C     0.50829   0.65341   0.73254   0.00000  Uiso   1.00
C1365  C     0.48729   0.34624   0.76296   0.00000  Uiso   1.00
C1366  C     0.37271   0.52515   0.53933   0.00000  Uiso   1.00
C1367  C     0.35522   0.47920   0.53616   0.00000  Uiso   1.00
C1368  C     0.63971   0.47340   0.54920   0.00000  Uiso   1.00
H1369  H     0.62770   0.48659   0.58070   0.00000  Uiso   1.00
H1370  H     0.62614   0.48842   0.52994   0.00000  Uiso   1.00
H1371  H     0.62912   0.43974   0.54645   0.00000  Uiso   1.00
H1372  H     0.36624   0.46510   0.50479   0.00000  Uiso   1.00
H1373  H     0.36738   0.46224   0.55497   0.00000  Uiso   1.00
H1374  H     0.36208   0.53983   0.57043   0.00000  Uiso   1.00
H1375  H     0.35804   0.54019   0.52102   0.00000  Uiso   1.00
C1376  C     0.52875   0.33515   0.69134   0.00000  Uiso   1.00
C1377  C     0.54844   0.63633   0.65709   0.00000  Uiso   1.00
C1378  C     0.56205   0.65427   0.61728   0.00000  Uiso   1.00
H1379  H     0.53372   0.66346   0.61037   0.00000  Uiso   1.00
H1380  H     0.58626   0.34835   0.61807   0.00000  Uiso   1.00
H1381  H     0.57661   0.63057   0.59323   0.00000  Uiso   1.00
H1382  H     0.57757   0.62672   0.66217   0.00000  Uiso   1.00
H1383  H     0.52450   0.60888   0.65509   0.00000  Uiso   1.00
H1384  H     0.50328   0.34743   0.68240   0.00000  Uiso   1.00
H1385  H     0.55413   0.36110   0.69404   0.00000  Uiso   1.00
N1386  N     0.47171   0.33527   0.80277   0.00000  Uiso   1.00
O1387  O     0.43049   0.66374   0.81936   0.00000  Uiso   1.00
O1388  O     0.49860   0.33623   0.82405   0.00000  Uiso   1.00
C1389  C     0.40993   0.60287   0.98892   0.00000  Uiso   1.00
C1390  C     0.44188   0.64222   0.98502   0.00000  Uiso   1.00
C1391  C     0.42447   0.34363   0.51696   0.00000  Uiso   1.00
H1392  H     0.39276   0.35013   0.51480   0.00000  Uiso   1.00
H1393  H     0.42079   0.33491   0.54708   0.00000  Uiso   1.00
H1394  H     0.44713   0.37217   0.51312   0.00000  Uiso   1.00
H1395  H     0.47310   0.63584   0.98856   0.00000  Uiso   1.00
H1396  H     0.44772   0.65270   0.95530   0.00000  Uiso   1.00
H1397  H     0.38095   0.60718   0.98003   0.00000  Uiso   1.00
H1398  H     0.39899   0.59952   0.52109   0.00000  Uiso   1.00
N1399  N     0.43006   0.59029   0.90274   0.00000  Uiso   1.00
O1400  O     0.45912   0.61475   0.88078   0.00000  Uiso   1.00
O1401  O     0.38953   0.59189   0.90603   0.00000  Uiso   1.00
N1402  N     0.42681   0.51201   0.58787   0.00000  Uiso   1.00
O1403  O     0.41765   0.47690   0.60293   0.00000  Uiso   1.00
O1404  O     0.41658   0.54586   0.61085   0.00000  Uiso   1.00
C1405  C     0.48679   0.41532   0.92972   0.00000  Uiso   1.00
C1406  C     0.43773   0.41188   0.93563   0.00000  Uiso   1.00
C1407  C     0.42447   0.38520   0.90110   0.00000  Uiso   1.00
H1408  H     0.44065   0.39880   0.87288   0.00000  Uiso   1.00
H1409  H     0.43311   0.35339   0.89875   0.00000  Uiso   1.00
H1410  H     0.38909   0.38365   0.90616   0.00000  Uiso   1.00
H1411  H     0.42065   0.39829   0.96359   0.00000  Uiso   1.00
H1412  H     0.42654   0.44257   0.93787   0.00000  Uiso   1.00
H1413  H     0.50442   0.42700   0.90109   0.00000  Uiso   1.00
H1414  H     0.49566   0.38328   0.92622   0.00000  Uiso   1.00
Zn1415 Zn    0.85910   0.47423   0.78277   0.00000  Uiso   1.00
Zn1416 Zn    0.80125   0.45711   0.72257   0.00000  Uiso   1.00
Zn1417 Zn    0.87833   0.52997   0.71188   0.00000  Uiso   1.00
Zn1418 Zn    0.79465   0.53868   0.78277   0.00000  Uiso   1.00
O1419  O     0.83333   0.50000   0.75000   0.00000  Uiso   1.00
O1420  O     0.73656   0.52293   0.77820   0.00000  Uiso   1.00
O1421  O     0.92106   0.48610   0.76767   0.00000  Uiso   1.00
O1422  O     0.80467   0.40236   0.73607   0.00000  Uiso   1.00
O1423  O     0.87104   0.58860   0.71805   0.00000  Uiso   1.00
O1424  O     0.82360   0.45726   0.66625   0.00000  Uiso   1.00
O1425  O     0.79354   0.53979   0.83749   0.00000  Uiso   1.00
O1426  O     0.87755   0.50826   0.65877   0.00000  Uiso   1.00
O1427  O     0.83865   0.49468   0.83749   0.00000  Uiso   1.00
O1428  O     0.84515   0.41434   0.77820   0.00000  Uiso   1.00
O1429  O     0.81247   0.59469   0.76767   0.00000  Uiso   1.00
O1430  O     0.74119   0.46584   0.73607   0.00000  Uiso   1.00
O1431  O     0.93452   0.52512   0.71805   0.00000  Uiso   1.00
C1432  C     0.71915   0.49312   0.75883   0.00000  Uiso   1.00
C1433  C     0.94763   0.50685   0.74135   0.00000  Uiso   1.00
C1434  C     0.82297   0.38959   0.75892   0.00000  Uiso   1.00
C1435  C     0.84228   0.61052   0.74001   0.00000  Uiso   1.00
C1436  C     0.85464   0.47829   0.64390   0.00000  Uiso   1.00
C1437  C     0.81299   0.52210   0.85647   0.00000  Uiso   1.00
C1438  C     0.80344   0.53121   0.90059   0.00000  Uiso   1.00
C1439  C     0.86209   0.46745   0.60106   0.00000  Uiso   1.00
C1440  C     0.76364   0.56472   0.96481   0.00000  Uiso   1.00
C1441  C     0.77623   0.56144   0.92270   0.00000  Uiso   1.00
C1442  C     0.82108   0.50819   0.92106   0.00000  Uiso   1.00
C1443  C     0.80481   0.50701   0.96220   0.00000  Uiso   1.00
C1444  C     0.77441   0.53434   0.98403   0.00000  Uiso   1.00
C1445  C     0.81854   0.47970   0.98263   0.00000  Uiso   1.00
C1446  C     0.81321   0.49038   0.52408   0.00000  Uiso   1.00
C1447  C     0.77821   0.51314   0.54574   0.00000  Uiso   1.00
C1448  C     0.75493   0.52932   0.52442   0.00000  Uiso   1.00
C1449  C     0.83377   0.44079   0.96492   0.00000  Uiso   1.00
C1450  C     0.85455   0.42067   0.98547   0.00000  Uiso   1.00
C1451  C     0.85775   0.43668   0.52362   0.00000  Uiso   1.00
C1452  C     0.83848   0.47283   0.54271   0.00000  Uiso   1.00
C1453  C     0.87674   0.41502   0.54438   0.00000  Uiso   1.00
C1454  C     0.87711   0.42945   0.58353   0.00000  Uiso   1.00
C1455  C     0.84448   0.48979   0.58009   0.00000  Uiso   1.00
H1456  H     0.83346   0.51927   0.59413   0.00000  Uiso   1.00
H1457  H     0.88928   0.41110   0.60017   0.00000  Uiso   1.00
H1458  H     0.86654   0.39121   0.97247   0.00000  Uiso   1.00
H1459  H     0.84780   0.49137   0.90460   0.00000  Uiso   1.00
H1460  H     0.88973   0.38613   0.53095   0.00000  Uiso   1.00
C1461  C     0.99343   0.50965   0.73809   0.00000  Uiso   1.00
H1462  H     0.68281   0.52739   0.71586   0.00000  Uiso   1.00
C1463  C     0.67384   0.49051   0.76221   0.00000  Uiso   1.00
H1464  H     0.98517   0.47241   0.78449   0.00000  Uiso   1.00
C1465  C     0.84162   0.65341   0.73254   0.00000  Uiso   1.00
C1466  C     0.82063   0.34624   0.76296   0.00000  Uiso   1.00
C1467  C     0.70604   0.52515   0.53933   0.00000  Uiso   1.00
C1468  C     0.68856   0.47920   0.53616   0.00000  Uiso   1.00
C1469  C     0.97304   0.47340   0.54920   0.00000  Uiso   1.00
H1470  H     0.96103   0.48659   0.58070   0.00000  Uiso   1.00
H1471  H     0.95947   0.48842   0.52994   0.00000  Uiso   1.00
H1472  H     0.96245   0.43974   0.54645   0.00000  Uiso   1.00
H1473  H     0.69957   0.46510   0.50479   0.00000  Uiso   1.00
H1474  H     0.70071   0.46224   0.55497   0.00000  Uiso   1.00
H1475  H     0.69541   0.53983   0.57043   0.00000  Uiso   1.00
H1476  H     0.69137   0.54019   0.52102   0.00000  Uiso   1.00
C1477  C     0.86208   0.33515   0.69134   0.00000  Uiso   1.00
C1478  C     0.88177   0.63633   0.65709   0.00000  Uiso   1.00
C1479  C     0.89538   0.65427   0.61728   0.00000  Uiso   1.00
H1480  H     0.86705   0.66346   0.61037   0.00000  Uiso   1.00
H1481  H     0.91960   0.34835   0.61807   0.00000  Uiso   1.00
H1482  H     0.90994   0.63057   0.59323   0.00000  Uiso   1.00
H1483  H     0.91090   0.62672   0.66217   0.00000  Uiso   1.00
H1484  H     0.85783   0.60888   0.65509   0.00000  Uiso   1.00
H1485  H     0.83662   0.34743   0.68240   0.00000  Uiso   1.00
H1486  H     0.88747   0.36110   0.69404   0.00000  Uiso   1.00
N1487  N     0.80505   0.33527   0.80277   0.00000  Uiso   1.00
O1488  O     0.76382   0.66374   0.81936   0.00000  Uiso   1.00
O1489  O     0.83193   0.33623   0.82405   0.00000  Uiso   1.00
C1490  C     0.74327   0.60287   0.98892   0.00000  Uiso   1.00
C1491  C     0.77522   0.64222   0.98502   0.00000  Uiso   1.00
C1492  C     0.75780   0.34363   0.51696   0.00000  Uiso   1.00
H1493  H     0.72609   0.35013   0.51480   0.00000  Uiso   1.00
H1494  H     0.75412   0.33491   0.54708   0.00000  Uiso   1.00
H1495  H     0.78046   0.37217   0.51312   0.00000  Uiso   1.00
H1496  H     0.80643   0.63584   0.98856   0.00000  Uiso   1.00
H1497  H     0.78105   0.65270   0.95530   0.00000  Uiso   1.00
H1498  H     0.71429   0.60718   0.98003   0.00000  Uiso   1.00
H1499  H     0.73232   0.59952   0.52109   0.00000  Uiso   1.00
N1500  N     0.76339   0.59029   0.90274   0.00000  Uiso   1.00
O1501  O     0.79245   0.61475   0.88078   0.00000  Uiso   1.00
O1502  O     0.72286   0.59189   0.90603   0.00000  Uiso   1.00
N1503  N     0.76014   0.51201   0.58787   0.00000  Uiso   1.00
O1504  O     0.75099   0.47690   0.60293   0.00000  Uiso   1.00
O1505  O     0.74991   0.54586   0.61085   0.00000  Uiso   1.00
C1506  C     0.82012   0.41532   0.92972   0.00000  Uiso   1.00
C1507  C     0.77107   0.41188   0.93563   0.00000  Uiso   1.00
C1508  C     0.75780   0.38520   0.90110   0.00000  Uiso   1.00
H1509  H     0.77398   0.39880   0.87288   0.00000  Uiso   1.00
H1510  H     0.76644   0.35339   0.89875   0.00000  Uiso   1.00
H1511  H     0.72242   0.38365   0.90616   0.00000  Uiso   1.00
H1512  H     0.75399   0.39829   0.96359   0.00000  Uiso   1.00
H1513  H     0.75988   0.44257   0.93787   0.00000  Uiso   1.00
H1514  H     0.83776   0.42700   0.90109   0.00000  Uiso   1.00
H1515  H     0.82899   0.38328   0.92622   0.00000  Uiso   1.00
Zn1516 Zn    0.19244   0.80756   0.78277   0.00000  Uiso   1.00
Zn1517 Zn    0.13459   0.79044   0.72257   0.00000  Uiso   1.00
Zn1518 Zn    0.21166   0.86331   0.71188   0.00000  Uiso   1.00
Zn1519 Zn    0.12798   0.87202   0.78277   0.00000  Uiso   1.00
O1520  O     0.16667   0.83333   0.75000   0.00000  Uiso   1.00
O1521  O     0.06990   0.85627   0.77820   0.00000  Uiso   1.00
O1522  O     0.25440   0.81944   0.76767   0.00000  Uiso   1.00
O1523  O     0.13800   0.73570   0.73607   0.00000  Uiso   1.00
O1524  O     0.20437   0.92193   0.71805   0.00000  Uiso   1.00
O1525  O     0.15693   0.79060   0.66625   0.00000  Uiso   1.00
O1526  O     0.12687   0.87313   0.83749   0.00000  Uiso   1.00
O1527  O     0.21088   0.84159   0.65877   0.00000  Uiso   1.00
O1528  O     0.17198   0.82802   0.83749   0.00000  Uiso   1.00
O1529  O     0.17849   0.74768   0.77820   0.00000  Uiso   1.00
O1530  O     0.14581   0.92803   0.76767   0.00000  Uiso   1.00
O1531  O     0.07452   0.79917   0.73607   0.00000  Uiso   1.00
O1532  O     0.26785   0.85845   0.71805   0.00000  Uiso   1.00
C1533  C     0.05248   0.82645   0.75883   0.00000  Uiso   1.00
C1534  C     0.28097   0.84018   0.74135   0.00000  Uiso   1.00
C1535  C     0.15630   0.72293   0.75892   0.00000  Uiso   1.00
C1536  C     0.17561   0.94386   0.74001   0.00000  Uiso   1.00
C1537  C     0.18798   0.81163   0.64390   0.00000  Uiso   1.00
C1538  C     0.14632   0.85543   0.85647   0.00000  Uiso   1.00
C1539  C     0.13678   0.86455   0.90059   0.00000  Uiso   1.00
C1540  C     0.19542   0.80078   0.60106   0.00000  Uiso   1.00
C1541  C     0.09698   0.89806   0.96481   0.00000  Uiso   1.00
C1542  C     0.10956   0.89477   0.92270   0.00000  Uiso   1.00
C1543  C     0.15441   0.84152   0.92106   0.00000  Uiso   1.00
C1544  C     0.13814   0.84035   0.96220   0.00000  Uiso   1.00
C1545  C     0.10774   0.86767   0.98403   0.00000  Uiso   1.00
C1546  C     0.15187   0.81304   0.98263   0.00000  Uiso   1.00
C1547  C     0.14654   0.82371   0.52408   0.00000  Uiso   1.00
C1548  C     0.11155   0.84647   0.54574   0.00000  Uiso   1.00
C1549  C     0.08827   0.86266   0.52442   0.00000  Uiso   1.00
C1550  C     0.16710   0.77412   0.96492   0.00000  Uiso   1.00
C1551  C     0.18788   0.75400   0.98547   0.00000  Uiso   1.00
C1552  C     0.19109   0.77002   0.52362   0.00000  Uiso   1.00
C1553  C     0.17182   0.80616   0.54271   0.00000  Uiso   1.00
C1554  C     0.21008   0.74835   0.54438   0.00000  Uiso   1.00
C1555  C     0.21045   0.76279   0.58353   0.00000  Uiso   1.00
C1556  C     0.17781   0.82312   0.58009   0.00000  Uiso   1.00
H1557  H     0.16680   0.85261   0.59413   0.00000  Uiso   1.00
H1558  H     0.22261   0.74443   0.60017   0.00000  Uiso   1.00
H1559  H     0.19987   0.72455   0.97247   0.00000  Uiso   1.00
H1560  H     0.18113   0.82470   0.90460   0.00000  Uiso   1.00
H1561  H     0.22307   0.71946   0.53095   0.00000  Uiso   1.00
C1562  C     0.32677   0.84299   0.73809   0.00000  Uiso   1.00
H1563  H     0.01615   0.86073   0.71586   0.00000  Uiso   1.00
C1564  C     0.00717   0.82384   0.76221   0.00000  Uiso   1.00
H1565  H     0.31850   0.80574   0.78449   0.00000  Uiso   1.00
C1566  C     0.17496   0.98674   0.73254   0.00000  Uiso   1.00
C1567  C     0.15396   0.67957   0.76296   0.00000  Uiso   1.00
C1568  C     0.03938   0.85849   0.53933   0.00000  Uiso   1.00
C1569  C     0.02189   0.81253   0.53616   0.00000  Uiso   1.00
C1570  C     0.30638   0.80673   0.54920   0.00000  Uiso   1.00
H1571  H     0.29436   0.81992   0.58070   0.00000  Uiso   1.00
H1572  H     0.29280   0.82175   0.52994   0.00000  Uiso   1.00
H1573  H     0.29578   0.77307   0.54645   0.00000  Uiso   1.00
H1574  H     0.03291   0.79843   0.50479   0.00000  Uiso   1.00
H1575  H     0.03405   0.79557   0.55497   0.00000  Uiso   1.00
H1576  H     0.02874   0.87317   0.57043   0.00000  Uiso   1.00
H1577  H     0.02471   0.87352   0.52102   0.00000  Uiso   1.00
C1578  C     0.19541   0.66848   0.69134   0.00000  Uiso   1.00
C1579  C     0.21511   0.96967   0.65709   0.00000  Uiso   1.00
C1580  C     0.22872   0.98760   0.61728   0.00000  Uiso   1.00
H1581  H     0.20039   0.99679   0.61037   0.00000  Uiso   1.00
H1582  H     0.25293   0.68168   0.61807   0.00000  Uiso   1.00
H1583  H     0.24327   0.96391   0.59323   0.00000  Uiso   1.00
H1584  H     0.24424   0.96005   0.66217   0.00000  Uiso   1.00
H1585  H     0.19117   0.94221   0.65509   0.00000  Uiso   1.00
H1586  H     0.16995   0.68076   0.68240   0.00000  Uiso   1.00
H1587  H     0.22080   0.69443   0.69404   0.00000  Uiso   1.00
N1588  N     0.13838   0.66860   0.80277   0.00000  Uiso   1.00
O1589  O     0.09716   0.99707   0.81936   0.00000  Uiso   1.00
O1590  O     0.16526   0.66956   0.82405   0.00000  Uiso   1.00
C1591  C     0.07660   0.93621   0.98892   0.00000  Uiso   1.00
C1592  C     0.10855   0.97555   0.98502   0.00000  Uiso   1.00
C1593  C     0.09114   0.67696   0.51696   0.00000  Uiso   1.00
H1594  H     0.05942   0.68347   0.51480   0.00000  Uiso   1.00
H1595  H     0.08745   0.66824   0.54708   0.00000  Uiso   1.00
H1596  H     0.11379   0.70551   0.51312   0.00000  Uiso   1.00
H1597  H     0.13977   0.96918   0.98856   0.00000  Uiso   1.00
H1598  H     0.11438   0.98603   0.95530   0.00000  Uiso   1.00
H1599  H     0.04762   0.94051   0.98003   0.00000  Uiso   1.00
H1600  H     0.06565   0.93285   0.52109   0.00000  Uiso   1.00
N1601  N     0.09673   0.92363   0.90274   0.00000  Uiso   1.00
O1602  O     0.12578   0.94809   0.88078   0.00000  Uiso   1.00
O1603  O     0.05620   0.92523   0.90603   0.00000  Uiso   1.00
N1604  N     0.09348   0.84534   0.58787   0.00000  Uiso   1.00
O1605  O     0.08432   0.81023   0.60293   0.00000  Uiso   1.00
O1606  O     0.08324   0.87919   0.61085   0.00000  Uiso   1.00
C1607  C     0.15345   0.74865   0.92972   0.00000  Uiso   1.00
C1608  C     0.10440   0.74521   0.93563   0.00000  Uiso   1.00
C1609  C     0.09114   0.71853   0.90110   0.00000  Uiso   1.00
H1610  H     0.10732   0.73213   0.87288   0.00000  Uiso   1.00
H1611  H     0.09978   0.68672   0.89875   0.00000  Uiso   1.00
H1612  H     0.05576   0.71698   0.90616   0.00000  Uiso   1.00
H1613  H     0.08732   0.73163   0.96359   0.00000  Uiso   1.00
H1614  H     0.09321   0.77590   0.93787   0.00000  Uiso   1.00
H1615  H     0.17109   0.76033   0.90109   0.00000  Uiso   1.00
H1616  H     0.16232   0.71661   0.92622   0.00000  Uiso   1.00
Zn1617 Zn    0.52577   0.80756   0.78277   0.00000  Uiso   1.00
Zn1618 Zn    0.46792   0.79044   0.72257   0.00000  Uiso   1.00
Zn1619 Zn    0.54500   0.86331   0.71188   0.00000  Uiso   1.00
Zn1620 Zn    0.46131   0.87202   0.78277   0.00000  Uiso   1.00
O1621  O     0.50000   0.83333   0.75000   0.00000  Uiso   1.00
O1622  O     0.40323   0.85627   0.77820   0.00000  Uiso   1.00
O1623  O     0.58773   0.81944   0.76767   0.00000  Uiso   1.00
O1624  O     0.47133   0.73570   0.73607   0.00000  Uiso   1.00
O1625  O     0.53771   0.92193   0.71805   0.00000  Uiso   1.00
O1626  O     0.49027   0.79060   0.66625   0.00000  Uiso   1.00
O1627  O     0.46020   0.87313   0.83749   0.00000  Uiso   1.00
O1628  O     0.54421   0.84159   0.65877   0.00000  Uiso   1.00
O1629  O     0.50532   0.82802   0.83749   0.00000  Uiso   1.00
O1630  O     0.51182   0.74768   0.77820   0.00000  Uiso   1.00
O1631  O     0.47914   0.92803   0.76767   0.00000  Uiso   1.00
O1632  O     0.40785   0.79917   0.73607   0.00000  Uiso   1.00
O1633  O     0.60119   0.85845   0.71805   0.00000  Uiso   1.00
C1634  C     0.38581   0.82645   0.75883   0.00000  Uiso   1.00
C1635  C     0.61430   0.84018   0.74135   0.00000  Uiso   1.00
C1636  C     0.48963   0.72293   0.75892   0.00000  Uiso   1.00
C1637  C     0.50894   0.94386   0.74001   0.00000  Uiso   1.00
C1638  C     0.52131   0.81163   0.64390   0.00000  Uiso   1.00
C1639  C     0.47965   0.85543   0.85647   0.00000  Uiso   1.00
C1640  C     0.47011   0.86455   0.90059   0.00000  Uiso   1.00
C1641  C     0.52876   0.80078   0.60106   0.00000  Uiso   1.00
C1642  C     0.43031   0.89806   0.96481   0.00000  Uiso   1.00
C1643  C     0.44290   0.89477   0.92270   0.00000  Uiso   1.00
C1644  C     0.48774   0.84152   0.92106   0.00000  Uiso   1.00
C1645  C     0.47148   0.84035   0.96220   0.00000  Uiso   1.00
C1646  C     0.44107   0.86767   0.98403   0.00000  Uiso   1.00
C1647  C     0.48521   0.81304   0.98263   0.00000  Uiso   1.00
C1648  C     0.47988   0.82371   0.52408   0.00000  Uiso   1.00
C1649  C     0.44488   0.84647   0.54574   0.00000  Uiso   1.00
C1650  C     0.42160   0.86266   0.52442   0.00000  Uiso   1.00
C1651  C     0.50043   0.77412   0.96492   0.00000  Uiso   1.00
C1652  C     0.52121   0.75400   0.98547   0.00000  Uiso   1.00
C1653  C     0.52442   0.77002   0.52362   0.00000  Uiso   1.00
C1654  C     0.50515   0.80616   0.54271   0.00000  Uiso   1.00
C1655  C     0.54341   0.74835   0.54438   0.00000  Uiso   1.00
C1656  C     0.54378   0.76279   0.58353   0.00000  Uiso   1.00
C1657  C     0.51114   0.82312   0.58009   0.00000  Uiso   1.00
H1658  H     0.50013   0.85261   0.59413   0.00000  Uiso   1.00
H1659  H     0.55595   0.74443   0.60017   0.00000  Uiso   1.00
H1660  H     0.53321   0.72455   0.97247   0.00000  Uiso   1.00
H1661  H     0.51447   0.82470   0.90460   0.00000  Uiso   1.00
H1662  H     0.55640   0.71946   0.53095   0.00000  Uiso   1.00
C1663  C     0.66010   0.84299   0.73809   0.00000  Uiso   1.00
H1664  H     0.34948   0.86073   0.71586   0.00000  Uiso   1.00
C1665  C     0.34050   0.82384   0.76221   0.00000  Uiso   1.00
H1666  H     0.65184   0.80574   0.78449   0.00000  Uiso   1.00
C1667  C     0.50829   0.98674   0.73254   0.00000  Uiso   1.00
C1668  C     0.48729   0.67957   0.76296   0.00000  Uiso   1.00
C1669  C     0.37271   0.85849   0.53933   0.00000  Uiso   1.00
C1670  C     0.35522   0.81253   0.53616   0.00000  Uiso   1.00
C1671  C     0.63971   0.80673   0.54920   0.00000  Uiso   1.00
H1672  H     0.62770   0.81992   0.58070   0.00000  Uiso   1.00
H1673  H     0.62614   0.82175   0.52994   0.00000  Uiso   1.00
H1674  H     0.62912   0.77307   0.54645   0.00000  Uiso   1.00
H1675  H     0.36624   0.79843   0.50479   0.00000  Uiso   1.00
H1676  H     0.36738   0.79557   0.55497   0.00000  Uiso   1.00
H1677  H     0.36208   0.87317   0.57043   0.00000  Uiso   1.00
H1678  H     0.35804   0.87352   0.52102   0.00000  Uiso   1.00
C1679  C     0.52875   0.66848   0.69134   0.00000  Uiso   1.00
C1680  C     0.54844   0.96967   0.65709   0.00000  Uiso   1.00
C1681  C     0.56205   0.98760   0.61728   0.00000  Uiso   1.00
H1682  H     0.53372   0.99679   0.61037   0.00000  Uiso   1.00
H1683  H     0.58626   0.68168   0.61807   0.00000  Uiso   1.00
H1684  H     0.57661   0.96391   0.59323   0.00000  Uiso   1.00
H1685  H     0.57757   0.96005   0.66217   0.00000  Uiso   1.00
H1686  H     0.52450   0.94221   0.65509   0.00000  Uiso   1.00
H1687  H     0.50328   0.68076   0.68240   0.00000  Uiso   1.00
H1688  H     0.55413   0.69443   0.69404   0.00000  Uiso   1.00
N1689  N     0.47171   0.66860   0.80277   0.00000  Uiso   1.00
O1690  O     0.43049   0.99707   0.81936   0.00000  Uiso   1.00
O1691  O     0.49860   0.66956   0.82405   0.00000  Uiso   1.00
C1692  C     0.40993   0.93621   0.98892   0.00000  Uiso   1.00
C1693  C     0.44188   0.97555   0.98502   0.00000  Uiso   1.00
C1694  C     0.42447   0.67696   0.51696   0.00000  Uiso   1.00
H1695  H     0.39276   0.68347   0.51480   0.00000  Uiso   1.00
H1696  H     0.42079   0.66824   0.54708   0.00000  Uiso   1.00
H1697  H     0.44713   0.70551   0.51312   0.00000  Uiso   1.00
H1698  H     0.47310   0.96918   0.98856   0.00000  Uiso   1.00
H1699  H     0.44772   0.98603   0.95530   0.00000  Uiso   1.00
H1700  H     0.38095   0.94051   0.98003   0.00000  Uiso   1.00
H1701  H     0.39899   0.93285   0.52109   0.00000  Uiso   1.00
N1702  N     0.43006   0.92363   0.90274   0.00000  Uiso   1.00
O1703  O     0.45912   0.94809   0.88078   0.00000  Uiso   1.00
O1704  O     0.38953   0.92523   0.90603   0.00000  Uiso   1.00
N1705  N     0.42681   0.84534   0.58787   0.00000  Uiso   1.00
O1706  O     0.41765   0.81023   0.60293   0.00000  Uiso   1.00
O1707  O     0.41658   0.87919   0.61085   0.00000  Uiso   1.00
C1708  C     0.48679   0.74865   0.92972   0.00000  Uiso   1.00
C1709  C     0.43773   0.74521   0.93563   0.00000  Uiso   1.00
C1710  C     0.42447   0.71853   0.90110   0.00000  Uiso   1.00
H1711  H     0.44065   0.73213   0.87288   0.00000  Uiso   1.00
H1712  H     0.43311   0.68672   0.89875   0.00000  Uiso   1.00
H1713  H     0.38909   0.71698   0.90616   0.00000  Uiso   1.00
H1714  H     0.42065   0.73163   0.96359   0.00000  Uiso   1.00
H1715  H     0.42654   0.77590   0.93787   0.00000  Uiso   1.00
H1716  H     0.50442   0.76033   0.90109   0.00000  Uiso   1.00
H1717  H     0.49566   0.71661   0.92622   0.00000  Uiso   1.00
Zn1718 Zn    0.85910   0.80756   0.78277   0.00000  Uiso   1.00
Zn1719 Zn    0.80125   0.79044   0.72257   0.00000  Uiso   1.00
Zn1720 Zn    0.87833   0.86331   0.71188   0.00000  Uiso   1.00
Zn1721 Zn    0.79465   0.87202   0.78277   0.00000  Uiso   1.00
O1722  O     0.83333   0.83333   0.75000   0.00000  Uiso   1.00
O1723  O     0.73656   0.85627   0.77820   0.00000  Uiso   1.00
O1724  O     0.92106   0.81944   0.76767   0.00000  Uiso   1.00
O1725  O     0.80467   0.73570   0.73607   0.00000  Uiso   1.00
O1726  O     0.87104   0.92193   0.71805   0.00000  Uiso   1.00
O1727  O     0.82360   0.79060   0.66625   0.00000  Uiso   1.00
O1728  O     0.79354   0.87313   0.83749   0.00000  Uiso   1.00
O1729  O     0.87755   0.84159   0.65877   0.00000  Uiso   1.00
O1730  O     0.83865   0.82802   0.83749   0.00000  Uiso   1.00
O1731  O     0.84515   0.74768   0.77820   0.00000  Uiso   1.00
O1732  O     0.81247   0.92803   0.76767   0.00000  Uiso   1.00
O1733  O     0.74119   0.79917   0.73607   0.00000  Uiso   1.00
O1734  O     0.93452   0.85845   0.71805   0.00000  Uiso   1.00
C1735  C     0.71915   0.82645   0.75883   0.00000  Uiso   1.00
C1736  C     0.94763   0.84018   0.74135   0.00000  Uiso   1.00
C1737  C     0.82297   0.72293   0.75892   0.00000  Uiso   1.00
C1738  C     0.84228   0.94386   0.74001   0.00000  Uiso   1.00
C1739  C     0.85464   0.81163   0.64390   0.00000  Uiso   1.00
C1740  C     0.81299   0.85543   0.85647   0.00000  Uiso   1.00
C1741  C     0.80344   0.86455   0.90059   0.00000  Uiso   1.00
C1742  C     0.86209   0.80078   0.60106   0.00000  Uiso   1.00
C1743  C     0.76364   0.89806   0.96481   0.00000  Uiso   1.00
C1744  C     0.77623   0.89477   0.92270   0.00000  Uiso   1.00
C1745  C     0.82108   0.84152   0.92106   0.00000  Uiso   1.00
C1746  C     0.80481   0.84035   0.96220   0.00000  Uiso   1.00
C1747  C     0.77441   0.86767   0.98403   0.00000  Uiso   1.00
C1748  C     0.81854   0.81304   0.98263   0.00000  Uiso   1.00
C1749  C     0.81321   0.82371   0.52408   0.00000  Uiso   1.00
C1750  C     0.77821   0.84647   0.54574   0.00000  Uiso   1.00
C1751  C     0.75493   0.86266   0.52442   0.00000  Uiso   1.00
C1752  C     0.83377   0.77412   0.96492   0.00000  Uiso   1.00
C1753  C     0.85455   0.75400   0.98547   0.00000  Uiso   1.00
C1754  C     0.85775   0.77002   0.52362   0.00000  Uiso   1.00
C1755  C     0.83848   0.80616   0.54271   0.00000  Uiso   1.00
C1756  C     0.87674   0.74835   0.54438   0.00000  Uiso   1.00
C1757  C     0.87711   0.76279   0.58353   0.00000  Uiso   1.00
C1758  C     0.84448   0.82312   0.58009   0.00000  Uiso   1.00
H1759  H     0.83346   0.85261   0.59413   0.00000  Uiso   1.00
H1760  H     0.88928   0.74443   0.60017   0.00000  Uiso   1.00
H1761  H     0.86654   0.72455   0.97247   0.00000  Uiso   1.00
H1762  H     0.84780   0.82470   0.90460   0.00000  Uiso   1.00
H1763  H     0.88973   0.71946   0.53095   0.00000  Uiso   1.00
C1764  C     0.99343   0.84299   0.73809   0.00000  Uiso   1.00
H1765  H     0.68281   0.86073   0.71586   0.00000  Uiso   1.00
C1766  C     0.67384   0.82384   0.76221   0.00000  Uiso   1.00
H1767  H     0.98517   0.80574   0.78449   0.00000  Uiso   1.00
C1768  C     0.84162   0.98674   0.73254   0.00000  Uiso   1.00
C1769  C     0.82063   0.67957   0.76296   0.00000  Uiso   1.00
C1770  C     0.70604   0.85849   0.53933   0.00000  Uiso   1.00
C1771  C     0.68856   0.81253   0.53616   0.00000  Uiso   1.00
C1772  C     0.97304   0.80673   0.54920   0.00000  Uiso   1.00
H1773  H     0.96103   0.81992   0.58070   0.00000  Uiso   1.00
H1774  H     0.95947   0.82175   0.52994   0.00000  Uiso   1.00
H1775  H     0.96245   0.77307   0.54645   0.00000  Uiso   1.00
H1776  H     0.69957   0.79843   0.50479   0.00000  Uiso   1.00
H1777  H     0.70071   0.79557   0.55497   0.00000  Uiso   1.00
H1778  H     0.69541   0.87317   0.57043   0.00000  Uiso   1.00
H1779  H     0.69137   0.87352   0.52102   0.00000  Uiso   1.00
C1780  C     0.86208   0.66848   0.69134   0.00000  Uiso   1.00
C1781  C     0.88177   0.96967   0.65709   0.00000  Uiso   1.00
C1782  C     0.89538   0.98760   0.61728   0.00000  Uiso   1.00
H1783  H     0.86705   0.99679   0.61037   0.00000  Uiso   1.00
H1784  H     0.91960   0.68168   0.61807   0.00000  Uiso   1.00
H1785  H     0.90994   0.96391   0.59323   0.00000  Uiso   1.00
H1786  H     0.91090   0.96005   0.66217   0.00000  Uiso   1.00
H1787  H     0.85783   0.94221   0.65509   0.00000  Uiso   1.00
H1788  H     0.83662   0.68076   0.68240   0.00000  Uiso   1.00
H1789  H     0.88747   0.69443   0.69404   0.00000  Uiso   1.00
N1790  N     0.80505   0.66860   0.80277   0.00000  Uiso   1.00
O1791  O     0.76382   0.99707   0.81936   0.00000  Uiso   1.00
O1792  O     0.83193   0.66956   0.82405   0.00000  Uiso   1.00
C1793  C     0.74327   0.93621   0.98892   0.00000  Uiso   1.00
C1794  C     0.77522   0.97555   0.98502   0.00000  Uiso   1.00
C1795  C     0.75780   0.67696   0.51696   0.00000  Uiso   1.00
H1796  H     0.72609   0.68347   0.51480   0.00000  Uiso   1.00
H1797  H     0.75412   0.66824   0.54708   0.00000  Uiso   1.00
H1798  H     0.78046   0.70551   0.51312   0.00000  Uiso   1.00
H1799  H     0.80643   0.96918   0.98856   0.00000  Uiso   1.00
H1800  H     0.78105   0.98603   0.95530   0.00000  Uiso   1.00
H1801  H     0.71429   0.94051   0.98003   0.00000  Uiso   1.00
H1802  H     0.73232   0.93285   0.52109   0.00000  Uiso   1.00
N1803  N     0.76339   0.92363   0.90274   0.00000  Uiso   1.00
O1804  O     0.79245   0.94809   0.88078   0.00000  Uiso   1.00
O1805  O     0.72286   0.92523   0.90603   0.00000  Uiso   1.00
N1806  N     0.76014   0.84534   0.58787   0.00000  Uiso   1.00
O1807  O     0.75099   0.81023   0.60293   0.00000  Uiso   1.00
O1808  O     0.74991   0.87919   0.61085   0.00000  Uiso   1.00
C1809  C     0.82012   0.74865   0.92972   0.00000  Uiso   1.00
C1810  C     0.77107   0.74521   0.93563   0.00000  Uiso   1.00
C1811  C     0.75780   0.71853   0.90110   0.00000  Uiso   1.00
H1812  H     0.77398   0.73213   0.87288   0.00000  Uiso   1.00
H1813  H     0.76644   0.68672   0.89875   0.00000  Uiso   1.00
H1814  H     0.72242   0.71698   0.90616   0.00000  Uiso   1.00
H1815  H     0.75399   0.73163   0.96359   0.00000  Uiso   1.00
H1816  H     0.75988   0.77590   0.93787   0.00000  Uiso   1.00
H1817  H     0.83776   0.76033   0.90109   0.00000  Uiso   1.00
H1818  H     0.82899   0.71661   0.92622   0.00000  Uiso   1.00
loop_
_geom_bond_atom_site_label_1
_geom_bond_atom_site_label_2
_geom_bond_distance
_geom_bond_site_symmetry_2
_ccdc_geom_bond_type
Zn1    O5      1.952   .     S
Zn1    O7      1.933   .     S
Zn1    O13     1.907   .     S
Zn1    O14     1.948   .     S
Zn2    O16     1.932   .     S
Zn2    O5      1.939   .     S
Zn2    O10     1.913   .     S
Zn2    O8      1.954   .     S
Zn3    O12     1.910   .     S
Zn3    O9      1.948   .     S
Zn3    O5      1.945   .     S
Zn3    O17     1.937   .     S
Zn4    O6      1.935   .     S
Zn4    O11     1.916   .     S
Zn4    O5      1.934   .     S
Zn4    O15     1.953   .     S
O6     C18     1.269   .     A
O7     C19     1.279   .     A
O8     C20     1.277   .     A
O9     C21     1.271   .     A
O10    C22     1.276   .     A
O11    C23     1.286   .     A
O12    C22     1.288   .     A
O13    C23     1.296   .     A
O14    C20     1.262   .     A
O15    C21     1.277   .     A
O16    C18     1.269   .     A
O17    C19     1.281   .     A
C18    C49     1.438   .     S
C19    C47     1.455   .     S
C20    C52     1.442   .     S
C21    C51     1.476   .     S
C22    C25     1.458   .     S
C23    C24     1.491   .     S
C24    C27     1.419   .     A
C24    C28     1.396   .     A
C25    C40     1.399   .     A
C25    C41     1.393   .     A
C26    C27     1.416   .     A
C26    C76     1.530   .     S
C26    C30     1.421   .     A
C27    N86     1.432   .     S
C28    H45     1.076   .     S
C28    C29     1.401   .     A
C29    C30     1.414   .     A
C29    C31     1.420   .     A
C30    C943    1.409   .     S
C31    C35     1.429   .     A
C31    C941    1.419   .     S
C32    C38     1.415   .     A
C32    C33     1.424   .     A
C32    C940    1.419   1_554 S
C33    N89     1.439   .     S
C33    C34     1.409   .     A
C34    C53     1.522   .     S
C34    C939    1.409   1_554 S
C35    C36     1.405   .     A
C35    C92     1.529   .     S
C36    H44     1.085   .     S
C36    C946    1.398   .     S
C37    C38     1.413   .     A
C37    C39     1.403   .     A
C37    C945    1.398   1_554 S
C38    C41     1.409   .     A
C39    C40     1.395   .     A
C39    H46     1.084   .     S
C40    H43     1.083   .     S
C41    H42     1.082   .     S
C47    H149    1.088   .     S
C47    C150    1.334   .     S
H48    C249    1.088   1_455 S
C49    C249    1.334   1_455 S
C49    H252    1.086   1_455 S
H50    C150    1.086   .     S
C51    C355    1.356   .     S
C51    C366    1.539   .     S
C52    N73     1.433   .     S
C52    C657    1.356   1_545 S
C53    H61     1.110   .     S
C53    C54     1.535   .     S
C53    H62     1.109   .     S
C54    H60     1.110   .     S
C54    H59     1.113   .     S
C54    C257    1.518   1_455 S
C55    H56     1.111   .     S
C55    H57     1.111   .     S
C55    H58     1.109   .     S
C55    C155    1.518   .     S
C63    H71     1.112   .     S
C63    H72     1.112   .     S
C63    C657    1.539   1_545 S
C63    C670    1.538   1_545 S
C64    H70     1.112   .     S
C64    H69     1.111   .     S
C64    C65     1.528   .     S
C64    C366    1.538   .     S
C65    H68     1.111   .     S
C65    H66     1.111   .     S
C65    H370    1.111   .     S
H67    C671    1.111   1_545 S
N73    O75     1.301   .     A
N73    O680    1.300   1_545 S
O74    N376    1.300   .     S
C76    H84     1.110   .     S
C76    C77     1.535   .     S
C76    H994    1.106   .     S
C77    H83     1.109   .     S
C77    H82     1.112   .     S
C77    C1290   1.529   .     S
C78    H80     1.111   .     S
C78    H79     1.111   .     S
C78    H81     1.106   .     S
C78    C1592   1.529   1_544 S
H85    C985    1.106   1_554 S
N86    O88     1.301   .     A
N86    O87     1.300   .     A
N89    O91     1.301   .     A
N89    O90     1.302   .     A
C92    H101    1.112   .     S
C92    H100    1.104   .     S
C92    C93     1.542   .     S
C93    C94     1.521   .     S
C93    H99     1.106   .     S
C93    H98     1.108   .     S
C94    H97     1.110   .     S
C94    H96     1.107   .     S
C94    H95     1.111   .     S
Zn102  O106    1.952   .     S
Zn102  O108    1.933   .     S
Zn102  O114    1.907   .     S
Zn102  O115    1.948   .     S
Zn103  O117    1.932   .     S
Zn103  O106    1.939   .     S
Zn103  O111    1.913   .     S
Zn103  O109    1.954   .     S
Zn104  O113    1.910   .     S
Zn104  O110    1.948   .     S
Zn104  O106    1.945   .     S
Zn104  O118    1.937   .     S
Zn105  O107    1.935   .     S
Zn105  O112    1.916   .     S
Zn105  O106    1.934   .     S
Zn105  O116    1.953   .     S
O107   C119    1.269   .     A
O108   C120    1.279   .     A
O109   C121    1.277   .     A
O110   C122    1.271   .     A
O111   C123    1.276   .     A
O112   C124    1.286   .     A
O113   C123    1.288   .     A
O114   C124    1.296   .     A
O115   C121    1.262   .     A
O116   C122    1.277   .     A
O117   C119    1.269   .     A
O118   C120    1.281   .     A
C119   C150    1.438   .     S
C120   C148    1.455   .     S
C121   C153    1.442   .     S
C122   C152    1.476   .     S
C123   C126    1.458   .     S
C124   C125    1.491   .     S
C125   C128    1.419   .     A
C125   C129    1.396   .     A
C126   C141    1.399   .     A
C126   C142    1.393   .     A
C127   C128    1.416   .     A
C127   C177    1.530   .     S
C127   C131    1.421   .     A
C128   N187    1.432   .     S
C129   H146    1.076   .     S
C129   C130    1.401   .     A
C130   C131    1.414   .     A
C130   C132    1.420   .     A
C131   C1044   1.409   .     S
C132   C136    1.429   .     A
C132   C1042   1.419   .     S
C133   C139    1.415   .     A
C133   C134    1.424   .     A
C133   C1041   1.419   1_554 S
C134   N190    1.439   .     S
C134   C135    1.409   .     A
C135   C154    1.522   .     S
C135   C1040   1.409   1_554 S
C136   C137    1.405   .     A
C136   C193    1.529   .     S
C137   H145    1.085   .     S
C137   C1047   1.398   .     S
C138   C139    1.413   .     A
C138   C140    1.403   .     A
C138   C1046   1.398   1_554 S
C139   C142    1.409   .     A
C140   C141    1.395   .     A
C140   H147    1.084   .     S
C141   H144    1.083   .     S
C142   H143    1.082   .     S
C148   H250    1.088   .     S
C148   C251    1.334   .     S
H151   C251    1.086   .     S
C152   C456    1.356   .     S
C152   C467    1.539   .     S
C153   N174    1.433   .     S
C153   C758    1.356   1_545 S
C154   H162    1.110   .     S
C154   C155    1.535   .     S
C154   H163    1.109   .     S
C155   H161    1.110   .     S
C155   H160    1.113   .     S
C156   H157    1.111   .     S
C156   H158    1.111   .     S
C156   H159    1.109   .     S
C156   C256    1.518   .     S
C164   H172    1.112   .     S
C164   H173    1.112   .     S
C164   C758    1.539   1_545 S
C164   C771    1.538   1_545 S
C165   H171    1.112   .     S
C165   H170    1.111   .     S
C165   C166    1.528   .     S
C165   C467    1.538   .     S
C166   H169    1.111   .     S
C166   H167    1.111   .     S
C166   H471    1.111   .     S
H168   C772    1.111   1_545 S
N174   O176    1.301   .     A
N174   O781    1.300   1_545 S
O175   N477    1.300   .     S
C177   H185    1.110   .     S
C177   C178    1.535   .     S
C177   H1095   1.106   .     S
C178   H184    1.109   .     S
C178   H183    1.112   .     S
C178   C1391   1.529   .     S
C179   H181    1.111   .     S
C179   H180    1.111   .     S
C179   H182    1.106   .     S
C179   C1693   1.529   1_544 S
H186   C1086   1.106   1_554 S
N187   O189    1.301   .     A
N187   O188    1.300   .     A
N190   O192    1.301   .     A
N190   O191    1.302   .     A
C193   H202    1.112   .     S
C193   H201    1.104   .     S
C193   C194    1.542   .     S
C194   C195    1.521   .     S
C194   H200    1.106   .     S
C194   H199    1.108   .     S
C195   H198    1.110   .     S
C195   H197    1.107   .     S
C195   H196    1.111   .     S
Zn203  O207    1.952   .     S
Zn203  O209    1.933   .     S
Zn203  O215    1.907   .     S
Zn203  O216    1.948   .     S
Zn204  O218    1.932   .     S
Zn204  O207    1.939   .     S
Zn204  O212    1.913   .     S
Zn204  O210    1.954   .     S
Zn205  O214    1.910   .     S
Zn205  O211    1.948   .     S
Zn205  O207    1.945   .     S
Zn205  O219    1.937   .     S
Zn206  O208    1.935   .     S
Zn206  O213    1.916   .     S
Zn206  O207    1.934   .     S
Zn206  O217    1.953   .     S
O208   C220    1.269   .     A
O209   C221    1.279   .     A
O210   C222    1.277   .     A
O211   C223    1.271   .     A
O212   C224    1.276   .     A
O213   C225    1.286   .     A
O214   C224    1.288   .     A
O215   C225    1.296   .     A
O216   C222    1.262   .     A
O217   C223    1.277   .     A
O218   C220    1.269   .     A
O219   C221    1.281   .     A
C220   C251    1.438   .     S
C221   C249    1.455   .     S
C222   C254    1.442   .     S
C223   C253    1.476   .     S
C224   C227    1.458   .     S
C225   C226    1.491   .     S
C226   C229    1.419   .     A
C226   C230    1.396   .     A
C227   C242    1.399   .     A
C227   C243    1.393   .     A
C228   C229    1.416   .     A
C228   C278    1.530   .     S
C228   C232    1.421   .     A
C229   N288    1.432   .     S
C230   H247    1.076   .     S
C230   C231    1.401   .     A
C231   C232    1.414   .     A
C231   C233    1.420   .     A
C232   C1145   1.409   .     S
C233   C237    1.429   .     A
C233   C1143   1.419   .     S
C234   C240    1.415   .     A
C234   C235    1.424   .     A
C234   C1142   1.419   1_554 S
C235   N291    1.439   .     S
C235   C236    1.409   .     A
C236   C255    1.522   .     S
C236   C1141   1.409   1_554 S
C237   C238    1.405   .     A
C237   C294    1.529   .     S
C238   H246    1.085   .     S
C238   C1148   1.398   .     S
C239   C240    1.413   .     A
C239   C241    1.403   .     A
C239   C1147   1.398   1_554 S
C240   C243    1.409   .     A
C241   C242    1.395   .     A
C241   H248    1.084   .     S
C242   H245    1.083   .     S
C243   H244    1.082   .     S
C249   H48     1.088   1_655 S
C249   C49     1.334   1_655 S
H252   C49     1.086   1_655 S
C253   C557    1.356   .     S
C253   C568    1.539   .     S
C254   N275    1.433   .     S
C254   C859    1.356   1_545 S
C255   H263    1.110   .     S
C255   C256    1.535   .     S
C255   H264    1.109   .     S
C256   H262    1.110   .     S
C256   H261    1.113   .     S
C257   H258    1.111   .     S
C257   H259    1.111   .     S
C257   H260    1.109   .     S
C257   C54     1.518   1_655 S
C265   H273    1.112   .     S
C265   H274    1.112   .     S
C265   C859    1.539   1_545 S
C265   C872    1.538   1_545 S
C266   H272    1.112   .     S
C266   H271    1.111   .     S
C266   C267    1.528   .     S
C266   C568    1.538   .     S
C267   H270    1.111   .     S
C267   H268    1.111   .     S
C267   H572    1.111   .     S
H269   C873    1.111   1_545 S
N275   O277    1.301   .     A
N275   O882    1.300   1_545 S
O276   N578    1.300   .     S
C278   H286    1.110   .     S
C278   C279    1.535   .     S
C278   H1196   1.106   .     S
C279   H285    1.109   .     S
C279   H284    1.112   .     S
C279   C1492   1.529   .     S
C280   H282    1.111   .     S
C280   H281    1.111   .     S
C280   H283    1.106   .     S
C280   C1794   1.529   1_544 S
H287   C1187   1.106   1_554 S
N288   O290    1.301   .     A
N288   O289    1.300   .     A
N291   O293    1.301   .     A
N291   O292    1.302   .     A
C294   H303    1.112   .     S
C294   H302    1.104   .     S
C294   C295    1.542   .     S
C295   C296    1.521   .     S
C295   H301    1.106   .     S
C295   H300    1.108   .     S
C296   H299    1.110   .     S
C296   H298    1.107   .     S
C296   H297    1.111   .     S
Zn304  O308    1.952   .     S
Zn304  O310    1.933   .     S
Zn304  O316    1.907   .     S
Zn304  O317    1.948   .     S
Zn305  O319    1.932   .     S
Zn305  O308    1.939   .     S
Zn305  O313    1.913   .     S
Zn305  O311    1.954   .     S
Zn306  O315    1.910   .     S
Zn306  O312    1.948   .     S
Zn306  O308    1.945   .     S
Zn306  O320    1.937   .     S
Zn307  O309    1.935   .     S
Zn307  O314    1.916   .     S
Zn307  O308    1.934   .     S
Zn307  O318    1.953   .     S
O309   C321    1.269   .     A
O310   C322    1.279   .     A
O311   C323    1.277   .     A
O312   C324    1.271   .     A
O313   C325    1.276   .     A
O314   C326    1.286   .     A
O315   C325    1.288   .     A
O316   C326    1.296   .     A
O317   C323    1.262   .     A
O318   C324    1.277   .     A
O319   C321    1.269   .     A
O320   C322    1.281   .     A
C321   C352    1.438   .     S
C322   C350    1.455   .     S
C323   C355    1.442   .     S
C324   C354    1.476   .     S
C325   C328    1.458   .     S
C326   C327    1.491   .     S
C327   C330    1.419   .     A
C327   C331    1.396   .     A
C328   C343    1.399   .     A
C328   C344    1.393   .     A
C329   C330    1.416   .     A
C329   C379    1.530   .     S
C329   C333    1.421   .     A
C330   N389    1.432   .     S
C331   H348    1.076   .     S
C331   C332    1.401   .     A
C332   C333    1.414   .     A
C332   C334    1.420   .     A
C333   C1246   1.409   .     S
C334   C338    1.429   .     A
C334   C1244   1.419   .     S
C335   C341    1.415   .     A
C335   C336    1.424   .     A
C335   C1243   1.419   1_554 S
C336   N392    1.439   .     S
C336   C337    1.409   .     A
C337   C356    1.522   .     S
C337   C1242   1.409   1_554 S
C338   C339    1.405   .     A
C338   C395    1.529   .     S
C339   H347    1.085   .     S
C339   C1249   1.398   .     S
C340   C341    1.413   .     A
C340   C342    1.403   .     A
C340   C1248   1.398   1_554 S
C341   C344    1.409   .     A
C342   C343    1.395   .     A
C342   H349    1.084   .     S
C343   H346    1.083   .     S
C344   H345    1.082   .     S
C350   H452    1.088   .     S
C350   C453    1.334   .     S
H351   C552    1.088   1_455 S
C352   C552    1.334   1_455 S
C352   H555    1.086   1_455 S
H353   C453    1.086   .     S
C354   C658    1.356   .     S
C354   C669    1.539   .     S
C355   N376    1.433   .     S
C356   H364    1.110   .     S
C356   C357    1.535   .     S
C356   H365    1.109   .     S
C357   H363    1.110   .     S
C357   H362    1.113   .     S
C357   C560    1.518   1_455 S
C358   H359    1.111   .     S
C358   H360    1.111   .     S
C358   H361    1.109   .     S
C358   C458    1.518   .     S
C366   H374    1.112   .     S
C366   H375    1.112   .     S
C367   H373    1.112   .     S
C367   H372    1.111   .     S
C367   C368    1.528   .     S
C367   C669    1.538   .     S
C368   H371    1.111   .     S
C368   H369    1.111   .     S
C368   H673    1.111   .     S
N376   O378    1.301   .     A
O377   N679    1.300   .     S
C379   H387    1.110   .     S
C379   C380    1.535   .     S
C379   H1297   1.106   .     S
C380   H386    1.109   .     S
C380   H385    1.112   .     S
C380   C1593   1.529   .     S
C381   H383    1.111   .     S
C381   H382    1.111   .     S
C381   H384    1.106   .     S
C381   C986    1.529   1_554 S
H388   C1288   1.106   1_554 S
N389   O391    1.301   .     A
N389   O390    1.300   .     A
N392   O394    1.301   .     A
N392   O393    1.302   .     A
C395   H404    1.112   .     S
C395   H403    1.104   .     S
C395   C396    1.542   .     S
C396   C397    1.521   .     S
C396   H402    1.106   .     S
C396   H401    1.108   .     S
C397   H400    1.110   .     S
C397   H399    1.107   .     S
C397   H398    1.111   .     S
Zn405  O409    1.952   .     S
Zn405  O411    1.933   .     S
Zn405  O417    1.907   .     S
Zn405  O418    1.948   .     S
Zn406  O420    1.932   .     S
Zn406  O409    1.939   .     S
Zn406  O414    1.913   .     S
Zn406  O412    1.954   .     S
Zn407  O416    1.910   .     S
Zn407  O413    1.948   .     S
Zn407  O409    1.945   .     S
Zn407  O421    1.937   .     S
Zn408  O410    1.935   .     S
Zn408  O415    1.916   .     S
Zn408  O409    1.934   .     S
Zn408  O419    1.953   .     S
O410   C422    1.269   .     A
O411   C423    1.279   .     A
O412   C424    1.277   .     A
O413   C425    1.271   .     A
O414   C426    1.276   .     A
O415   C427    1.286   .     A
O416   C426    1.288   .     A
O417   C427    1.296   .     A
O418   C424    1.262   .     A
O419   C425    1.277   .     A
O420   C422    1.269   .     A
O421   C423    1.281   .     A
C422   C453    1.438   .     S
C423   C451    1.455   .     S
C424   C456    1.442   .     S
C425   C455    1.476   .     S
C426   C429    1.458   .     S
C427   C428    1.491   .     S
C428   C431    1.419   .     A
C428   C432    1.396   .     A
C429   C444    1.399   .     A
C429   C445    1.393   .     A
C430   C431    1.416   .     A
C430   C480    1.530   .     S
C430   C434    1.421   .     A
C431   N490    1.432   .     S
C432   H449    1.076   .     S
C432   C433    1.401   .     A
C433   C434    1.414   .     A
C433   C435    1.420   .     A
C434   C1347   1.409   .     S
C435   C439    1.429   .     A
C435   C1345   1.419   .     S
C436   C442    1.415   .     A
C436   C437    1.424   .     A
C436   C1344   1.419   1_554 S
C437   N493    1.439   .     S
C437   C438    1.409   .     A
C438   C457    1.522   .     S
C438   C1343   1.409   1_554 S
C439   C440    1.405   .     A
C439   C496    1.529   .     S
C440   H448    1.085   .     S
C440   C1350   1.398   .     S
C441   C442    1.413   .     A
C441   C443    1.403   .     A
C441   C1349   1.398   1_554 S
C442   C445    1.409   .     A
C443   C444    1.395   .     A
C443   H450    1.084   .     S
C444   H447    1.083   .     S
C445   H446    1.082   .     S
C451   H553    1.088   .     S
C451   C554    1.334   .     S
H454   C554    1.086   .     S
C455   C759    1.356   .     S
C455   C770    1.539   .     S
C456   N477    1.433   .     S
C457   H465    1.110   .     S
C457   C458    1.535   .     S
C457   H466    1.109   .     S
C458   H464    1.110   .     S
C458   H463    1.113   .     S
C459   H460    1.111   .     S
C459   H461    1.111   .     S
C459   H462    1.109   .     S
C459   C559    1.518   .     S
C467   H475    1.112   .     S
C467   H476    1.112   .     S
C468   H474    1.112   .     S
C468   H473    1.111   .     S
C468   C469    1.528   .     S
C468   C770    1.538   .     S
C469   H472    1.111   .     S
C469   H470    1.111   .     S
C469   H774    1.111   .     S
N477   O479    1.301   .     A
O478   N780    1.300   .     S
C480   H488    1.110   .     S
C480   C481    1.535   .     S
C480   H1398   1.106   .     S
C481   H487    1.109   .     S
C481   H486    1.112   .     S
C481   C1694   1.529   .     S
C482   H484    1.111   .     S
C482   H483    1.111   .     S
C482   H485    1.106   .     S
C482   C1087   1.529   1_554 S
H489   C1389   1.106   1_554 S
N490   O492    1.301   .     A
N490   O491    1.300   .     A
N493   O495    1.301   .     A
N493   O494    1.302   .     A
C496   H505    1.112   .     S
C496   H504    1.104   .     S
C496   C497    1.542   .     S
C497   C498    1.521   .     S
C497   H503    1.106   .     S
C497   H502    1.108   .     S
C498   H501    1.110   .     S
C498   H500    1.107   .     S
C498   H499    1.111   .     S
Zn506  O510    1.952   .     S
Zn506  O512    1.933   .     S
Zn506  O518    1.907   .     S
Zn506  O519    1.948   .     S
Zn507  O521    1.932   .     S
Zn507  O510    1.939   .     S
Zn507  O515    1.913   .     S
Zn507  O513    1.954   .     S
Zn508  O517    1.910   .     S
Zn508  O514    1.948   .     S
Zn508  O510    1.945   .     S
Zn508  O522    1.937   .     S
Zn509  O511    1.935   .     S
Zn509  O516    1.916   .     S
Zn509  O510    1.934   .     S
Zn509  O520    1.953   .     S
O511   C523    1.269   .     A
O512   C524    1.279   .     A
O513   C525    1.277   .     A
O514   C526    1.271   .     A
O515   C527    1.276   .     A
O516   C528    1.286   .     A
O517   C527    1.288   .     A
O518   C528    1.296   .     A
O519   C525    1.262   .     A
O520   C526    1.277   .     A
O521   C523    1.269   .     A
O522   C524    1.281   .     A
C523   C554    1.438   .     S
C524   C552    1.455   .     S
C525   C557    1.442   .     S
C526   C556    1.476   .     S
C527   C530    1.458   .     S
C528   C529    1.491   .     S
C529   C532    1.419   .     A
C529   C533    1.396   .     A
C530   C545    1.399   .     A
C530   C546    1.393   .     A
C531   C532    1.416   .     A
C531   C581    1.530   .     S
C531   C535    1.421   .     A
C532   N591    1.432   .     S
C533   H550    1.076   .     S
C533   C534    1.401   .     A
C534   C535    1.414   .     A
C534   C536    1.420   .     A
C535   C1448   1.409   .     S
C536   C540    1.429   .     A
C536   C1446   1.419   .     S
C537   C543    1.415   .     A
C537   C538    1.424   .     A
C537   C1445   1.419   1_554 S
C538   N594    1.439   .     S
C538   C539    1.409   .     A
C539   C558    1.522   .     S
C539   C1444   1.409   1_554 S
C540   C541    1.405   .     A
C540   C597    1.529   .     S
C541   H549    1.085   .     S
C541   C1451   1.398   .     S
C542   C543    1.413   .     A
C542   C544    1.403   .     A
C542   C1450   1.398   1_554 S
C543   C546    1.409   .     A
C544   C545    1.395   .     A
C544   H551    1.084   .     S
C545   H548    1.083   .     S
C546   H547    1.082   .     S
C552   H351    1.088   1_655 S
C552   C352    1.334   1_655 S
H555   C352    1.086   1_655 S
C556   C860    1.356   .     S
C556   C871    1.539   .     S
C557   N578    1.433   .     S
C558   H566    1.110   .     S
C558   C559    1.535   .     S
C558   H567    1.109   .     S
C559   H565    1.110   .     S
C559   H564    1.113   .     S
C560   H561    1.111   .     S
C560   H562    1.111   .     S
C560   H563    1.109   .     S
C560   C357    1.518   1_655 S
C568   H576    1.112   .     S
C568   H577    1.112   .     S
C569   H575    1.112   .     S
C569   H574    1.111   .     S
C569   C570    1.528   .     S
C569   C871    1.538   .     S
C570   H573    1.111   .     S
C570   H571    1.111   .     S
C570   H875    1.111   .     S
N578   O580    1.301   .     A
O579   N881    1.300   .     S
C581   H589    1.110   .     S
C581   C582    1.535   .     S
C581   H1499   1.106   .     S
C582   H588    1.109   .     S
C582   H587    1.112   .     S
C582   C1795   1.529   .     S
C583   H585    1.111   .     S
C583   H584    1.111   .     S
C583   H586    1.106   .     S
C583   C1188   1.529   1_554 S
H590   C1490   1.106   1_554 S
N591   O593    1.301   .     A
N591   O592    1.300   .     A
N594   O596    1.301   .     A
N594   O595    1.302   .     A
C597   H606    1.112   .     S
C597   H605    1.104   .     S
C597   C598    1.542   .     S
C598   C599    1.521   .     S
C598   H604    1.106   .     S
C598   H603    1.108   .     S
C599   H602    1.110   .     S
C599   H601    1.107   .     S
C599   H600    1.111   .     S
Zn607  O611    1.952   .     S
Zn607  O613    1.933   .     S
Zn607  O619    1.907   .     S
Zn607  O620    1.948   .     S
Zn608  O622    1.932   .     S
Zn608  O611    1.939   .     S
Zn608  O616    1.913   .     S
Zn608  O614    1.954   .     S
Zn609  O618    1.910   .     S
Zn609  O615    1.948   .     S
Zn609  O611    1.945   .     S
Zn609  O623    1.937   .     S
Zn610  O612    1.935   .     S
Zn610  O617    1.916   .     S
Zn610  O611    1.934   .     S
Zn610  O621    1.953   .     S
O612   C624    1.269   .     A
O613   C625    1.279   .     A
O614   C626    1.277   .     A
O615   C627    1.271   .     A
O616   C628    1.276   .     A
O617   C629    1.286   .     A
O618   C628    1.288   .     A
O619   C629    1.296   .     A
O620   C626    1.262   .     A
O621   C627    1.277   .     A
O622   C624    1.269   .     A
O623   C625    1.281   .     A
C624   C655    1.438   .     S
C625   C653    1.455   .     S
C626   C658    1.442   .     S
C627   C657    1.476   .     S
C628   C631    1.458   .     S
C629   C630    1.491   .     S
C630   C633    1.419   .     A
C630   C634    1.396   .     A
C631   C646    1.399   .     A
C631   C647    1.393   .     A
C632   C633    1.416   .     A
C632   C682    1.530   .     S
C632   C636    1.421   .     A
C633   N692    1.432   .     S
C634   H651    1.076   .     S
C634   C635    1.401   .     A
C635   C636    1.414   .     A
C635   C637    1.420   .     A
C636   C1549   1.409   .     S
C637   C641    1.429   .     A
C637   C1547   1.419   .     S
C638   C644    1.415   .     A
C638   C639    1.424   .     A
C638   C1546   1.419   1_554 S
C639   N695    1.439   .     S
C639   C640    1.409   .     A
C640   C659    1.522   .     S
C640   C1545   1.409   1_554 S
C641   C642    1.405   .     A
C641   C698    1.529   .     S
C642   H650    1.085   .     S
C642   C1552   1.398   .     S
C643   C644    1.413   .     A
C643   C645    1.403   .     A
C643   C1551   1.398   1_554 S
C644   C647    1.409   .     A
C645   C646    1.395   .     A
C645   H652    1.084   .     S
C646   H649    1.083   .     S
C647   H648    1.082   .     S
C653   H755    1.088   .     S
C653   C756    1.334   .     S
H654   C855    1.088   1_455 S
C655   C855    1.334   1_455 S
C655   H858    1.086   1_455 S
H656   C756    1.086   .     S
C657   C52     1.356   1_565 S
C657   C63     1.539   1_565 S
C658   N679    1.433   .     S
C659   H667    1.110   .     S
C659   C660    1.535   .     S
C659   H668    1.109   .     S
C660   H666    1.110   .     S
C660   H665    1.113   .     S
C660   C863    1.518   1_455 S
C661   H662    1.111   .     S
C661   H663    1.111   .     S
C661   H664    1.109   .     S
C661   C761    1.518   .     S
C669   H677    1.112   .     S
C669   H678    1.112   .     S
C670   H676    1.112   .     S
C670   H675    1.111   .     S
C670   C671    1.528   .     S
C670   C63     1.538   1_565 S
C671   H674    1.111   .     S
C671   H672    1.111   .     S
C671   H67     1.111   1_565 S
N679   O681    1.301   .     A
O680   N73     1.300   1_565 S
C682   H690    1.110   .     S
C682   C683    1.535   .     S
C682   H1600   1.106   .     S
C683   H689    1.109   .     S
C683   H688    1.112   .     S
C683   C987    1.529   1_565 S
C684   H686    1.111   .     S
C684   H685    1.111   .     S
C684   H687    1.106   .     S
C684   C1289   1.529   1_554 S
H691   C1591   1.106   1_554 S
N692   O694    1.301   .     A
N692   O693    1.300   .     A
N695   O697    1.301   .     A
N695   O696    1.302   .     A
C698   H707    1.112   .     S
C698   H706    1.104   .     S
C698   C699    1.542   .     S
C699   C700    1.521   .     S
C699   H705    1.106   .     S
C699   H704    1.108   .     S
C700   H703    1.110   .     S
C700   H702    1.107   .     S
C700   H701    1.111   .     S
Zn708  O712    1.952   .     S
Zn708  O714    1.933   .     S
Zn708  O720    1.907   .     S
Zn708  O721    1.948   .     S
Zn709  O723    1.932   .     S
Zn709  O712    1.939   .     S
Zn709  O717    1.913   .     S
Zn709  O715    1.954   .     S
Zn710  O719    1.910   .     S
Zn710  O716    1.948   .     S
Zn710  O712    1.945   .     S
Zn710  O724    1.937   .     S
Zn711  O713    1.935   .     S
Zn711  O718    1.916   .     S
Zn711  O712    1.934   .     S
Zn711  O722    1.953   .     S
O713   C725    1.269   .     A
O714   C726    1.279   .     A
O715   C727    1.277   .     A
O716   C728    1.271   .     A
O717   C729    1.276   .     A
O718   C730    1.286   .     A
O719   C729    1.288   .     A
O720   C730    1.296   .     A
O721   C727    1.262   .     A
O722   C728    1.277   .     A
O723   C725    1.269   .     A
O724   C726    1.281   .     A
C725   C756    1.438   .     S
C726   C754    1.455   .     S
C727   C759    1.442   .     S
C728   C758    1.476   .     S
C729   C732    1.458   .     S
C730   C731    1.491   .     S
C731   C734    1.419   .     A
C731   C735    1.396   .     A
C732   C747    1.399   .     A
C732   C748    1.393   .     A
C733   C734    1.416   .     A
C733   C783    1.530   .     S
C733   C737    1.421   .     A
C734   N793    1.432   .     S
C735   H752    1.076   .     S
C735   C736    1.401   .     A
C736   C737    1.414   .     A
C736   C738    1.420   .     A
C737   C1650   1.409   .     S
C738   C742    1.429   .     A
C738   C1648   1.419   .     S
C739   C745    1.415   .     A
C739   C740    1.424   .     A
C739   C1647   1.419   1_554 S
C740   N796    1.439   .     S
C740   C741    1.409   .     A
C741   C760    1.522   .     S
C741   C1646   1.409   1_554 S
C742   C743    1.405   .     A
C742   C799    1.529   .     S
C743   H751    1.085   .     S
C743   C1653   1.398   .     S
C744   C745    1.413   .     A
C744   C746    1.403   .     A
C744   C1652   1.398   1_554 S
C745   C748    1.409   .     A
C746   C747    1.395   .     A
C746   H753    1.084   .     S
C747   H750    1.083   .     S
C748   H749    1.082   .     S
C754   H856    1.088   .     S
C754   C857    1.334   .     S
H757   C857    1.086   .     S
C758   C153    1.356   1_565 S
C758   C164    1.539   1_565 S
C759   N780    1.433   .     S
C760   H768    1.110   .     S
C760   C761    1.535   .     S
C760   H769    1.109   .     S
C761   H767    1.110   .     S
C761   H766    1.113   .     S
C762   H763    1.111   .     S
C762   H764    1.111   .     S
C762   H765    1.109   .     S
C762   C862    1.518   .     S
C770   H778    1.112   .     S
C770   H779    1.112   .     S
C771   H777    1.112   .     S
C771   H776    1.111   .     S
C771   C772    1.528   .     S
C771   C164    1.538   1_565 S
C772   H775    1.111   .     S
C772   H773    1.111   .     S
C772   H168    1.111   1_565 S
N780   O782    1.301   .     A
O781   N174    1.300   1_565 S
C783   H791    1.110   .     S
C783   C784    1.535   .     S
C783   H1701   1.106   .     S
C784   H790    1.109   .     S
C784   H789    1.112   .     S
C784   C1088   1.529   1_565 S
C785   H787    1.111   .     S
C785   H786    1.111   .     S
C785   H788    1.106   .     S
C785   C1390   1.529   1_554 S
H792   C1692   1.106   1_554 S
N793   O795    1.301   .     A
N793   O794    1.300   .     A
N796   O798    1.301   .     A
N796   O797    1.302   .     A
C799   H808    1.112   .     S
C799   H807    1.104   .     S
C799   C800    1.542   .     S
C800   C801    1.521   .     S
C800   H806    1.106   .     S
C800   H805    1.108   .     S
C801   H804    1.110   .     S
C801   H803    1.107   .     S
C801   H802    1.111   .     S
Zn809  O813    1.952   .     S
Zn809  O815    1.933   .     S
Zn809  O821    1.907   .     S
Zn809  O822    1.948   .     S
Zn810  O824    1.932   .     S
Zn810  O813    1.939   .     S
Zn810  O818    1.913   .     S
Zn810  O816    1.954   .     S
Zn811  O820    1.910   .     S
Zn811  O817    1.948   .     S
Zn811  O813    1.945   .     S
Zn811  O825    1.937   .     S
Zn812  O814    1.935   .     S
Zn812  O819    1.916   .     S
Zn812  O813    1.934   .     S
Zn812  O823    1.953   .     S
O814   C826    1.269   .     A
O815   C827    1.279   .     A
O816   C828    1.277   .     A
O817   C829    1.271   .     A
O818   C830    1.276   .     A
O819   C831    1.286   .     A
O820   C830    1.288   .     A
O821   C831    1.296   .     A
O822   C828    1.262   .     A
O823   C829    1.277   .     A
O824   C826    1.269   .     A
O825   C827    1.281   .     A
C826   C857    1.438   .     S
C827   C855    1.455   .     S
C828   C860    1.442   .     S
C829   C859    1.476   .     S
C830   C833    1.458   .     S
C831   C832    1.491   .     S
C832   C835    1.419   .     A
C832   C836    1.396   .     A
C833   C848    1.399   .     A
C833   C849    1.393   .     A
C834   C835    1.416   .     A
C834   C884    1.530   .     S
C834   C838    1.421   .     A
C835   N894    1.432   .     S
C836   H853    1.076   .     S
C836   C837    1.401   .     A
C837   C838    1.414   .     A
C837   C839    1.420   .     A
C838   C1751   1.409   .     S
C839   C843    1.429   .     A
C839   C1749   1.419   .     S
C840   C846    1.415   .     A
C840   C841    1.424   .     A
C840   C1748   1.419   1_554 S
C841   N897    1.439   .     S
C841   C842    1.409   .     A
C842   C861    1.522   .     S
C842   C1747   1.409   1_554 S
C843   C844    1.405   .     A
C843   C900    1.529   .     S
C844   H852    1.085   .     S
C844   C1754   1.398   .     S
C845   C846    1.413   .     A
C845   C847    1.403   .     A
C845   C1753   1.398   1_554 S
C846   C849    1.409   .     A
C847   C848    1.395   .     A
C847   H854    1.084   .     S
C848   H851    1.083   .     S
C849   H850    1.082   .     S
C855   H654    1.088   1_655 S
C855   C655    1.334   1_655 S
H858   C655    1.086   1_655 S
C859   C254    1.356   1_565 S
C859   C265    1.539   1_565 S
C860   N881    1.433   .     S
C861   H869    1.110   .     S
C861   C862    1.535   .     S
C861   H870    1.109   .     S
C862   H868    1.110   .     S
C862   H867    1.113   .     S
C863   H864    1.111   .     S
C863   H865    1.111   .     S
C863   H866    1.109   .     S
C863   C660    1.518   1_655 S
C871   H879    1.112   .     S
C871   H880    1.112   .     S
C872   H878    1.112   .     S
C872   H877    1.111   .     S
C872   C873    1.528   .     S
C872   C265    1.538   1_565 S
C873   H876    1.111   .     S
C873   H874    1.111   .     S
C873   H269    1.111   1_565 S
N881   O883    1.301   .     A
O882   N275    1.300   1_565 S
C884   H892    1.110   .     S
C884   C885    1.535   .     S
C884   H1802   1.106   .     S
C885   H891    1.109   .     S
C885   H890    1.112   .     S
C885   C1189   1.529   1_565 S
C886   H888    1.111   .     S
C886   H887    1.111   .     S
C886   H889    1.106   .     S
C886   C1491   1.529   1_554 S
H893   C1793   1.106   1_554 S
N894   O896    1.301   .     A
N894   O895    1.300   .     A
N897   O899    1.301   .     A
N897   O898    1.302   .     A
C900   H909    1.112   .     S
C900   H908    1.104   .     S
C900   C901    1.542   .     S
C901   C902    1.521   .     S
C901   H907    1.106   .     S
C901   H906    1.108   .     S
C902   H905    1.110   .     S
C902   H904    1.107   .     S
C902   H903    1.111   .     S
Zn910  O914    1.952   .     S
Zn910  O916    1.933   .     S
Zn910  O922    1.907   .     S
Zn910  O923    1.948   .     S
Zn911  O925    1.932   .     S
Zn911  O914    1.939   .     S
Zn911  O919    1.913   .     S
Zn911  O917    1.954   .     S
Zn912  O921    1.910   .     S
Zn912  O918    1.948   .     S
Zn912  O914    1.945   .     S
Zn912  O926    1.937   .     S
Zn913  O915    1.935   .     S
Zn913  O920    1.916   .     S
Zn913  O914    1.934   .     S
Zn913  O924    1.953   .     S
O915   C927    1.269   .     A
O916   C928    1.279   .     A
O917   C929    1.277   .     A
O918   C930    1.271   .     A
O919   C931    1.276   .     A
O920   C932    1.286   .     A
O921   C931    1.288   .     A
O922   C932    1.296   .     A
O923   C929    1.262   .     A
O924   C930    1.277   .     A
O925   C927    1.269   .     A
O926   C928    1.281   .     A
C927   C958    1.438   .     S
C928   C956    1.455   .     S
C929   C961    1.442   .     S
C930   C960    1.476   .     S
C931   C934    1.458   .     S
C932   C933    1.491   .     S
C933   C936    1.419   .     A
C933   C937    1.396   .     A
C934   C949    1.399   .     A
C934   C950    1.393   .     A
C935   C936    1.416   .     A
C935   C985    1.530   .     S
C935   C939    1.421   .     A
C936   N995    1.432   .     S
C937   H954    1.076   .     S
C937   C938    1.401   .     A
C938   C939    1.414   .     A
C938   C940    1.420   .     A
C939   C34     1.409   1_556 S
C940   C944    1.429   .     A
C940   C32     1.419   1_556 S
C941   C947    1.415   .     A
C941   C942    1.424   .     A
C942   N998    1.439   .     S
C942   C943    1.409   .     A
C943   C962    1.522   .     S
C944   C945    1.405   .     A
C944   C1001   1.529   .     S
C945   H953    1.085   .     S
C945   C37     1.398   1_556 S
C946   C947    1.413   .     A
C946   C948    1.403   .     A
C947   C950    1.409   .     A
C948   C949    1.395   .     A
C948   H955    1.084   .     S
C949   H952    1.083   .     S
C950   H951    1.082   .     S
C956   H1058   1.088   .     S
C956   C1059   1.334   .     S
H957   C1158   1.088   1_455 S
C958   C1158   1.334   1_455 S
C958   H1161   1.086   1_455 S
H959   C1059   1.086   .     S
C960   C1264   1.356   .     S
C960   C1275   1.539   .     S
C961   N982    1.433   .     S
C961   C1566   1.356   1_545 S
C962   H970    1.110   .     S
C962   C963    1.535   .     S
C962   H971    1.109   .     S
C963   H969    1.110   .     S
C963   H968    1.113   .     S
C963   C1166   1.518   1_455 S
C964   H965    1.111   .     S
C964   H966    1.111   .     S
C964   H967    1.109   .     S
C964   C1064   1.518   .     S
C972   H980    1.112   .     S
C972   H981    1.112   .     S
C972   C1566   1.539   1_545 S
C972   C1579   1.538   1_545 S
C973   H979    1.112   .     S
C973   H978    1.111   .     S
C973   C974    1.528   .     S
C973   C1275   1.538   .     S
C974   H977    1.111   .     S
C974   H975    1.111   .     S
C974   H1279   1.111   .     S
H976   C1580   1.111   1_545 S
N982   O984    1.301   .     A
N982   O1589   1.300   1_545 S
O983   N1285   1.300   .     S
C985   H993    1.110   .     S
C985   C986    1.535   .     S
C985   H85     1.106   1_556 S
C986   H992    1.109   .     S
C986   H991    1.112   .     S
C986   C381    1.529   1_556 S
C987   H989    1.111   .     S
C987   H988    1.111   .     S
C987   H990    1.106   .     S
C987   C683    1.529   1_545 S
N995   O997    1.301   .     A
N995   O996    1.300   .     A
N998   O1000   1.301   .     A
N998   O999    1.302   .     A
C1001  H1010   1.112   .     S
C1001  H1009   1.104   .     S
C1001  C1002   1.542   .     S
C1002  C1003   1.521   .     S
C1002  H1008   1.106   .     S
C1002  H1007   1.108   .     S
C1003  H1006   1.110   .     S
C1003  H1005   1.107   .     S
C1003  H1004   1.111   .     S
Zn1011 O1015   1.952   .     S
Zn1011 O1017   1.933   .     S
Zn1011 O1023   1.907   .     S
Zn1011 O1024   1.948   .     S
Zn1012 O1026   1.932   .     S
Zn1012 O1015   1.939   .     S
Zn1012 O1020   1.913   .     S
Zn1012 O1018   1.954   .     S
Zn1013 O1022   1.910   .     S
Zn1013 O1019   1.948   .     S
Zn1013 O1015   1.945   .     S
Zn1013 O1027   1.937   .     S
Zn1014 O1016   1.935   .     S
Zn1014 O1021   1.916   .     S
Zn1014 O1015   1.934   .     S
Zn1014 O1025   1.953   .     S
O1016  C1028   1.269   .     A
O1017  C1029   1.279   .     A
O1018  C1030   1.277   .     A
O1019  C1031   1.271   .     A
O1020  C1032   1.276   .     A
O1021  C1033   1.286   .     A
O1022  C1032   1.288   .     A
O1023  C1033   1.296   .     A
O1024  C1030   1.262   .     A
O1025  C1031   1.277   .     A
O1026  C1028   1.269   .     A
O1027  C1029   1.281   .     A
C1028  C1059   1.438   .     S
C1029  C1057   1.455   .     S
C1030  C1062   1.442   .     S
C1031  C1061   1.476   .     S
C1032  C1035   1.458   .     S
C1033  C1034   1.491   .     S
C1034  C1037   1.419   .     A
C1034  C1038   1.396   .     A
C1035  C1050   1.399   .     A
C1035  C1051   1.393   .     A
C1036  C1037   1.416   .     A
C1036  C1086   1.530   .     S
C1036  C1040   1.421   .     A
C1037  N1096   1.432   .     S
C1038  H1055   1.076   .     S
C1038  C1039   1.401   .     A
C1039  C1040   1.414   .     A
C1039  C1041   1.420   .     A
C1040  C135    1.409   1_556 S
C1041  C1045   1.429   .     A
C1041  C133    1.419   1_556 S
C1042  C1048   1.415   .     A
C1042  C1043   1.424   .     A
C1043  N1099   1.439   .     S
C1043  C1044   1.409   .     A
C1044  C1063   1.522   .     S
C1045  C1046   1.405   .     A
C1045  C1102   1.529   .     S
C1046  H1054   1.085   .     S
C1046  C138    1.398   1_556 S
C1047  C1048   1.413   .     A
C1047  C1049   1.403   .     A
C1048  C1051   1.409   .     A
C1049  C1050   1.395   .     A
C1049  H1056   1.084   .     S
C1050  H1053   1.083   .     S
C1051  H1052   1.082   .     S
C1057  H1159   1.088   .     S
C1057  C1160   1.334   .     S
H1060  C1160   1.086   .     S
C1061  C1365   1.356   .     S
C1061  C1376   1.539   .     S
C1062  N1083   1.433   .     S
C1062  C1667   1.356   1_545 S
C1063  H1071   1.110   .     S
C1063  C1064   1.535   .     S
C1063  H1072   1.109   .     S
C1064  H1070   1.110   .     S
C1064  H1069   1.113   .     S
C1065  H1066   1.111   .     S
C1065  H1067   1.111   .     S
C1065  H1068   1.109   .     S
C1065  C1165   1.518   .     S
C1073  H1081   1.112   .     S
C1073  H1082   1.112   .     S
C1073  C1667   1.539   1_545 S
C1073  C1680   1.538   1_545 S
C1074  H1080   1.112   .     S
C1074  H1079   1.111   .     S
C1074  C1075   1.528   .     S
C1074  C1376   1.538   .     S
C1075  H1078   1.111   .     S
C1075  H1076   1.111   .     S
C1075  H1380   1.111   .     S
H1077  C1681   1.111   1_545 S
N1083  O1085   1.301   .     A
N1083  O1690   1.300   1_545 S
O1084  N1386   1.300   .     S
C1086  H1094   1.110   .     S
C1086  C1087   1.535   .     S
C1086  H186    1.106   1_556 S
C1087  H1093   1.109   .     S
C1087  H1092   1.112   .     S
C1087  C482    1.529   1_556 S
C1088  H1090   1.111   .     S
C1088  H1089   1.111   .     S
C1088  H1091   1.106   .     S
C1088  C784    1.529   1_545 S
N1096  O1098   1.301   .     A
N1096  O1097   1.300   .     A
N1099  O1101   1.301   .     A
N1099  O1100   1.302   .     A
C1102  H1111   1.112   .     S
C1102  H1110   1.104   .     S
C1102  C1103   1.542   .     S
C1103  C1104   1.521   .     S
C1103  H1109   1.106   .     S
C1103  H1108   1.108   .     S
C1104  H1107   1.110   .     S
C1104  H1106   1.107   .     S
C1104  H1105   1.111   .     S
Zn1112 O1116   1.952   .     S
Zn1112 O1118   1.933   .     S
Zn1112 O1124   1.907   .     S
Zn1112 O1125   1.948   .     S
Zn1113 O1127   1.932   .     S
Zn1113 O1116   1.939   .     S
Zn1113 O1121   1.913   .     S
Zn1113 O1119   1.954   .     S
Zn1114 O1123   1.910   .     S
Zn1114 O1120   1.948   .     S
Zn1114 O1116   1.945   .     S
Zn1114 O1128   1.937   .     S
Zn1115 O1117   1.935   .     S
Zn1115 O1122   1.916   .     S
Zn1115 O1116   1.934   .     S
Zn1115 O1126   1.953   .     S
O1117  C1129   1.269   .     A
O1118  C1130   1.279   .     A
O1119  C1131   1.277   .     A
O1120  C1132   1.271   .     A
O1121  C1133   1.276   .     A
O1122  C1134   1.286   .     A
O1123  C1133   1.288   .     A
O1124  C1134   1.296   .     A
O1125  C1131   1.262   .     A
O1126  C1132   1.277   .     A
O1127  C1129   1.269   .     A
O1128  C1130   1.281   .     A
C1129  C1160   1.438   .     S
C1130  C1158   1.455   .     S
C1131  C1163   1.442   .     S
C1132  C1162   1.476   .     S
C1133  C1136   1.458   .     S
C1134  C1135   1.491   .     S
C1135  C1138   1.419   .     A
C1135  C1139   1.396   .     A
C1136  C1151   1.399   .     A
C1136  C1152   1.393   .     A
C1137  C1138   1.416   .     A
C1137  C1187   1.530   .     S
C1137  C1141   1.421   .     A
C1138  N1197   1.432   .     S
C1139  H1156   1.076   .     S
C1139  C1140   1.401   .     A
C1140  C1141   1.414   .     A
C1140  C1142   1.420   .     A
C1141  C236    1.409   1_556 S
C1142  C1146   1.429   .     A
C1142  C234    1.419   1_556 S
C1143  C1149   1.415   .     A
C1143  C1144   1.424   .     A
C1144  N1200   1.439   .     S
C1144  C1145   1.409   .     A
C1145  C1164   1.522   .     S
C1146  C1147   1.405   .     A
C1146  C1203   1.529   .     S
C1147  H1155   1.085   .     S
C1147  C239    1.398   1_556 S
C1148  C1149   1.413   .     A
C1148  C1150   1.403   .     A
C1149  C1152   1.409   .     A
C1150  C1151   1.395   .     A
C1150  H1157   1.084   .     S
C1151  H1154   1.083   .     S
C1152  H1153   1.082   .     S
C1158  H957    1.088   1_655 S
C1158  C958    1.334   1_655 S
H1161  C958    1.086   1_655 S
C1162  C1466   1.356   .     S
C1162  C1477   1.539   .     S
C1163  N1184   1.433   .     S
C1163  C1768   1.356   1_545 S
C1164  H1172   1.110   .     S
C1164  C1165   1.535   .     S
C1164  H1173   1.109   .     S
C1165  H1171   1.110   .     S
C1165  H1170   1.113   .     S
C1166  H1167   1.111   .     S
C1166  H1168   1.111   .     S
C1166  H1169   1.109   .     S
C1166  C963    1.518   1_655 S
C1174  H1182   1.112   .     S
C1174  H1183   1.112   .     S
C1174  C1768   1.539   1_545 S
C1174  C1781   1.538   1_545 S
C1175  H1181   1.112   .     S
C1175  H1180   1.111   .     S
C1175  C1176   1.528   .     S
C1175  C1477   1.538   .     S
C1176  H1179   1.111   .     S
C1176  H1177   1.111   .     S
C1176  H1481   1.111   .     S
H1178  C1782   1.111   1_545 S
N1184  O1186   1.301   .     A
N1184  O1791   1.300   1_545 S
O1185  N1487   1.300   .     S
C1187  H1195   1.110   .     S
C1187  C1188   1.535   .     S
C1187  H287    1.106   1_556 S
C1188  H1194   1.109   .     S
C1188  H1193   1.112   .     S
C1188  C583    1.529   1_556 S
C1189  H1191   1.111   .     S
C1189  H1190   1.111   .     S
C1189  H1192   1.106   .     S
C1189  C885    1.529   1_545 S
N1197  O1199   1.301   .     A
N1197  O1198   1.300   .     A
N1200  O1202   1.301   .     A
N1200  O1201   1.302   .     A
C1203  H1212   1.112   .     S
C1203  H1211   1.104   .     S
C1203  C1204   1.542   .     S
C1204  C1205   1.521   .     S
C1204  H1210   1.106   .     S
C1204  H1209   1.108   .     S
C1205  H1208   1.110   .     S
C1205  H1207   1.107   .     S
C1205  H1206   1.111   .     S
Zn1213 O1217   1.952   .     S
Zn1213 O1219   1.933   .     S
Zn1213 O1225   1.907   .     S
Zn1213 O1226   1.948   .     S
Zn1214 O1228   1.932   .     S
Zn1214 O1217   1.939   .     S
Zn1214 O1222   1.913   .     S
Zn1214 O1220   1.954   .     S
Zn1215 O1224   1.910   .     S
Zn1215 O1221   1.948   .     S
Zn1215 O1217   1.945   .     S
Zn1215 O1229   1.937   .     S
Zn1216 O1218   1.935   .     S
Zn1216 O1223   1.916   .     S
Zn1216 O1217   1.934   .     S
Zn1216 O1227   1.953   .     S
O1218  C1230   1.269   .     A
O1219  C1231   1.279   .     A
O1220  C1232   1.277   .     A
O1221  C1233   1.271   .     A
O1222  C1234   1.276   .     A
O1223  C1235   1.286   .     A
O1224  C1234   1.288   .     A
O1225  C1235   1.296   .     A
O1226  C1232   1.262   .     A
O1227  C1233   1.277   .     A
O1228  C1230   1.269   .     A
O1229  C1231   1.281   .     A
C1230  C1261   1.438   .     S
C1231  C1259   1.455   .     S
C1232  C1264   1.442   .     S
C1233  C1263   1.476   .     S
C1234  C1237   1.458   .     S
C1235  C1236   1.491   .     S
C1236  C1239   1.419   .     A
C1236  C1240   1.396   .     A
C1237  C1252   1.399   .     A
C1237  C1253   1.393   .     A
C1238  C1239   1.416   .     A
C1238  C1288   1.530   .     S
C1238  C1242   1.421   .     A
C1239  N1298   1.432   .     S
C1240  H1257   1.076   .     S
C1240  C1241   1.401   .     A
C1241  C1242   1.414   .     A
C1241  C1243   1.420   .     A
C1242  C337    1.409   1_556 S
C1243  C1247   1.429   .     A
C1243  C335    1.419   1_556 S
C1244  C1250   1.415   .     A
C1244  C1245   1.424   .     A
C1245  N1301   1.439   .     S
C1245  C1246   1.409   .     A
C1246  C1265   1.522   .     S
C1247  C1248   1.405   .     A
C1247  C1304   1.529   .     S
C1248  H1256   1.085   .     S
C1248  C340    1.398   1_556 S
C1249  C1250   1.413   .     A
C1249  C1251   1.403   .     A
C1250  C1253   1.409   .     A
C1251  C1252   1.395   .     A
C1251  H1258   1.084   .     S
C1252  H1255   1.083   .     S
C1253  H1254   1.082   .     S
C1259  H1361   1.088   .     S
C1259  C1362   1.334   .     S
H1260  C1461   1.088   1_455 S
C1261  C1461   1.334   1_455 S
C1261  H1464   1.086   1_455 S
H1262  C1362   1.086   .     S
C1263  C1567   1.356   .     S
C1263  C1578   1.539   .     S
C1264  N1285   1.433   .     S
C1265  H1273   1.110   .     S
C1265  C1266   1.535   .     S
C1265  H1274   1.109   .     S
C1266  H1272   1.110   .     S
C1266  H1271   1.113   .     S
C1266  C1469   1.518   1_455 S
C1267  H1268   1.111   .     S
C1267  H1269   1.111   .     S
C1267  H1270   1.109   .     S
C1267  C1367   1.518   .     S
C1275  H1283   1.112   .     S
C1275  H1284   1.112   .     S
C1276  H1282   1.112   .     S
C1276  H1281   1.111   .     S
C1276  C1277   1.528   .     S
C1276  C1578   1.538   .     S
C1277  H1280   1.111   .     S
C1277  H1278   1.111   .     S
C1277  H1582   1.111   .     S
N1285  O1287   1.301   .     A
O1286  N1588   1.300   .     S
C1288  H1296   1.110   .     S
C1288  C1289   1.535   .     S
C1288  H388    1.106   1_556 S
C1289  H1295   1.109   .     S
C1289  H1294   1.112   .     S
C1289  C684    1.529   1_556 S
C1290  H1292   1.111   .     S
C1290  H1291   1.111   .     S
C1290  H1293   1.106   .     S
N1298  O1300   1.301   .     A
N1298  O1299   1.300   .     A
N1301  O1303   1.301   .     A
N1301  O1302   1.302   .     A
C1304  H1313   1.112   .     S
C1304  H1312   1.104   .     S
C1304  C1305   1.542   .     S
C1305  C1306   1.521   .     S
C1305  H1311   1.106   .     S
C1305  H1310   1.108   .     S
C1306  H1309   1.110   .     S
C1306  H1308   1.107   .     S
C1306  H1307   1.111   .     S
Zn1314 O1318   1.952   .     S
Zn1314 O1320   1.933   .     S
Zn1314 O1326   1.907   .     S
Zn1314 O1327   1.948   .     S
Zn1315 O1329   1.932   .     S
Zn1315 O1318   1.939   .     S
Zn1315 O1323   1.913   .     S
Zn1315 O1321   1.954   .     S
Zn1316 O1325   1.910   .     S
Zn1316 O1322   1.948   .     S
Zn1316 O1318   1.945   .     S
Zn1316 O1330   1.937   .     S
Zn1317 O1319   1.935   .     S
Zn1317 O1324   1.916   .     S
Zn1317 O1318   1.934   .     S
Zn1317 O1328   1.953   .     S
O1319  C1331   1.269   .     A
O1320  C1332   1.279   .     A
O1321  C1333   1.277   .     A
O1322  C1334   1.271   .     A
O1323  C1335   1.276   .     A
O1324  C1336   1.286   .     A
O1325  C1335   1.288   .     A
O1326  C1336   1.296   .     A
O1327  C1333   1.262   .     A
O1328  C1334   1.277   .     A
O1329  C1331   1.269   .     A
O1330  C1332   1.281   .     A
C1331  C1362   1.438   .     S
C1332  C1360   1.455   .     S
C1333  C1365   1.442   .     S
C1334  C1364   1.476   .     S
C1335  C1338   1.458   .     S
C1336  C1337   1.491   .     S
C1337  C1340   1.419   .     A
C1337  C1341   1.396   .     A
C1338  C1353   1.399   .     A
C1338  C1354   1.393   .     A
C1339  C1340   1.416   .     A
C1339  C1389   1.530   .     S
C1339  C1343   1.421   .     A
C1340  N1399   1.432   .     S
C1341  H1358   1.076   .     S
C1341  C1342   1.401   .     A
C1342  C1343   1.414   .     A
C1342  C1344   1.420   .     A
C1343  C438    1.409   1_556 S
C1344  C1348   1.429   .     A
C1344  C436    1.419   1_556 S
C1345  C1351   1.415   .     A
C1345  C1346   1.424   .     A
C1346  N1402   1.439   .     S
C1346  C1347   1.409   .     A
C1347  C1366   1.522   .     S
C1348  C1349   1.405   .     A
C1348  C1405   1.529   .     S
C1349  H1357   1.085   .     S
C1349  C441    1.398   1_556 S
C1350  C1351   1.413   .     A
C1350  C1352   1.403   .     A
C1351  C1354   1.409   .     A
C1352  C1353   1.395   .     A
C1352  H1359   1.084   .     S
C1353  H1356   1.083   .     S
C1354  H1355   1.082   .     S
C1360  H1462   1.088   .     S
C1360  C1463   1.334   .     S
H1363  C1463   1.086   .     S
C1364  C1668   1.356   .     S
C1364  C1679   1.539   .     S
C1365  N1386   1.433   .     S
C1366  H1374   1.110   .     S
C1366  C1367   1.535   .     S
C1366  H1375   1.109   .     S
C1367  H1373   1.110   .     S
C1367  H1372   1.113   .     S
C1368  H1369   1.111   .     S
C1368  H1370   1.111   .     S
C1368  H1371   1.109   .     S
C1368  C1468   1.518   .     S
C1376  H1384   1.112   .     S
C1376  H1385   1.112   .     S
C1377  H1383   1.112   .     S
C1377  H1382   1.111   .     S
C1377  C1378   1.528   .     S
C1377  C1679   1.538   .     S
C1378  H1381   1.111   .     S
C1378  H1379   1.111   .     S
C1378  H1683   1.111   .     S
N1386  O1388   1.301   .     A
O1387  N1689   1.300   .     S
C1389  H1397   1.110   .     S
C1389  C1390   1.535   .     S
C1389  H489    1.106   1_556 S
C1390  H1396   1.109   .     S
C1390  H1395   1.112   .     S
C1390  C785    1.529   1_556 S
C1391  H1393   1.111   .     S
C1391  H1392   1.111   .     S
C1391  H1394   1.106   .     S
N1399  O1401   1.301   .     A
N1399  O1400   1.300   .     A
N1402  O1404   1.301   .     A
N1402  O1403   1.302   .     A
C1405  H1414   1.112   .     S
C1405  H1413   1.104   .     S
C1405  C1406   1.542   .     S
C1406  C1407   1.521   .     S
C1406  H1412   1.106   .     S
C1406  H1411   1.108   .     S
C1407  H1410   1.110   .     S
C1407  H1409   1.107   .     S
C1407  H1408   1.111   .     S
Zn1415 O1419   1.952   .     S
Zn1415 O1421   1.933   .     S
Zn1415 O1427   1.907   .     S
Zn1415 O1428   1.948   .     S
Zn1416 O1430   1.932   .     S
Zn1416 O1419   1.939   .     S
Zn1416 O1424   1.913   .     S
Zn1416 O1422   1.954   .     S
Zn1417 O1426   1.910   .     S
Zn1417 O1423   1.948   .     S
Zn1417 O1419   1.945   .     S
Zn1417 O1431   1.937   .     S
Zn1418 O1420   1.935   .     S
Zn1418 O1425   1.916   .     S
Zn1418 O1419   1.934   .     S
Zn1418 O1429   1.953   .     S
O1420  C1432   1.269   .     A
O1421  C1433   1.279   .     A
O1422  C1434   1.277   .     A
O1423  C1435   1.271   .     A
O1424  C1436   1.276   .     A
O1425  C1437   1.286   .     A
O1426  C1436   1.288   .     A
O1427  C1437   1.296   .     A
O1428  C1434   1.262   .     A
O1429  C1435   1.277   .     A
O1430  C1432   1.269   .     A
O1431  C1433   1.281   .     A
C1432  C1463   1.438   .     S
C1433  C1461   1.455   .     S
C1434  C1466   1.442   .     S
C1435  C1465   1.476   .     S
C1436  C1439   1.458   .     S
C1437  C1438   1.491   .     S
C1438  C1441   1.419   .     A
C1438  C1442   1.396   .     A
C1439  C1454   1.399   .     A
C1439  C1455   1.393   .     A
C1440  C1441   1.416   .     A
C1440  C1490   1.530   .     S
C1440  C1444   1.421   .     A
C1441  N1500   1.432   .     S
C1442  H1459   1.076   .     S
C1442  C1443   1.401   .     A
C1443  C1444   1.414   .     A
C1443  C1445   1.420   .     A
C1444  C539    1.409   1_556 S
C1445  C1449   1.429   .     A
C1445  C537    1.419   1_556 S
C1446  C1452   1.415   .     A
C1446  C1447   1.424   .     A
C1447  N1503   1.439   .     S
C1447  C1448   1.409   .     A
C1448  C1467   1.522   .     S
C1449  C1450   1.405   .     A
C1449  C1506   1.529   .     S
C1450  H1458   1.085   .     S
C1450  C542    1.398   1_556 S
C1451  C1452   1.413   .     A
C1451  C1453   1.403   .     A
C1452  C1455   1.409   .     A
C1453  C1454   1.395   .     A
C1453  H1460   1.084   .     S
C1454  H1457   1.083   .     S
C1455  H1456   1.082   .     S
C1461  H1260   1.088   1_655 S
C1461  C1261   1.334   1_655 S
H1464  C1261   1.086   1_655 S
C1465  C1769   1.356   .     S
C1465  C1780   1.539   .     S
C1466  N1487   1.433   .     S
C1467  H1475   1.110   .     S
C1467  C1468   1.535   .     S
C1467  H1476   1.109   .     S
C1468  H1474   1.110   .     S
C1468  H1473   1.113   .     S
C1469  H1470   1.111   .     S
C1469  H1471   1.111   .     S
C1469  H1472   1.109   .     S
C1469  C1266   1.518   1_655 S
C1477  H1485   1.112   .     S
C1477  H1486   1.112   .     S
C1478  H1484   1.112   .     S
C1478  H1483   1.111   .     S
C1478  C1479   1.528   .     S
C1478  C1780   1.538   .     S
C1479  H1482   1.111   .     S
C1479  H1480   1.111   .     S
C1479  H1784   1.111   .     S
N1487  O1489   1.301   .     A
O1488  N1790   1.300   .     S
C1490  H1498   1.110   .     S
C1490  C1491   1.535   .     S
C1490  H590    1.106   1_556 S
C1491  H1497   1.109   .     S
C1491  H1496   1.112   .     S
C1491  C886    1.529   1_556 S
C1492  H1494   1.111   .     S
C1492  H1493   1.111   .     S
C1492  H1495   1.106   .     S
N1500  O1502   1.301   .     A
N1500  O1501   1.300   .     A
N1503  O1505   1.301   .     A
N1503  O1504   1.302   .     A
C1506  H1515   1.112   .     S
C1506  H1514   1.104   .     S
C1506  C1507   1.542   .     S
C1507  C1508   1.521   .     S
C1507  H1513   1.106   .     S
C1507  H1512   1.108   .     S
C1508  H1511   1.110   .     S
C1508  H1510   1.107   .     S
C1508  H1509   1.111   .     S
Zn1516 O1520   1.952   .     S
Zn1516 O1522   1.933   .     S
Zn1516 O1528   1.907   .     S
Zn1516 O1529   1.948   .     S
Zn1517 O1531   1.932   .     S
Zn1517 O1520   1.939   .     S
Zn1517 O1525   1.913   .     S
Zn1517 O1523   1.954   .     S
Zn1518 O1527   1.910   .     S
Zn1518 O1524   1.948   .     S
Zn1518 O1520   1.945   .     S
Zn1518 O1532   1.937   .     S
Zn1519 O1521   1.935   .     S
Zn1519 O1526   1.916   .     S
Zn1519 O1520   1.934   .     S
Zn1519 O1530   1.953   .     S
O1521  C1533   1.269   .     A
O1522  C1534   1.279   .     A
O1523  C1535   1.277   .     A
O1524  C1536   1.271   .     A
O1525  C1537   1.276   .     A
O1526  C1538   1.286   .     A
O1527  C1537   1.288   .     A
O1528  C1538   1.296   .     A
O1529  C1535   1.262   .     A
O1530  C1536   1.277   .     A
O1531  C1533   1.269   .     A
O1532  C1534   1.281   .     A
C1533  C1564   1.438   .     S
C1534  C1562   1.455   .     S
C1535  C1567   1.442   .     S
C1536  C1566   1.476   .     S
C1537  C1540   1.458   .     S
C1538  C1539   1.491   .     S
C1539  C1542   1.419   .     A
C1539  C1543   1.396   .     A
C1540  C1555   1.399   .     A
C1540  C1556   1.393   .     A
C1541  C1542   1.416   .     A
C1541  C1591   1.530   .     S
C1541  C1545   1.421   .     A
C1542  N1601   1.432   .     S
C1543  H1560   1.076   .     S
C1543  C1544   1.401   .     A
C1544  C1545   1.414   .     A
C1544  C1546   1.420   .     A
C1545  C640    1.409   1_556 S
C1546  C1550   1.429   .     A
C1546  C638    1.419   1_556 S
C1547  C1553   1.415   .     A
C1547  C1548   1.424   .     A
C1548  N1604   1.439   .     S
C1548  C1549   1.409   .     A
C1549  C1568   1.522   .     S
C1550  C1551   1.405   .     A
C1550  C1607   1.529   .     S
C1551  H1559   1.085   .     S
C1551  C643    1.398   1_556 S
C1552  C1553   1.413   .     A
C1552  C1554   1.403   .     A
C1553  C1556   1.409   .     A
C1554  C1555   1.395   .     A
C1554  H1561   1.084   .     S
C1555  H1558   1.083   .     S
C1556  H1557   1.082   .     S
C1562  H1664   1.088   .     S
C1562  C1665   1.334   .     S
H1563  C1764   1.088   1_455 S
C1564  C1764   1.334   1_455 S
C1564  H1767   1.086   1_455 S
H1565  C1665   1.086   .     S
C1566  C961    1.356   1_565 S
C1566  C972    1.539   1_565 S
C1567  N1588   1.433   .     S
C1568  H1576   1.110   .     S
C1568  C1569   1.535   .     S
C1568  H1577   1.109   .     S
C1569  H1575   1.110   .     S
C1569  H1574   1.113   .     S
C1569  C1772   1.518   1_455 S
C1570  H1571   1.111   .     S
C1570  H1572   1.111   .     S
C1570  H1573   1.109   .     S
C1570  C1670   1.518   .     S
C1578  H1586   1.112   .     S
C1578  H1587   1.112   .     S
C1579  H1585   1.112   .     S
C1579  H1584   1.111   .     S
C1579  C1580   1.528   .     S
C1579  C972    1.538   1_565 S
C1580  H1583   1.111   .     S
C1580  H1581   1.111   .     S
C1580  H976    1.111   1_565 S
N1588  O1590   1.301   .     A
O1589  N982    1.300   1_565 S
C1591  H1599   1.110   .     S
C1591  C1592   1.535   .     S
C1591  H691    1.106   1_556 S
C1592  H1598   1.109   .     S
C1592  H1597   1.112   .     S
C1592  C78     1.529   1_566 S
C1593  H1595   1.111   .     S
C1593  H1594   1.111   .     S
C1593  H1596   1.106   .     S
N1601  O1603   1.301   .     A
N1601  O1602   1.300   .     A
N1604  O1606   1.301   .     A
N1604  O1605   1.302   .     A
C1607  H1616   1.112   .     S
C1607  H1615   1.104   .     S
C1607  C1608   1.542   .     S
C1608  C1609   1.521   .     S
C1608  H1614   1.106   .     S
C1608  H1613   1.108   .     S
C1609  H1612   1.110   .     S
C1609  H1611   1.107   .     S
C1609  H1610   1.111   .     S
Zn1617 O1621   1.952   .     S
Zn1617 O1623   1.933   .     S
Zn1617 O1629   1.907   .     S
Zn1617 O1630   1.948   .     S
Zn1618 O1632   1.932   .     S
Zn1618 O1621   1.939   .     S
Zn1618 O1626   1.913   .     S
Zn1618 O1624   1.954   .     S
Zn1619 O1628   1.910   .     S
Zn1619 O1625   1.948   .     S
Zn1619 O1621   1.945   .     S
Zn1619 O1633   1.937   .     S
Zn1620 O1622   1.935   .     S
Zn1620 O1627   1.916   .     S
Zn1620 O1621   1.934   .     S
Zn1620 O1631   1.953   .     S
O1622  C1634   1.269   .     A
O1623  C1635   1.279   .     A
O1624  C1636   1.277   .     A
O1625  C1637   1.271   .     A
O1626  C1638   1.276   .     A
O1627  C1639   1.286   .     A
O1628  C1638   1.288   .     A
O1629  C1639   1.296   .     A
O1630  C1636   1.262   .     A
O1631  C1637   1.277   .     A
O1632  C1634   1.269   .     A
O1633  C1635   1.281   .     A
C1634  C1665   1.438   .     S
C1635  C1663   1.455   .     S
C1636  C1668   1.442   .     S
C1637  C1667   1.476   .     S
C1638  C1641   1.458   .     S
C1639  C1640   1.491   .     S
C1640  C1643   1.419   .     A
C1640  C1644   1.396   .     A
C1641  C1656   1.399   .     A
C1641  C1657   1.393   .     A
C1642  C1643   1.416   .     A
C1642  C1692   1.530   .     S
C1642  C1646   1.421   .     A
C1643  N1702   1.432   .     S
C1644  H1661   1.076   .     S
C1644  C1645   1.401   .     A
C1645  C1646   1.414   .     A
C1645  C1647   1.420   .     A
C1646  C741    1.409   1_556 S
C1647  C1651   1.429   .     A
C1647  C739    1.419   1_556 S
C1648  C1654   1.415   .     A
C1648  C1649   1.424   .     A
C1649  N1705   1.439   .     S
C1649  C1650   1.409   .     A
C1650  C1669   1.522   .     S
C1651  C1652   1.405   .     A
C1651  C1708   1.529   .     S
C1652  H1660   1.085   .     S
C1652  C744    1.398   1_556 S
C1653  C1654   1.413   .     A
C1653  C1655   1.403   .     A
C1654  C1657   1.409   .     A
C1655  C1656   1.395   .     A
C1655  H1662   1.084   .     S
C1656  H1659   1.083   .     S
C1657  H1658   1.082   .     S
C1663  H1765   1.088   .     S
C1663  C1766   1.334   .     S
H1666  C1766   1.086   .     S
C1667  C1062   1.356   1_565 S
C1667  C1073   1.539   1_565 S
C1668  N1689   1.433   .     S
C1669  H1677   1.110   .     S
C1669  C1670   1.535   .     S
C1669  H1678   1.109   .     S
C1670  H1676   1.110   .     S
C1670  H1675   1.113   .     S
C1671  H1672   1.111   .     S
C1671  H1673   1.111   .     S
C1671  H1674   1.109   .     S
C1671  C1771   1.518   .     S
C1679  H1687   1.112   .     S
C1679  H1688   1.112   .     S
C1680  H1686   1.112   .     S
C1680  H1685   1.111   .     S
C1680  C1681   1.528   .     S
C1680  C1073   1.538   1_565 S
C1681  H1684   1.111   .     S
C1681  H1682   1.111   .     S
C1681  H1077   1.111   1_565 S
N1689  O1691   1.301   .     A
O1690  N1083   1.300   1_565 S
C1692  H1700   1.110   .     S
C1692  C1693   1.535   .     S
C1692  H792    1.106   1_556 S
C1693  H1699   1.109   .     S
C1693  H1698   1.112   .     S
C1693  C179    1.529   1_566 S
C1694  H1696   1.111   .     S
C1694  H1695   1.111   .     S
C1694  H1697   1.106   .     S
N1702  O1704   1.301   .     A
N1702  O1703   1.300   .     A
N1705  O1707   1.301   .     A
N1705  O1706   1.302   .     A
C1708  H1717   1.112   .     S
C1708  H1716   1.104   .     S
C1708  C1709   1.542   .     S
C1709  C1710   1.521   .     S
C1709  H1715   1.106   .     S
C1709  H1714   1.108   .     S
C1710  H1713   1.110   .     S
C1710  H1712   1.107   .     S
C1710  H1711   1.111   .     S
Zn1718 O1722   1.952   .     S
Zn1718 O1724   1.933   .     S
Zn1718 O1730   1.907   .     S
Zn1718 O1731   1.948   .     S
Zn1719 O1733   1.932   .     S
Zn1719 O1722   1.939   .     S
Zn1719 O1727   1.913   .     S
Zn1719 O1725   1.954   .     S
Zn1720 O1729   1.910   .     S
Zn1720 O1726   1.948   .     S
Zn1720 O1722   1.945   .     S
Zn1720 O1734   1.937   .     S
Zn1721 O1723   1.935   .     S
Zn1721 O1728   1.916   .     S
Zn1721 O1722   1.934   .     S
Zn1721 O1732   1.953   .     S
O1723  C1735   1.269   .     A
O1724  C1736   1.279   .     A
O1725  C1737   1.277   .     A
O1726  C1738   1.271   .     A
O1727  C1739   1.276   .     A
O1728  C1740   1.286   .     A
O1729  C1739   1.288   .     A
O1730  C1740   1.296   .     A
O1731  C1737   1.262   .     A
O1732  C1738   1.277   .     A
O1733  C1735   1.269   .     A
O1734  C1736   1.281   .     A
C1735  C1766   1.438   .     S
C1736  C1764   1.455   .     S
C1737  C1769   1.442   .     S
C1738  C1768   1.476   .     S
C1739  C1742   1.458   .     S
C1740  C1741   1.491   .     S
C1741  C1744   1.419   .     A
C1741  C1745   1.396   .     A
C1742  C1757   1.399   .     A
C1742  C1758   1.393   .     A
C1743  C1744   1.416   .     A
C1743  C1793   1.530   .     S
C1743  C1747   1.421   .     A
C1744  N1803   1.432   .     S
C1745  H1762   1.076   .     S
C1745  C1746   1.401   .     A
C1746  C1747   1.414   .     A
C1746  C1748   1.420   .     A
C1747  C842    1.409   1_556 S
C1748  C1752   1.429   .     A
C1748  C840    1.419   1_556 S
C1749  C1755   1.415   .     A
C1749  C1750   1.424   .     A
C1750  N1806   1.439   .     S
C1750  C1751   1.409   .     A
C1751  C1770   1.522   .     S
C1752  C1753   1.405   .     A
C1752  C1809   1.529   .     S
C1753  H1761   1.085   .     S
C1753  C845    1.398   1_556 S
C1754  C1755   1.413   .     A
C1754  C1756   1.403   .     A
C1755  C1758   1.409   .     A
C1756  C1757   1.395   .     A
C1756  H1763   1.084   .     S
C1757  H1760   1.083   .     S
C1758  H1759   1.082   .     S
C1764  H1563   1.088   1_655 S
C1764  C1564   1.334   1_655 S
H1767  C1564   1.086   1_655 S
C1768  C1163   1.356   1_565 S
C1768  C1174   1.539   1_565 S
C1769  N1790   1.433   .     S
C1770  H1778   1.110   .     S
C1770  C1771   1.535   .     S
C1770  H1779   1.109   .     S
C1771  H1777   1.110   .     S
C1771  H1776   1.113   .     S
C1772  H1773   1.111   .     S
C1772  H1774   1.111   .     S
C1772  H1775   1.109   .     S
C1772  C1569   1.518   1_655 S
C1780  H1788   1.112   .     S
C1780  H1789   1.112   .     S
C1781  H1787   1.112   .     S
C1781  H1786   1.111   .     S
C1781  C1782   1.528   .     S
C1781  C1174   1.538   1_565 S
C1782  H1785   1.111   .     S
C1782  H1783   1.111   .     S
C1782  H1178   1.111   1_565 S
N1790  O1792   1.301   .     A
O1791  N1184   1.300   1_565 S
C1793  H1801   1.110   .     S
C1793  C1794   1.535   .     S
C1793  H893    1.106   1_556 S
C1794  H1800   1.109   .     S
C1794  H1799   1.112   .     S
C1794  C280    1.529   1_566 S
C1795  H1797   1.111   .     S
C1795  H1796   1.111   .     S
C1795  H1798   1.106   .     S
N1803  O1805   1.301   .     A
N1803  O1804   1.300   .     A
N1806  O1808   1.301   .     A
N1806  O1807   1.302   .     A
C1809  H1818   1.112   .     S
C1809  H1817   1.104   .     S
C1809  C1810   1.542   .     S
C1810  C1811   1.521   .     S
C1810  H1816   1.106   .     S
C1810  H1815   1.108   .     S
C1811  H1814   1.110   .     S
C1811  H1813   1.107   .     S
C1811  H1812   1.111   .     S
