data_str_m1_o10_o18_pcu_sym.137
_audit_creation_date              2020-01-03
_audit_creation_method            'Materials Studio'
_symmetry_space_group_name_H-M    'P1'
_symmetry_Int_Tables_number       1
_symmetry_cell_setting            triclinic
loop_
_symmetry_equiv_pos_as_xyz
  x,y,z
_cell_length_a                    32.7066
_cell_length_b                    32.4807
_cell_length_c                    35.6946
_cell_angle_alpha                 97.9890
_cell_angle_beta                  72.9058
_cell_angle_gamma                 98.3646
loop_
_atom_site_label
_atom_site_type_symbol
_atom_site_fract_x
_atom_site_fract_y
_atom_site_fract_z
_atom_site_U_iso_or_equiv
_atom_site_adp_type
_atom_site_occupancy
C1     C     0.05285   0.16042   0.25832   0.00000  Uiso   1.00
C2     C     0.20829   0.14243   0.45870   0.00000  Uiso   1.00
C3     C     0.23473   0.13054   0.47839   0.00000  Uiso   1.00
C4     C     0.28097   0.17344   0.24136   0.00000  Uiso   1.00
C5     C     0.22178   0.13142   0.01921   0.00000  Uiso   1.00
C6     C     0.18006   0.14177   0.04090   0.00000  Uiso   1.00
C7     C     0.25076   0.12306   0.03865   0.00000  Uiso   1.00
C8     C     0.23945   0.12650   0.07958   0.00000  Uiso   1.00
C9     C     0.16901   0.14387   0.08240   0.00000  Uiso   1.00
C10    C     0.32666   0.17523   0.23812   0.00000  Uiso   1.00
C11    C     0.00741   0.15748   0.26327   0.00000  Uiso   1.00
C12    C     0.08687   0.19873   0.42148   0.00000  Uiso   1.00
C13    C     0.18091   0.32221   0.23816   0.00000  Uiso   1.00
C14    C     0.15168   0.01215   0.26229   0.00000  Uiso   1.00
C15    C     0.15595   0.05617   0.25897   0.00000  Uiso   1.00
C16    C     0.17687   0.27768   0.24137   0.00000  Uiso   1.00
C17    C     0.18848   0.14525   0.14404   0.00000  Uiso   1.00
C18    C     0.14431   0.18684   0.35638   0.00000  Uiso   1.00
C19    C     0.12877   0.18903   0.39993   0.00000  Uiso   1.00
C20    C     0.19865   0.13697   0.10137   0.00000  Uiso   1.00
C21    C     0.07199   0.19471   0.46219   0.00000  Uiso   1.00
C22    C     0.02850   0.20665   0.48442   0.00000  Uiso   1.00
C23    C     0.15535   0.17669   0.41957   0.00000  Uiso   1.00
C24    C     0.14079   0.17034   0.45977   0.00000  Uiso   1.00
C25    C     0.09850   0.17956   0.48119   0.00000  Uiso   1.00
C26    C     0.16725   0.15512   0.47921   0.00000  Uiso   1.00
C27    C     0.15194   0.15198   0.02054   0.00000  Uiso   1.00
C28    C     0.10900   0.15891   0.04016   0.00000  Uiso   1.00
C29    C     0.08294   0.17203   0.02089   0.00000  Uiso   1.00
H30    H     0.05011   0.17586   0.03773   0.00000  Uiso   1.00
H31    H     0.09398   0.15345   0.07049   0.00000  Uiso   1.00
H32    H     0.22112   0.14074   0.42717   0.00000  Uiso   1.00
H33    H     0.32013   0.10614   0.29276   0.00000  Uiso   1.00
H34    H     0.31823   0.15197   0.32175   0.00000  Uiso   1.00
H35    H     0.32581   0.24064   0.03076   0.00000  Uiso   1.00
H36    H     0.05317   0.18948   0.38070   0.00000  Uiso   1.00
H37    H     0.07263   0.24052   0.39092   0.00000  Uiso   1.00
H38    H     0.28270   0.11527   0.02221   0.00000  Uiso   1.00
H39    H     0.01628   0.19133   0.21452   0.00000  Uiso   1.00
H40    H     0.20789   0.00283   0.21598   0.00000  Uiso   1.00
H41    H     0.12432   0.33230   0.28454   0.00000  Uiso   1.00
H42    H     0.13890   0.15373   0.10100   0.00000  Uiso   1.00
H43    H     0.26271   0.12160   0.09431   0.00000  Uiso   1.00
H44    H     0.26617   0.12170   0.46153   0.00000  Uiso   1.00
H45    H     0.18761   0.17201   0.40224   0.00000  Uiso   1.00
N46    N     0.31231   0.13673   0.29576   0.00000  Uiso   1.00
N47    N     0.05859   0.21248   0.40282   0.00000  Uiso   1.00
O48    O     0.16667   0.16667   0.25000   0.00000  Uiso   1.00
O49    O     0.15693   0.12393   0.16625   0.00000  Uiso   1.00
O50    O     0.12687   0.20646   0.33749   0.00000  Uiso   1.00
O51    O     0.21088   0.17493   0.15877   0.00000  Uiso   1.00
O52    O     0.17198   0.16135   0.33749   0.00000  Uiso   1.00
O53    O     0.33057   0.19212   0.47278   0.00000  Uiso   1.00
O54    O     0.02353   0.23505   0.01826   0.00000  Uiso   1.00
O55    O     0.17849   0.08101   0.27820   0.00000  Uiso   1.00
O56    O     0.14581   0.26136   0.26767   0.00000  Uiso   1.00
O57    O     0.07452   0.13251   0.23607   0.00000  Uiso   1.00
O58    O     0.26785   0.19179   0.21805   0.00000  Uiso   1.00
O59    O     0.06990   0.18960   0.27820   0.00000  Uiso   1.00
O60    O     0.25440   0.15277   0.26767   0.00000  Uiso   1.00
O61    O     0.13800   0.06903   0.23607   0.00000  Uiso   1.00
O62    O     0.20437   0.25527   0.21805   0.00000  Uiso   1.00
Zn63   Zn    0.19244   0.14090   0.28277   0.00000  Uiso   1.00
Zn64   Zn    0.13459   0.12378   0.22257   0.00000  Uiso   1.00
Zn65   Zn    0.21166   0.19664   0.21188   0.00000  Uiso   1.00
Zn66   Zn    0.12798   0.20535   0.28277   0.00000  Uiso   1.00
C67    C     0.38618   0.16042   0.25832   0.00000  Uiso   1.00
C68    C     0.54162   0.14243   0.45870   0.00000  Uiso   1.00
C69    C     0.56807   0.13054   0.47839   0.00000  Uiso   1.00
C70    C     0.61430   0.17344   0.24136   0.00000  Uiso   1.00
C71    C     0.55512   0.13142   0.01921   0.00000  Uiso   1.00
C72    C     0.51339   0.14177   0.04090   0.00000  Uiso   1.00
C73    C     0.58409   0.12306   0.03865   0.00000  Uiso   1.00
C74    C     0.57278   0.12650   0.07958   0.00000  Uiso   1.00
C75    C     0.50235   0.14387   0.08240   0.00000  Uiso   1.00
C76    C     0.66000   0.17523   0.23812   0.00000  Uiso   1.00
C77    C     0.34074   0.15748   0.26327   0.00000  Uiso   1.00
C78    C     0.42020   0.19873   0.42148   0.00000  Uiso   1.00
C79    C     0.51424   0.32221   0.23816   0.00000  Uiso   1.00
C80    C     0.48502   0.01215   0.26229   0.00000  Uiso   1.00
C81    C     0.48928   0.05617   0.25897   0.00000  Uiso   1.00
C82    C     0.51020   0.27768   0.24137   0.00000  Uiso   1.00
C83    C     0.52182   0.14525   0.14404   0.00000  Uiso   1.00
C84    C     0.47765   0.18684   0.35638   0.00000  Uiso   1.00
C85    C     0.46211   0.18903   0.39993   0.00000  Uiso   1.00
C86    C     0.53198   0.13697   0.10137   0.00000  Uiso   1.00
C87    C     0.40533   0.19471   0.46219   0.00000  Uiso   1.00
C88    C     0.36183   0.20665   0.48442   0.00000  Uiso   1.00
C89    C     0.48868   0.17669   0.41957   0.00000  Uiso   1.00
C90    C     0.47412   0.17034   0.45977   0.00000  Uiso   1.00
C91    C     0.43183   0.17956   0.48119   0.00000  Uiso   1.00
C92    C     0.50058   0.15512   0.47921   0.00000  Uiso   1.00
C93    C     0.48528   0.15198   0.02054   0.00000  Uiso   1.00
C94    C     0.44234   0.15891   0.04016   0.00000  Uiso   1.00
C95    C     0.41627   0.17203   0.02089   0.00000  Uiso   1.00
H96    H     0.38344   0.17586   0.03773   0.00000  Uiso   1.00
H97    H     0.42731   0.15345   0.07049   0.00000  Uiso   1.00
H98    H     0.55445   0.14074   0.42717   0.00000  Uiso   1.00
H99    H     0.65347   0.10614   0.29276   0.00000  Uiso   1.00
H100   H     0.65156   0.15197   0.32175   0.00000  Uiso   1.00
H101   H     0.65914   0.24064   0.03076   0.00000  Uiso   1.00
H102   H     0.38650   0.18948   0.38070   0.00000  Uiso   1.00
H103   H     0.40597   0.24052   0.39092   0.00000  Uiso   1.00
H104   H     0.61603   0.11527   0.02221   0.00000  Uiso   1.00
H105   H     0.34961   0.19133   0.21452   0.00000  Uiso   1.00
H106   H     0.54122   0.00283   0.21598   0.00000  Uiso   1.00
H107   H     0.45766   0.33230   0.28454   0.00000  Uiso   1.00
H108   H     0.47223   0.15373   0.10100   0.00000  Uiso   1.00
H109   H     0.59604   0.12160   0.09431   0.00000  Uiso   1.00
H110   H     0.59950   0.12170   0.46153   0.00000  Uiso   1.00
H111   H     0.52094   0.17201   0.40224   0.00000  Uiso   1.00
N112   N     0.64564   0.13673   0.29576   0.00000  Uiso   1.00
N113   N     0.39192   0.21248   0.40282   0.00000  Uiso   1.00
O114   O     0.50000   0.16667   0.25000   0.00000  Uiso   1.00
O115   O     0.49027   0.12393   0.16625   0.00000  Uiso   1.00
O116   O     0.46020   0.20646   0.33749   0.00000  Uiso   1.00
O117   O     0.54421   0.17493   0.15877   0.00000  Uiso   1.00
O118   O     0.50532   0.16135   0.33749   0.00000  Uiso   1.00
O119   O     0.66390   0.19212   0.47278   0.00000  Uiso   1.00
O120   O     0.35686   0.23505   0.01826   0.00000  Uiso   1.00
O121   O     0.51182   0.08101   0.27820   0.00000  Uiso   1.00
O122   O     0.47914   0.26136   0.26767   0.00000  Uiso   1.00
O123   O     0.40785   0.13251   0.23607   0.00000  Uiso   1.00
O124   O     0.60119   0.19179   0.21805   0.00000  Uiso   1.00
O125   O     0.40323   0.18960   0.27820   0.00000  Uiso   1.00
O126   O     0.58773   0.15277   0.26767   0.00000  Uiso   1.00
O127   O     0.47133   0.06903   0.23607   0.00000  Uiso   1.00
O128   O     0.53771   0.25527   0.21805   0.00000  Uiso   1.00
Zn129  Zn    0.52577   0.14090   0.28277   0.00000  Uiso   1.00
Zn130  Zn    0.46792   0.12378   0.22257   0.00000  Uiso   1.00
Zn131  Zn    0.54500   0.19664   0.21188   0.00000  Uiso   1.00
Zn132  Zn    0.46131   0.20535   0.28277   0.00000  Uiso   1.00
C133   C     0.71952   0.16042   0.25832   0.00000  Uiso   1.00
C134   C     0.87496   0.14243   0.45870   0.00000  Uiso   1.00
C135   C     0.90140   0.13054   0.47839   0.00000  Uiso   1.00
C136   C     0.94764   0.17344   0.24136   0.00000  Uiso   1.00
C137   C     0.88845   0.13142   0.01921   0.00000  Uiso   1.00
C138   C     0.84672   0.14177   0.04090   0.00000  Uiso   1.00
C139   C     0.91742   0.12306   0.03865   0.00000  Uiso   1.00
C140   C     0.90612   0.12650   0.07958   0.00000  Uiso   1.00
C141   C     0.83568   0.14387   0.08240   0.00000  Uiso   1.00
C142   C     0.99333   0.17523   0.23812   0.00000  Uiso   1.00
C143   C     0.67407   0.15748   0.26327   0.00000  Uiso   1.00
C144   C     0.75353   0.19873   0.42148   0.00000  Uiso   1.00
C145   C     0.84758   0.32221   0.23816   0.00000  Uiso   1.00
C146   C     0.81835   0.01215   0.26229   0.00000  Uiso   1.00
C147   C     0.82261   0.05617   0.25897   0.00000  Uiso   1.00
C148   C     0.84354   0.27768   0.24137   0.00000  Uiso   1.00
C149   C     0.85515   0.14525   0.14404   0.00000  Uiso   1.00
C150   C     0.81098   0.18684   0.35638   0.00000  Uiso   1.00
C151   C     0.79544   0.18903   0.39993   0.00000  Uiso   1.00
C152   C     0.86531   0.13697   0.10137   0.00000  Uiso   1.00
C153   C     0.73866   0.19471   0.46219   0.00000  Uiso   1.00
C154   C     0.69516   0.20665   0.48442   0.00000  Uiso   1.00
C155   C     0.82202   0.17669   0.41957   0.00000  Uiso   1.00
C156   C     0.80746   0.17034   0.45977   0.00000  Uiso   1.00
C157   C     0.76516   0.17956   0.48119   0.00000  Uiso   1.00
C158   C     0.83391   0.15512   0.47921   0.00000  Uiso   1.00
C159   C     0.81861   0.15198   0.02054   0.00000  Uiso   1.00
C160   C     0.77567   0.15891   0.04016   0.00000  Uiso   1.00
C161   C     0.74961   0.17203   0.02089   0.00000  Uiso   1.00
H162   H     0.71677   0.17586   0.03773   0.00000  Uiso   1.00
H163   H     0.76065   0.15345   0.07049   0.00000  Uiso   1.00
H164   H     0.88778   0.14074   0.42717   0.00000  Uiso   1.00
H165   H     0.98680   0.10614   0.29276   0.00000  Uiso   1.00
H166   H     0.98490   0.15197   0.32175   0.00000  Uiso   1.00
H167   H     0.99248   0.24064   0.03076   0.00000  Uiso   1.00
H168   H     0.71984   0.18948   0.38070   0.00000  Uiso   1.00
H169   H     0.73930   0.24052   0.39092   0.00000  Uiso   1.00
H170   H     0.94937   0.11527   0.02221   0.00000  Uiso   1.00
H171   H     0.68294   0.19133   0.21452   0.00000  Uiso   1.00
H172   H     0.87456   0.00283   0.21598   0.00000  Uiso   1.00
H173   H     0.79099   0.33230   0.28454   0.00000  Uiso   1.00
H174   H     0.80557   0.15373   0.10100   0.00000  Uiso   1.00
H175   H     0.92937   0.12160   0.09431   0.00000  Uiso   1.00
H176   H     0.93284   0.12170   0.46153   0.00000  Uiso   1.00
H177   H     0.85428   0.17201   0.40224   0.00000  Uiso   1.00
N178   N     0.97897   0.13673   0.29576   0.00000  Uiso   1.00
N179   N     0.72526   0.21248   0.40282   0.00000  Uiso   1.00
O180   O     0.83333   0.16667   0.25000   0.00000  Uiso   1.00
O181   O     0.82360   0.12393   0.16625   0.00000  Uiso   1.00
O182   O     0.79354   0.20646   0.33749   0.00000  Uiso   1.00
O183   O     0.87755   0.17493   0.15877   0.00000  Uiso   1.00
O184   O     0.83865   0.16135   0.33749   0.00000  Uiso   1.00
O185   O     0.99723   0.19212   0.47278   0.00000  Uiso   1.00
O186   O     0.69020   0.23505   0.01826   0.00000  Uiso   1.00
O187   O     0.84515   0.08101   0.27820   0.00000  Uiso   1.00
O188   O     0.81247   0.26136   0.26767   0.00000  Uiso   1.00
O189   O     0.74119   0.13251   0.23607   0.00000  Uiso   1.00
O190   O     0.93452   0.19179   0.21805   0.00000  Uiso   1.00
O191   O     0.73656   0.18960   0.27820   0.00000  Uiso   1.00
O192   O     0.92106   0.15277   0.26767   0.00000  Uiso   1.00
O193   O     0.80467   0.06903   0.23607   0.00000  Uiso   1.00
O194   O     0.87104   0.25527   0.21805   0.00000  Uiso   1.00
Zn195  Zn    0.85910   0.14090   0.28277   0.00000  Uiso   1.00
Zn196  Zn    0.80125   0.12378   0.22257   0.00000  Uiso   1.00
Zn197  Zn    0.87833   0.19664   0.21188   0.00000  Uiso   1.00
Zn198  Zn    0.79465   0.20535   0.28277   0.00000  Uiso   1.00
C199   C     0.05285   0.49375   0.25832   0.00000  Uiso   1.00
C200   C     0.20829   0.47577   0.45870   0.00000  Uiso   1.00
C201   C     0.23473   0.46388   0.47839   0.00000  Uiso   1.00
C202   C     0.28097   0.50678   0.24136   0.00000  Uiso   1.00
C203   C     0.22178   0.46475   0.01921   0.00000  Uiso   1.00
C204   C     0.18006   0.47511   0.04090   0.00000  Uiso   1.00
C205   C     0.25076   0.45640   0.03865   0.00000  Uiso   1.00
C206   C     0.23945   0.45984   0.07958   0.00000  Uiso   1.00
C207   C     0.16901   0.47721   0.08240   0.00000  Uiso   1.00
C208   C     0.32666   0.50856   0.23812   0.00000  Uiso   1.00
C209   C     0.00741   0.49081   0.26327   0.00000  Uiso   1.00
C210   C     0.08687   0.53207   0.42148   0.00000  Uiso   1.00
C211   C     0.18091   0.65554   0.23816   0.00000  Uiso   1.00
C212   C     0.15168   0.34548   0.26229   0.00000  Uiso   1.00
C213   C     0.15595   0.38950   0.25897   0.00000  Uiso   1.00
C214   C     0.17687   0.61102   0.24137   0.00000  Uiso   1.00
C215   C     0.18848   0.47859   0.14404   0.00000  Uiso   1.00
C216   C     0.14431   0.52017   0.35638   0.00000  Uiso   1.00
C217   C     0.12877   0.52236   0.39993   0.00000  Uiso   1.00
C218   C     0.19865   0.47030   0.10137   0.00000  Uiso   1.00
C219   C     0.07199   0.52805   0.46219   0.00000  Uiso   1.00
C220   C     0.02850   0.53998   0.48442   0.00000  Uiso   1.00
C221   C     0.15535   0.51002   0.41957   0.00000  Uiso   1.00
C222   C     0.14079   0.50367   0.45977   0.00000  Uiso   1.00
C223   C     0.09850   0.51289   0.48119   0.00000  Uiso   1.00
C224   C     0.16725   0.48845   0.47921   0.00000  Uiso   1.00
C225   C     0.15194   0.48531   0.02054   0.00000  Uiso   1.00
C226   C     0.10900   0.49225   0.04016   0.00000  Uiso   1.00
C227   C     0.08294   0.50537   0.02089   0.00000  Uiso   1.00
H228   H     0.05011   0.50920   0.03773   0.00000  Uiso   1.00
H229   H     0.09398   0.48678   0.07049   0.00000  Uiso   1.00
H230   H     0.22112   0.47407   0.42717   0.00000  Uiso   1.00
H231   H     0.32013   0.43947   0.29276   0.00000  Uiso   1.00
H232   H     0.31823   0.48531   0.32175   0.00000  Uiso   1.00
H233   H     0.32581   0.57397   0.03076   0.00000  Uiso   1.00
H234   H     0.05317   0.52281   0.38070   0.00000  Uiso   1.00
H235   H     0.07263   0.57385   0.39092   0.00000  Uiso   1.00
H236   H     0.28270   0.44860   0.02221   0.00000  Uiso   1.00
H237   H     0.01628   0.52467   0.21452   0.00000  Uiso   1.00
H238   H     0.20789   0.33616   0.21598   0.00000  Uiso   1.00
H239   H     0.12432   0.66563   0.28454   0.00000  Uiso   1.00
H240   H     0.13890   0.48707   0.10100   0.00000  Uiso   1.00
H241   H     0.26271   0.45493   0.09431   0.00000  Uiso   1.00
H242   H     0.26617   0.45503   0.46153   0.00000  Uiso   1.00
H243   H     0.18761   0.50534   0.40224   0.00000  Uiso   1.00
N244   N     0.31231   0.47007   0.29576   0.00000  Uiso   1.00
N245   N     0.05859   0.54581   0.40282   0.00000  Uiso   1.00
O246   O     0.16667   0.50000   0.25000   0.00000  Uiso   1.00
O247   O     0.15693   0.45726   0.16625   0.00000  Uiso   1.00
O248   O     0.12687   0.53979   0.33749   0.00000  Uiso   1.00
O249   O     0.21088   0.50826   0.15877   0.00000  Uiso   1.00
O250   O     0.17198   0.49468   0.33749   0.00000  Uiso   1.00
O251   O     0.33057   0.52545   0.47278   0.00000  Uiso   1.00
O252   O     0.02353   0.56839   0.01826   0.00000  Uiso   1.00
O253   O     0.17849   0.41434   0.27820   0.00000  Uiso   1.00
O254   O     0.14581   0.59469   0.26767   0.00000  Uiso   1.00
O255   O     0.07452   0.46584   0.23607   0.00000  Uiso   1.00
O256   O     0.26785   0.52512   0.21805   0.00000  Uiso   1.00
O257   O     0.06990   0.52293   0.27820   0.00000  Uiso   1.00
O258   O     0.25440   0.48610   0.26767   0.00000  Uiso   1.00
O259   O     0.13800   0.40236   0.23607   0.00000  Uiso   1.00
O260   O     0.20437   0.58860   0.21805   0.00000  Uiso   1.00
Zn261  Zn    0.19244   0.47423   0.28277   0.00000  Uiso   1.00
Zn262  Zn    0.13459   0.45711   0.22257   0.00000  Uiso   1.00
Zn263  Zn    0.21166   0.52997   0.21188   0.00000  Uiso   1.00
Zn264  Zn    0.12798   0.53868   0.28277   0.00000  Uiso   1.00
C265   C     0.38618   0.49375   0.25832   0.00000  Uiso   1.00
C266   C     0.54162   0.47577   0.45870   0.00000  Uiso   1.00
C267   C     0.56807   0.46388   0.47839   0.00000  Uiso   1.00
C268   C     0.61430   0.50678   0.24136   0.00000  Uiso   1.00
C269   C     0.55512   0.46475   0.01921   0.00000  Uiso   1.00
C270   C     0.51339   0.47511   0.04090   0.00000  Uiso   1.00
C271   C     0.58409   0.45640   0.03865   0.00000  Uiso   1.00
C272   C     0.57278   0.45984   0.07958   0.00000  Uiso   1.00
C273   C     0.50235   0.47721   0.08240   0.00000  Uiso   1.00
C274   C     0.66000   0.50856   0.23812   0.00000  Uiso   1.00
C275   C     0.34074   0.49081   0.26327   0.00000  Uiso   1.00
C276   C     0.42020   0.53207   0.42148   0.00000  Uiso   1.00
C277   C     0.51424   0.65554   0.23816   0.00000  Uiso   1.00
C278   C     0.48502   0.34548   0.26229   0.00000  Uiso   1.00
C279   C     0.48928   0.38950   0.25897   0.00000  Uiso   1.00
C280   C     0.51020   0.61102   0.24137   0.00000  Uiso   1.00
C281   C     0.52182   0.47859   0.14404   0.00000  Uiso   1.00
C282   C     0.47765   0.52017   0.35638   0.00000  Uiso   1.00
C283   C     0.46211   0.52236   0.39993   0.00000  Uiso   1.00
C284   C     0.53198   0.47030   0.10137   0.00000  Uiso   1.00
C285   C     0.40533   0.52805   0.46219   0.00000  Uiso   1.00
C286   C     0.36183   0.53998   0.48442   0.00000  Uiso   1.00
C287   C     0.48868   0.51002   0.41957   0.00000  Uiso   1.00
C288   C     0.47412   0.50367   0.45977   0.00000  Uiso   1.00
C289   C     0.43183   0.51289   0.48119   0.00000  Uiso   1.00
C290   C     0.50058   0.48845   0.47921   0.00000  Uiso   1.00
C291   C     0.48528   0.48531   0.02054   0.00000  Uiso   1.00
C292   C     0.44234   0.49225   0.04016   0.00000  Uiso   1.00
C293   C     0.41627   0.50537   0.02089   0.00000  Uiso   1.00
H294   H     0.38344   0.50920   0.03773   0.00000  Uiso   1.00
H295   H     0.42731   0.48678   0.07049   0.00000  Uiso   1.00
H296   H     0.55445   0.47407   0.42717   0.00000  Uiso   1.00
H297   H     0.65347   0.43947   0.29276   0.00000  Uiso   1.00
H298   H     0.65156   0.48531   0.32175   0.00000  Uiso   1.00
H299   H     0.65914   0.57397   0.03076   0.00000  Uiso   1.00
H300   H     0.38650   0.52281   0.38070   0.00000  Uiso   1.00
H301   H     0.40597   0.57385   0.39092   0.00000  Uiso   1.00
H302   H     0.61603   0.44860   0.02221   0.00000  Uiso   1.00
H303   H     0.34961   0.52467   0.21452   0.00000  Uiso   1.00
H304   H     0.54122   0.33616   0.21598   0.00000  Uiso   1.00
H305   H     0.45766   0.66563   0.28454   0.00000  Uiso   1.00
H306   H     0.47223   0.48707   0.10100   0.00000  Uiso   1.00
H307   H     0.59604   0.45493   0.09431   0.00000  Uiso   1.00
H308   H     0.59950   0.45503   0.46153   0.00000  Uiso   1.00
H309   H     0.52094   0.50534   0.40224   0.00000  Uiso   1.00
N310   N     0.64564   0.47007   0.29576   0.00000  Uiso   1.00
N311   N     0.39192   0.54581   0.40282   0.00000  Uiso   1.00
O312   O     0.50000   0.50000   0.25000   0.00000  Uiso   1.00
O313   O     0.49027   0.45726   0.16625   0.00000  Uiso   1.00
O314   O     0.46020   0.53979   0.33749   0.00000  Uiso   1.00
O315   O     0.54421   0.50826   0.15877   0.00000  Uiso   1.00
O316   O     0.50532   0.49468   0.33749   0.00000  Uiso   1.00
O317   O     0.66390   0.52545   0.47278   0.00000  Uiso   1.00
O318   O     0.35686   0.56839   0.01826   0.00000  Uiso   1.00
O319   O     0.51182   0.41434   0.27820   0.00000  Uiso   1.00
O320   O     0.47914   0.59469   0.26767   0.00000  Uiso   1.00
O321   O     0.40785   0.46584   0.23607   0.00000  Uiso   1.00
O322   O     0.60119   0.52512   0.21805   0.00000  Uiso   1.00
O323   O     0.40323   0.52293   0.27820   0.00000  Uiso   1.00
O324   O     0.58773   0.48610   0.26767   0.00000  Uiso   1.00
O325   O     0.47133   0.40236   0.23607   0.00000  Uiso   1.00
O326   O     0.53771   0.58860   0.21805   0.00000  Uiso   1.00
Zn327  Zn    0.52577   0.47423   0.28277   0.00000  Uiso   1.00
Zn328  Zn    0.46792   0.45711   0.22257   0.00000  Uiso   1.00
Zn329  Zn    0.54500   0.52997   0.21188   0.00000  Uiso   1.00
Zn330  Zn    0.46131   0.53868   0.28277   0.00000  Uiso   1.00
C331   C     0.71952   0.49375   0.25832   0.00000  Uiso   1.00
C332   C     0.87496   0.47577   0.45870   0.00000  Uiso   1.00
C333   C     0.90140   0.46388   0.47839   0.00000  Uiso   1.00
C334   C     0.94764   0.50678   0.24136   0.00000  Uiso   1.00
C335   C     0.88845   0.46475   0.01921   0.00000  Uiso   1.00
C336   C     0.84672   0.47511   0.04090   0.00000  Uiso   1.00
C337   C     0.91742   0.45640   0.03865   0.00000  Uiso   1.00
C338   C     0.90612   0.45984   0.07958   0.00000  Uiso   1.00
C339   C     0.83568   0.47721   0.08240   0.00000  Uiso   1.00
C340   C     0.99333   0.50856   0.23812   0.00000  Uiso   1.00
C341   C     0.67407   0.49081   0.26327   0.00000  Uiso   1.00
C342   C     0.75353   0.53207   0.42148   0.00000  Uiso   1.00
C343   C     0.84758   0.65554   0.23816   0.00000  Uiso   1.00
C344   C     0.81835   0.34548   0.26229   0.00000  Uiso   1.00
C345   C     0.82261   0.38950   0.25897   0.00000  Uiso   1.00
C346   C     0.84354   0.61102   0.24137   0.00000  Uiso   1.00
C347   C     0.85515   0.47859   0.14404   0.00000  Uiso   1.00
C348   C     0.81098   0.52017   0.35638   0.00000  Uiso   1.00
C349   C     0.79544   0.52236   0.39993   0.00000  Uiso   1.00
C350   C     0.86531   0.47030   0.10137   0.00000  Uiso   1.00
C351   C     0.73866   0.52805   0.46219   0.00000  Uiso   1.00
C352   C     0.69516   0.53998   0.48442   0.00000  Uiso   1.00
C353   C     0.82202   0.51002   0.41957   0.00000  Uiso   1.00
C354   C     0.80746   0.50367   0.45977   0.00000  Uiso   1.00
C355   C     0.76516   0.51289   0.48119   0.00000  Uiso   1.00
C356   C     0.83391   0.48845   0.47921   0.00000  Uiso   1.00
C357   C     0.81861   0.48531   0.02054   0.00000  Uiso   1.00
C358   C     0.77567   0.49225   0.04016   0.00000  Uiso   1.00
C359   C     0.74961   0.50537   0.02089   0.00000  Uiso   1.00
H360   H     0.71677   0.50920   0.03773   0.00000  Uiso   1.00
H361   H     0.76065   0.48678   0.07049   0.00000  Uiso   1.00
H362   H     0.88778   0.47407   0.42717   0.00000  Uiso   1.00
H363   H     0.98680   0.43947   0.29276   0.00000  Uiso   1.00
H364   H     0.98490   0.48531   0.32175   0.00000  Uiso   1.00
H365   H     0.99248   0.57397   0.03076   0.00000  Uiso   1.00
H366   H     0.71984   0.52281   0.38070   0.00000  Uiso   1.00
H367   H     0.73930   0.57385   0.39092   0.00000  Uiso   1.00
H368   H     0.94937   0.44860   0.02221   0.00000  Uiso   1.00
H369   H     0.68294   0.52467   0.21452   0.00000  Uiso   1.00
H370   H     0.87456   0.33616   0.21598   0.00000  Uiso   1.00
H371   H     0.79099   0.66563   0.28454   0.00000  Uiso   1.00
H372   H     0.80557   0.48707   0.10100   0.00000  Uiso   1.00
H373   H     0.92937   0.45493   0.09431   0.00000  Uiso   1.00
H374   H     0.93284   0.45503   0.46153   0.00000  Uiso   1.00
H375   H     0.85428   0.50534   0.40224   0.00000  Uiso   1.00
N376   N     0.97897   0.47007   0.29576   0.00000  Uiso   1.00
N377   N     0.72526   0.54581   0.40282   0.00000  Uiso   1.00
O378   O     0.83333   0.50000   0.25000   0.00000  Uiso   1.00
O379   O     0.82360   0.45726   0.16625   0.00000  Uiso   1.00
O380   O     0.79354   0.53979   0.33749   0.00000  Uiso   1.00
O381   O     0.87755   0.50826   0.15877   0.00000  Uiso   1.00
O382   O     0.83865   0.49468   0.33749   0.00000  Uiso   1.00
O383   O     0.99723   0.52545   0.47278   0.00000  Uiso   1.00
O384   O     0.69020   0.56839   0.01826   0.00000  Uiso   1.00
O385   O     0.84515   0.41434   0.27820   0.00000  Uiso   1.00
O386   O     0.81247   0.59469   0.26767   0.00000  Uiso   1.00
O387   O     0.74119   0.46584   0.23607   0.00000  Uiso   1.00
O388   O     0.93452   0.52512   0.21805   0.00000  Uiso   1.00
O389   O     0.73656   0.52293   0.27820   0.00000  Uiso   1.00
O390   O     0.92106   0.48610   0.26767   0.00000  Uiso   1.00
O391   O     0.80467   0.40236   0.23607   0.00000  Uiso   1.00
O392   O     0.87104   0.58860   0.21805   0.00000  Uiso   1.00
Zn393  Zn    0.85910   0.47423   0.28277   0.00000  Uiso   1.00
Zn394  Zn    0.80125   0.45711   0.22257   0.00000  Uiso   1.00
Zn395  Zn    0.87833   0.52997   0.21188   0.00000  Uiso   1.00
Zn396  Zn    0.79465   0.53868   0.28277   0.00000  Uiso   1.00
C397   C     0.05285   0.82708   0.25832   0.00000  Uiso   1.00
C398   C     0.20829   0.80910   0.45870   0.00000  Uiso   1.00
C399   C     0.23473   0.79721   0.47839   0.00000  Uiso   1.00
C400   C     0.28097   0.84011   0.24136   0.00000  Uiso   1.00
C401   C     0.22178   0.79808   0.01921   0.00000  Uiso   1.00
C402   C     0.18006   0.80844   0.04090   0.00000  Uiso   1.00
C403   C     0.25076   0.78973   0.03865   0.00000  Uiso   1.00
C404   C     0.23945   0.79317   0.07958   0.00000  Uiso   1.00
C405   C     0.16901   0.81054   0.08240   0.00000  Uiso   1.00
C406   C     0.32666   0.84189   0.23812   0.00000  Uiso   1.00
C407   C     0.00741   0.82414   0.26327   0.00000  Uiso   1.00
C408   C     0.08687   0.86540   0.42148   0.00000  Uiso   1.00
C409   C     0.18091   0.98888   0.23816   0.00000  Uiso   1.00
C410   C     0.15168   0.67881   0.26229   0.00000  Uiso   1.00
C411   C     0.15595   0.72284   0.25897   0.00000  Uiso   1.00
C412   C     0.17687   0.94435   0.24137   0.00000  Uiso   1.00
C413   C     0.18848   0.81192   0.14404   0.00000  Uiso   1.00
C414   C     0.14431   0.85350   0.35638   0.00000  Uiso   1.00
C415   C     0.12877   0.85570   0.39993   0.00000  Uiso   1.00
C416   C     0.19865   0.80363   0.10137   0.00000  Uiso   1.00
C417   C     0.07199   0.86138   0.46219   0.00000  Uiso   1.00
C418   C     0.02850   0.87331   0.48442   0.00000  Uiso   1.00
C419   C     0.15535   0.84335   0.41957   0.00000  Uiso   1.00
C420   C     0.14079   0.83701   0.45977   0.00000  Uiso   1.00
C421   C     0.09850   0.84622   0.48119   0.00000  Uiso   1.00
C422   C     0.16725   0.82179   0.47921   0.00000  Uiso   1.00
C423   C     0.15194   0.81864   0.02054   0.00000  Uiso   1.00
C424   C     0.10900   0.82558   0.04016   0.00000  Uiso   1.00
C425   C     0.08294   0.83870   0.02089   0.00000  Uiso   1.00
H426   H     0.05011   0.84253   0.03773   0.00000  Uiso   1.00
H427   H     0.09398   0.82011   0.07049   0.00000  Uiso   1.00
H428   H     0.22112   0.80740   0.42717   0.00000  Uiso   1.00
H429   H     0.32013   0.77280   0.29276   0.00000  Uiso   1.00
H430   H     0.31823   0.81864   0.32175   0.00000  Uiso   1.00
H431   H     0.32581   0.90731   0.03076   0.00000  Uiso   1.00
H432   H     0.05317   0.85615   0.38070   0.00000  Uiso   1.00
H433   H     0.07263   0.90718   0.39092   0.00000  Uiso   1.00
H434   H     0.28270   0.78193   0.02221   0.00000  Uiso   1.00
H435   H     0.01628   0.85800   0.21452   0.00000  Uiso   1.00
H436   H     0.20789   0.66950   0.21598   0.00000  Uiso   1.00
H437   H     0.12432   0.99897   0.28454   0.00000  Uiso   1.00
H438   H     0.13890   0.82040   0.10100   0.00000  Uiso   1.00
H439   H     0.26271   0.78826   0.09431   0.00000  Uiso   1.00
H440   H     0.26617   0.78836   0.46153   0.00000  Uiso   1.00
H441   H     0.18761   0.83868   0.40224   0.00000  Uiso   1.00
N442   N     0.31231   0.80340   0.29576   0.00000  Uiso   1.00
N443   N     0.05859   0.87914   0.40282   0.00000  Uiso   1.00
O444   O     0.16667   0.83333   0.25000   0.00000  Uiso   1.00
O445   O     0.15693   0.79060   0.16625   0.00000  Uiso   1.00
O446   O     0.12687   0.87313   0.33749   0.00000  Uiso   1.00
O447   O     0.21088   0.84159   0.15877   0.00000  Uiso   1.00
O448   O     0.17198   0.82802   0.33749   0.00000  Uiso   1.00
O449   O     0.33057   0.85878   0.47278   0.00000  Uiso   1.00
O450   O     0.02353   0.90172   0.01826   0.00000  Uiso   1.00
O451   O     0.17849   0.74768   0.27820   0.00000  Uiso   1.00
O452   O     0.14581   0.92803   0.26767   0.00000  Uiso   1.00
O453   O     0.07452   0.79917   0.23607   0.00000  Uiso   1.00
O454   O     0.26785   0.85845   0.21805   0.00000  Uiso   1.00
O455   O     0.06990   0.85627   0.27820   0.00000  Uiso   1.00
O456   O     0.25440   0.81944   0.26767   0.00000  Uiso   1.00
O457   O     0.13800   0.73570   0.23607   0.00000  Uiso   1.00
O458   O     0.20437   0.92193   0.21805   0.00000  Uiso   1.00
Zn459  Zn    0.19244   0.80756   0.28277   0.00000  Uiso   1.00
Zn460  Zn    0.13459   0.79044   0.22257   0.00000  Uiso   1.00
Zn461  Zn    0.21166   0.86331   0.21188   0.00000  Uiso   1.00
Zn462  Zn    0.12798   0.87202   0.28277   0.00000  Uiso   1.00
C463   C     0.38618   0.82708   0.25832   0.00000  Uiso   1.00
C464   C     0.54162   0.80910   0.45870   0.00000  Uiso   1.00
C465   C     0.56807   0.79721   0.47839   0.00000  Uiso   1.00
C466   C     0.61430   0.84011   0.24136   0.00000  Uiso   1.00
C467   C     0.55512   0.79808   0.01921   0.00000  Uiso   1.00
C468   C     0.51339   0.80844   0.04090   0.00000  Uiso   1.00
C469   C     0.58409   0.78973   0.03865   0.00000  Uiso   1.00
C470   C     0.57278   0.79317   0.07958   0.00000  Uiso   1.00
C471   C     0.50235   0.81054   0.08240   0.00000  Uiso   1.00
C472   C     0.66000   0.84189   0.23812   0.00000  Uiso   1.00
C473   C     0.34074   0.82414   0.26327   0.00000  Uiso   1.00
C474   C     0.42020   0.86540   0.42148   0.00000  Uiso   1.00
C475   C     0.51424   0.98888   0.23816   0.00000  Uiso   1.00
C476   C     0.48502   0.67881   0.26229   0.00000  Uiso   1.00
C477   C     0.48928   0.72284   0.25897   0.00000  Uiso   1.00
C478   C     0.51020   0.94435   0.24137   0.00000  Uiso   1.00
C479   C     0.52182   0.81192   0.14404   0.00000  Uiso   1.00
C480   C     0.47765   0.85350   0.35638   0.00000  Uiso   1.00
C481   C     0.46211   0.85570   0.39993   0.00000  Uiso   1.00
C482   C     0.53198   0.80363   0.10137   0.00000  Uiso   1.00
C483   C     0.40533   0.86138   0.46219   0.00000  Uiso   1.00
C484   C     0.36183   0.87331   0.48442   0.00000  Uiso   1.00
C485   C     0.48868   0.84335   0.41957   0.00000  Uiso   1.00
C486   C     0.47412   0.83701   0.45977   0.00000  Uiso   1.00
C487   C     0.43183   0.84622   0.48119   0.00000  Uiso   1.00
C488   C     0.50058   0.82179   0.47921   0.00000  Uiso   1.00
C489   C     0.48528   0.81864   0.02054   0.00000  Uiso   1.00
C490   C     0.44234   0.82558   0.04016   0.00000  Uiso   1.00
C491   C     0.41627   0.83870   0.02089   0.00000  Uiso   1.00
H492   H     0.38344   0.84253   0.03773   0.00000  Uiso   1.00
H493   H     0.42731   0.82011   0.07049   0.00000  Uiso   1.00
H494   H     0.55445   0.80740   0.42717   0.00000  Uiso   1.00
H495   H     0.65347   0.77280   0.29276   0.00000  Uiso   1.00
H496   H     0.65156   0.81864   0.32175   0.00000  Uiso   1.00
H497   H     0.65914   0.90731   0.03076   0.00000  Uiso   1.00
H498   H     0.38650   0.85615   0.38070   0.00000  Uiso   1.00
H499   H     0.40597   0.90718   0.39092   0.00000  Uiso   1.00
H500   H     0.61603   0.78193   0.02221   0.00000  Uiso   1.00
H501   H     0.34961   0.85800   0.21452   0.00000  Uiso   1.00
H502   H     0.54122   0.66950   0.21598   0.00000  Uiso   1.00
H503   H     0.45766   0.99897   0.28454   0.00000  Uiso   1.00
H504   H     0.47223   0.82040   0.10100   0.00000  Uiso   1.00
H505   H     0.59604   0.78826   0.09431   0.00000  Uiso   1.00
H506   H     0.59950   0.78836   0.46153   0.00000  Uiso   1.00
H507   H     0.52094   0.83868   0.40224   0.00000  Uiso   1.00
N508   N     0.64564   0.80340   0.29576   0.00000  Uiso   1.00
N509   N     0.39192   0.87914   0.40282   0.00000  Uiso   1.00
O510   O     0.50000   0.83333   0.25000   0.00000  Uiso   1.00
O511   O     0.49027   0.79060   0.16625   0.00000  Uiso   1.00
O512   O     0.46020   0.87313   0.33749   0.00000  Uiso   1.00
O513   O     0.54421   0.84159   0.15877   0.00000  Uiso   1.00
O514   O     0.50532   0.82802   0.33749   0.00000  Uiso   1.00
O515   O     0.66390   0.85878   0.47278   0.00000  Uiso   1.00
O516   O     0.35686   0.90172   0.01826   0.00000  Uiso   1.00
O517   O     0.51182   0.74768   0.27820   0.00000  Uiso   1.00
O518   O     0.47914   0.92803   0.26767   0.00000  Uiso   1.00
O519   O     0.40785   0.79917   0.23607   0.00000  Uiso   1.00
O520   O     0.60119   0.85845   0.21805   0.00000  Uiso   1.00
O521   O     0.40323   0.85627   0.27820   0.00000  Uiso   1.00
O522   O     0.58773   0.81944   0.26767   0.00000  Uiso   1.00
O523   O     0.47133   0.73570   0.23607   0.00000  Uiso   1.00
O524   O     0.53771   0.92193   0.21805   0.00000  Uiso   1.00
Zn525  Zn    0.52577   0.80756   0.28277   0.00000  Uiso   1.00
Zn526  Zn    0.46792   0.79044   0.22257   0.00000  Uiso   1.00
Zn527  Zn    0.54500   0.86331   0.21188   0.00000  Uiso   1.00
Zn528  Zn    0.46131   0.87202   0.28277   0.00000  Uiso   1.00
C529   C     0.71952   0.82708   0.25832   0.00000  Uiso   1.00
C530   C     0.87496   0.80910   0.45870   0.00000  Uiso   1.00
C531   C     0.90140   0.79721   0.47839   0.00000  Uiso   1.00
C532   C     0.94764   0.84011   0.24136   0.00000  Uiso   1.00
C533   C     0.88845   0.79808   0.01921   0.00000  Uiso   1.00
C534   C     0.84672   0.80844   0.04090   0.00000  Uiso   1.00
C535   C     0.91742   0.78973   0.03865   0.00000  Uiso   1.00
C536   C     0.90612   0.79317   0.07958   0.00000  Uiso   1.00
C537   C     0.83568   0.81054   0.08240   0.00000  Uiso   1.00
C538   C     0.99333   0.84189   0.23812   0.00000  Uiso   1.00
C539   C     0.67407   0.82414   0.26327   0.00000  Uiso   1.00
C540   C     0.75353   0.86540   0.42148   0.00000  Uiso   1.00
C541   C     0.84758   0.98888   0.23816   0.00000  Uiso   1.00
C542   C     0.81835   0.67881   0.26229   0.00000  Uiso   1.00
C543   C     0.82261   0.72284   0.25897   0.00000  Uiso   1.00
C544   C     0.84354   0.94435   0.24137   0.00000  Uiso   1.00
C545   C     0.85515   0.81192   0.14404   0.00000  Uiso   1.00
C546   C     0.81098   0.85350   0.35638   0.00000  Uiso   1.00
C547   C     0.79544   0.85570   0.39993   0.00000  Uiso   1.00
C548   C     0.86531   0.80363   0.10137   0.00000  Uiso   1.00
C549   C     0.73866   0.86138   0.46219   0.00000  Uiso   1.00
C550   C     0.69516   0.87331   0.48442   0.00000  Uiso   1.00
C551   C     0.82202   0.84335   0.41957   0.00000  Uiso   1.00
C552   C     0.80746   0.83701   0.45977   0.00000  Uiso   1.00
C553   C     0.76516   0.84622   0.48119   0.00000  Uiso   1.00
C554   C     0.83391   0.82179   0.47921   0.00000  Uiso   1.00
C555   C     0.81861   0.81864   0.02054   0.00000  Uiso   1.00
C556   C     0.77567   0.82558   0.04016   0.00000  Uiso   1.00
C557   C     0.74961   0.83870   0.02089   0.00000  Uiso   1.00
H558   H     0.71677   0.84253   0.03773   0.00000  Uiso   1.00
H559   H     0.76065   0.82011   0.07049   0.00000  Uiso   1.00
H560   H     0.88778   0.80740   0.42717   0.00000  Uiso   1.00
H561   H     0.98680   0.77280   0.29276   0.00000  Uiso   1.00
H562   H     0.98490   0.81864   0.32175   0.00000  Uiso   1.00
H563   H     0.99248   0.90731   0.03076   0.00000  Uiso   1.00
H564   H     0.71984   0.85615   0.38070   0.00000  Uiso   1.00
H565   H     0.73930   0.90718   0.39092   0.00000  Uiso   1.00
H566   H     0.94937   0.78193   0.02221   0.00000  Uiso   1.00
H567   H     0.68294   0.85800   0.21452   0.00000  Uiso   1.00
H568   H     0.87456   0.66950   0.21598   0.00000  Uiso   1.00
H569   H     0.79099   0.99897   0.28454   0.00000  Uiso   1.00
H570   H     0.80557   0.82040   0.10100   0.00000  Uiso   1.00
H571   H     0.92937   0.78826   0.09431   0.00000  Uiso   1.00
H572   H     0.93284   0.78836   0.46153   0.00000  Uiso   1.00
H573   H     0.85428   0.83868   0.40224   0.00000  Uiso   1.00
N574   N     0.97897   0.80340   0.29576   0.00000  Uiso   1.00
N575   N     0.72526   0.87914   0.40282   0.00000  Uiso   1.00
O576   O     0.83333   0.83333   0.25000   0.00000  Uiso   1.00
O577   O     0.82360   0.79060   0.16625   0.00000  Uiso   1.00
O578   O     0.79354   0.87313   0.33749   0.00000  Uiso   1.00
O579   O     0.87755   0.84159   0.15877   0.00000  Uiso   1.00
O580   O     0.83865   0.82802   0.33749   0.00000  Uiso   1.00
O581   O     0.99723   0.85878   0.47278   0.00000  Uiso   1.00
O582   O     0.69020   0.90172   0.01826   0.00000  Uiso   1.00
O583   O     0.84515   0.74768   0.27820   0.00000  Uiso   1.00
O584   O     0.81247   0.92803   0.26767   0.00000  Uiso   1.00
O585   O     0.74119   0.79917   0.23607   0.00000  Uiso   1.00
O586   O     0.93452   0.85845   0.21805   0.00000  Uiso   1.00
O587   O     0.73656   0.85627   0.27820   0.00000  Uiso   1.00
O588   O     0.92106   0.81944   0.26767   0.00000  Uiso   1.00
O589   O     0.80467   0.73570   0.23607   0.00000  Uiso   1.00
O590   O     0.87104   0.92193   0.21805   0.00000  Uiso   1.00
Zn591  Zn    0.85910   0.80756   0.28277   0.00000  Uiso   1.00
Zn592  Zn    0.80125   0.79044   0.22257   0.00000  Uiso   1.00
Zn593  Zn    0.87833   0.86331   0.21188   0.00000  Uiso   1.00
Zn594  Zn    0.79465   0.87202   0.28277   0.00000  Uiso   1.00
C595   C     0.05285   0.16042   0.75832   0.00000  Uiso   1.00
C596   C     0.20829   0.14243   0.95870   0.00000  Uiso   1.00
C597   C     0.23473   0.13054   0.97839   0.00000  Uiso   1.00
C598   C     0.28097   0.17344   0.74136   0.00000  Uiso   1.00
C599   C     0.22178   0.13142   0.51921   0.00000  Uiso   1.00
C600   C     0.18006   0.14177   0.54090   0.00000  Uiso   1.00
C601   C     0.25076   0.12306   0.53865   0.00000  Uiso   1.00
C602   C     0.23945   0.12650   0.57958   0.00000  Uiso   1.00
C603   C     0.16901   0.14387   0.58240   0.00000  Uiso   1.00
C604   C     0.32666   0.17523   0.73812   0.00000  Uiso   1.00
C605   C     0.00741   0.15748   0.76327   0.00000  Uiso   1.00
C606   C     0.08687   0.19873   0.92148   0.00000  Uiso   1.00
C607   C     0.18091   0.32221   0.73816   0.00000  Uiso   1.00
C608   C     0.15168   0.01215   0.76229   0.00000  Uiso   1.00
C609   C     0.15595   0.05617   0.75897   0.00000  Uiso   1.00
C610   C     0.17687   0.27768   0.74137   0.00000  Uiso   1.00
C611   C     0.18848   0.14525   0.64404   0.00000  Uiso   1.00
C612   C     0.14431   0.18684   0.85638   0.00000  Uiso   1.00
C613   C     0.12877   0.18903   0.89993   0.00000  Uiso   1.00
C614   C     0.19865   0.13697   0.60137   0.00000  Uiso   1.00
C615   C     0.07199   0.19471   0.96219   0.00000  Uiso   1.00
C616   C     0.02850   0.20665   0.98442   0.00000  Uiso   1.00
C617   C     0.15535   0.17669   0.91957   0.00000  Uiso   1.00
C618   C     0.14079   0.17034   0.95977   0.00000  Uiso   1.00
C619   C     0.09850   0.17956   0.98119   0.00000  Uiso   1.00
C620   C     0.16725   0.15512   0.97921   0.00000  Uiso   1.00
C621   C     0.15194   0.15198   0.52054   0.00000  Uiso   1.00
C622   C     0.10900   0.15891   0.54016   0.00000  Uiso   1.00
C623   C     0.08294   0.17203   0.52089   0.00000  Uiso   1.00
H624   H     0.05011   0.17586   0.53773   0.00000  Uiso   1.00
H625   H     0.09398   0.15345   0.57049   0.00000  Uiso   1.00
H626   H     0.22112   0.14074   0.92717   0.00000  Uiso   1.00
H627   H     0.32013   0.10614   0.79276   0.00000  Uiso   1.00
H628   H     0.31823   0.15197   0.82175   0.00000  Uiso   1.00
H629   H     0.32581   0.24064   0.53076   0.00000  Uiso   1.00
H630   H     0.05317   0.18948   0.88070   0.00000  Uiso   1.00
H631   H     0.07263   0.24052   0.89092   0.00000  Uiso   1.00
H632   H     0.28270   0.11527   0.52221   0.00000  Uiso   1.00
H633   H     0.01628   0.19133   0.71452   0.00000  Uiso   1.00
H634   H     0.20789   0.00283   0.71598   0.00000  Uiso   1.00
H635   H     0.12432   0.33230   0.78454   0.00000  Uiso   1.00
H636   H     0.13890   0.15373   0.60100   0.00000  Uiso   1.00
H637   H     0.26271   0.12160   0.59431   0.00000  Uiso   1.00
H638   H     0.26617   0.12170   0.96153   0.00000  Uiso   1.00
H639   H     0.18761   0.17201   0.90224   0.00000  Uiso   1.00
N640   N     0.31231   0.13673   0.79576   0.00000  Uiso   1.00
N641   N     0.05859   0.21248   0.90282   0.00000  Uiso   1.00
O642   O     0.16667   0.16667   0.75000   0.00000  Uiso   1.00
O643   O     0.15693   0.12393   0.66625   0.00000  Uiso   1.00
O644   O     0.12687   0.20646   0.83749   0.00000  Uiso   1.00
O645   O     0.21088   0.17493   0.65877   0.00000  Uiso   1.00
O646   O     0.17198   0.16135   0.83749   0.00000  Uiso   1.00
O647   O     0.33057   0.19212   0.97278   0.00000  Uiso   1.00
O648   O     0.02353   0.23505   0.51826   0.00000  Uiso   1.00
O649   O     0.17849   0.08101   0.77820   0.00000  Uiso   1.00
O650   O     0.14581   0.26136   0.76767   0.00000  Uiso   1.00
O651   O     0.07452   0.13251   0.73607   0.00000  Uiso   1.00
O652   O     0.26785   0.19179   0.71805   0.00000  Uiso   1.00
O653   O     0.06990   0.18960   0.77820   0.00000  Uiso   1.00
O654   O     0.25440   0.15277   0.76767   0.00000  Uiso   1.00
O655   O     0.13800   0.06903   0.73607   0.00000  Uiso   1.00
O656   O     0.20437   0.25527   0.71805   0.00000  Uiso   1.00
Zn657  Zn    0.19244   0.14090   0.78277   0.00000  Uiso   1.00
Zn658  Zn    0.13459   0.12378   0.72257   0.00000  Uiso   1.00
Zn659  Zn    0.21166   0.19664   0.71188   0.00000  Uiso   1.00
Zn660  Zn    0.12798   0.20535   0.78277   0.00000  Uiso   1.00
C661   C     0.38618   0.16042   0.75832   0.00000  Uiso   1.00
C662   C     0.54162   0.14243   0.95870   0.00000  Uiso   1.00
C663   C     0.56807   0.13054   0.97839   0.00000  Uiso   1.00
C664   C     0.61430   0.17344   0.74136   0.00000  Uiso   1.00
C665   C     0.55512   0.13142   0.51921   0.00000  Uiso   1.00
C666   C     0.51339   0.14177   0.54090   0.00000  Uiso   1.00
C667   C     0.58409   0.12306   0.53865   0.00000  Uiso   1.00
C668   C     0.57278   0.12650   0.57958   0.00000  Uiso   1.00
C669   C     0.50235   0.14387   0.58240   0.00000  Uiso   1.00
C670   C     0.66000   0.17523   0.73812   0.00000  Uiso   1.00
C671   C     0.34074   0.15748   0.76327   0.00000  Uiso   1.00
C672   C     0.42020   0.19873   0.92148   0.00000  Uiso   1.00
C673   C     0.51424   0.32221   0.73816   0.00000  Uiso   1.00
C674   C     0.48502   0.01215   0.76229   0.00000  Uiso   1.00
C675   C     0.48928   0.05617   0.75897   0.00000  Uiso   1.00
C676   C     0.51020   0.27768   0.74137   0.00000  Uiso   1.00
C677   C     0.52182   0.14525   0.64404   0.00000  Uiso   1.00
C678   C     0.47765   0.18684   0.85638   0.00000  Uiso   1.00
C679   C     0.46211   0.18903   0.89993   0.00000  Uiso   1.00
C680   C     0.53198   0.13697   0.60137   0.00000  Uiso   1.00
C681   C     0.40533   0.19471   0.96219   0.00000  Uiso   1.00
C682   C     0.36183   0.20665   0.98442   0.00000  Uiso   1.00
C683   C     0.48868   0.17669   0.91957   0.00000  Uiso   1.00
C684   C     0.47412   0.17034   0.95977   0.00000  Uiso   1.00
C685   C     0.43183   0.17956   0.98119   0.00000  Uiso   1.00
C686   C     0.50058   0.15512   0.97921   0.00000  Uiso   1.00
C687   C     0.48528   0.15198   0.52054   0.00000  Uiso   1.00
C688   C     0.44234   0.15891   0.54016   0.00000  Uiso   1.00
C689   C     0.41627   0.17203   0.52089   0.00000  Uiso   1.00
H690   H     0.38344   0.17586   0.53773   0.00000  Uiso   1.00
H691   H     0.42731   0.15345   0.57049   0.00000  Uiso   1.00
H692   H     0.55445   0.14074   0.92717   0.00000  Uiso   1.00
H693   H     0.65347   0.10614   0.79276   0.00000  Uiso   1.00
H694   H     0.65156   0.15197   0.82175   0.00000  Uiso   1.00
H695   H     0.65914   0.24064   0.53076   0.00000  Uiso   1.00
H696   H     0.38650   0.18948   0.88070   0.00000  Uiso   1.00
H697   H     0.40597   0.24052   0.89092   0.00000  Uiso   1.00
H698   H     0.61603   0.11527   0.52221   0.00000  Uiso   1.00
H699   H     0.34961   0.19133   0.71452   0.00000  Uiso   1.00
H700   H     0.54122   0.00283   0.71598   0.00000  Uiso   1.00
H701   H     0.45766   0.33230   0.78454   0.00000  Uiso   1.00
H702   H     0.47223   0.15373   0.60100   0.00000  Uiso   1.00
H703   H     0.59604   0.12160   0.59431   0.00000  Uiso   1.00
H704   H     0.59950   0.12170   0.96153   0.00000  Uiso   1.00
H705   H     0.52094   0.17201   0.90224   0.00000  Uiso   1.00
N706   N     0.64564   0.13673   0.79576   0.00000  Uiso   1.00
N707   N     0.39192   0.21248   0.90282   0.00000  Uiso   1.00
O708   O     0.50000   0.16667   0.75000   0.00000  Uiso   1.00
O709   O     0.49027   0.12393   0.66625   0.00000  Uiso   1.00
O710   O     0.46020   0.20646   0.83749   0.00000  Uiso   1.00
O711   O     0.54421   0.17493   0.65877   0.00000  Uiso   1.00
O712   O     0.50532   0.16135   0.83749   0.00000  Uiso   1.00
O713   O     0.66390   0.19212   0.97278   0.00000  Uiso   1.00
O714   O     0.35686   0.23505   0.51826   0.00000  Uiso   1.00
O715   O     0.51182   0.08101   0.77820   0.00000  Uiso   1.00
O716   O     0.47914   0.26136   0.76767   0.00000  Uiso   1.00
O717   O     0.40785   0.13251   0.73607   0.00000  Uiso   1.00
O718   O     0.60119   0.19179   0.71805   0.00000  Uiso   1.00
O719   O     0.40323   0.18960   0.77820   0.00000  Uiso   1.00
O720   O     0.58773   0.15277   0.76767   0.00000  Uiso   1.00
O721   O     0.47133   0.06903   0.73607   0.00000  Uiso   1.00
O722   O     0.53771   0.25527   0.71805   0.00000  Uiso   1.00
Zn723  Zn    0.52577   0.14090   0.78277   0.00000  Uiso   1.00
Zn724  Zn    0.46792   0.12378   0.72257   0.00000  Uiso   1.00
Zn725  Zn    0.54500   0.19664   0.71188   0.00000  Uiso   1.00
Zn726  Zn    0.46131   0.20535   0.78277   0.00000  Uiso   1.00
C727   C     0.71952   0.16042   0.75832   0.00000  Uiso   1.00
C728   C     0.87496   0.14243   0.95870   0.00000  Uiso   1.00
C729   C     0.90140   0.13054   0.97839   0.00000  Uiso   1.00
C730   C     0.94764   0.17344   0.74136   0.00000  Uiso   1.00
C731   C     0.88845   0.13142   0.51921   0.00000  Uiso   1.00
C732   C     0.84672   0.14177   0.54090   0.00000  Uiso   1.00
C733   C     0.91742   0.12306   0.53865   0.00000  Uiso   1.00
C734   C     0.90612   0.12650   0.57958   0.00000  Uiso   1.00
C735   C     0.83568   0.14387   0.58240   0.00000  Uiso   1.00
C736   C     0.99333   0.17523   0.73812   0.00000  Uiso   1.00
C737   C     0.67407   0.15748   0.76327   0.00000  Uiso   1.00
C738   C     0.75353   0.19873   0.92148   0.00000  Uiso   1.00
C739   C     0.84758   0.32221   0.73816   0.00000  Uiso   1.00
C740   C     0.81835   0.01215   0.76229   0.00000  Uiso   1.00
C741   C     0.82261   0.05617   0.75897   0.00000  Uiso   1.00
C742   C     0.84354   0.27768   0.74137   0.00000  Uiso   1.00
C743   C     0.85515   0.14525   0.64404   0.00000  Uiso   1.00
C744   C     0.81098   0.18684   0.85638   0.00000  Uiso   1.00
C745   C     0.79544   0.18903   0.89993   0.00000  Uiso   1.00
C746   C     0.86531   0.13697   0.60137   0.00000  Uiso   1.00
C747   C     0.73866   0.19471   0.96219   0.00000  Uiso   1.00
C748   C     0.69516   0.20665   0.98442   0.00000  Uiso   1.00
C749   C     0.82202   0.17669   0.91957   0.00000  Uiso   1.00
C750   C     0.80746   0.17034   0.95977   0.00000  Uiso   1.00
C751   C     0.76516   0.17956   0.98119   0.00000  Uiso   1.00
C752   C     0.83391   0.15512   0.97921   0.00000  Uiso   1.00
C753   C     0.81861   0.15198   0.52054   0.00000  Uiso   1.00
C754   C     0.77567   0.15891   0.54016   0.00000  Uiso   1.00
C755   C     0.74961   0.17203   0.52089   0.00000  Uiso   1.00
H756   H     0.71677   0.17586   0.53773   0.00000  Uiso   1.00
H757   H     0.76065   0.15345   0.57049   0.00000  Uiso   1.00
H758   H     0.88778   0.14074   0.92717   0.00000  Uiso   1.00
H759   H     0.98680   0.10614   0.79276   0.00000  Uiso   1.00
H760   H     0.98490   0.15197   0.82175   0.00000  Uiso   1.00
H761   H     0.99248   0.24064   0.53076   0.00000  Uiso   1.00
H762   H     0.71984   0.18948   0.88070   0.00000  Uiso   1.00
H763   H     0.73930   0.24052   0.89092   0.00000  Uiso   1.00
H764   H     0.94937   0.11527   0.52221   0.00000  Uiso   1.00
H765   H     0.68294   0.19133   0.71452   0.00000  Uiso   1.00
H766   H     0.87456   0.00283   0.71598   0.00000  Uiso   1.00
H767   H     0.79099   0.33230   0.78454   0.00000  Uiso   1.00
H768   H     0.80557   0.15373   0.60100   0.00000  Uiso   1.00
H769   H     0.92937   0.12160   0.59431   0.00000  Uiso   1.00
H770   H     0.93284   0.12170   0.96153   0.00000  Uiso   1.00
H771   H     0.85428   0.17201   0.90224   0.00000  Uiso   1.00
N772   N     0.97897   0.13673   0.79576   0.00000  Uiso   1.00
N773   N     0.72526   0.21248   0.90282   0.00000  Uiso   1.00
O774   O     0.83333   0.16667   0.75000   0.00000  Uiso   1.00
O775   O     0.82360   0.12393   0.66625   0.00000  Uiso   1.00
O776   O     0.79354   0.20646   0.83749   0.00000  Uiso   1.00
O777   O     0.87755   0.17493   0.65877   0.00000  Uiso   1.00
O778   O     0.83865   0.16135   0.83749   0.00000  Uiso   1.00
O779   O     0.99723   0.19212   0.97278   0.00000  Uiso   1.00
O780   O     0.69020   0.23505   0.51826   0.00000  Uiso   1.00
O781   O     0.84515   0.08101   0.77820   0.00000  Uiso   1.00
O782   O     0.81247   0.26136   0.76767   0.00000  Uiso   1.00
O783   O     0.74119   0.13251   0.73607   0.00000  Uiso   1.00
O784   O     0.93452   0.19179   0.71805   0.00000  Uiso   1.00
O785   O     0.73656   0.18960   0.77820   0.00000  Uiso   1.00
O786   O     0.92106   0.15277   0.76767   0.00000  Uiso   1.00
O787   O     0.80467   0.06903   0.73607   0.00000  Uiso   1.00
O788   O     0.87104   0.25527   0.71805   0.00000  Uiso   1.00
Zn789  Zn    0.85910   0.14090   0.78277   0.00000  Uiso   1.00
Zn790  Zn    0.80125   0.12378   0.72257   0.00000  Uiso   1.00
Zn791  Zn    0.87833   0.19664   0.71188   0.00000  Uiso   1.00
Zn792  Zn    0.79465   0.20535   0.78277   0.00000  Uiso   1.00
C793   C     0.05285   0.49375   0.75832   0.00000  Uiso   1.00
C794   C     0.20829   0.47577   0.95870   0.00000  Uiso   1.00
C795   C     0.23473   0.46388   0.97839   0.00000  Uiso   1.00
C796   C     0.28097   0.50678   0.74136   0.00000  Uiso   1.00
C797   C     0.22178   0.46475   0.51921   0.00000  Uiso   1.00
C798   C     0.18006   0.47511   0.54090   0.00000  Uiso   1.00
C799   C     0.25076   0.45640   0.53865   0.00000  Uiso   1.00
C800   C     0.23945   0.45984   0.57958   0.00000  Uiso   1.00
C801   C     0.16901   0.47721   0.58240   0.00000  Uiso   1.00
C802   C     0.32666   0.50856   0.73812   0.00000  Uiso   1.00
C803   C     0.00741   0.49081   0.76327   0.00000  Uiso   1.00
C804   C     0.08687   0.53207   0.92148   0.00000  Uiso   1.00
C805   C     0.18091   0.65554   0.73816   0.00000  Uiso   1.00
C806   C     0.15168   0.34548   0.76229   0.00000  Uiso   1.00
C807   C     0.15595   0.38950   0.75897   0.00000  Uiso   1.00
C808   C     0.17687   0.61102   0.74137   0.00000  Uiso   1.00
C809   C     0.18848   0.47859   0.64404   0.00000  Uiso   1.00
C810   C     0.14431   0.52017   0.85638   0.00000  Uiso   1.00
C811   C     0.12877   0.52236   0.89993   0.00000  Uiso   1.00
C812   C     0.19865   0.47030   0.60137   0.00000  Uiso   1.00
C813   C     0.07199   0.52805   0.96219   0.00000  Uiso   1.00
C814   C     0.02850   0.53998   0.98442   0.00000  Uiso   1.00
C815   C     0.15535   0.51002   0.91957   0.00000  Uiso   1.00
C816   C     0.14079   0.50367   0.95977   0.00000  Uiso   1.00
C817   C     0.09850   0.51289   0.98119   0.00000  Uiso   1.00
C818   C     0.16725   0.48845   0.97921   0.00000  Uiso   1.00
C819   C     0.15194   0.48531   0.52054   0.00000  Uiso   1.00
C820   C     0.10900   0.49225   0.54016   0.00000  Uiso   1.00
C821   C     0.08294   0.50537   0.52089   0.00000  Uiso   1.00
H822   H     0.05011   0.50920   0.53773   0.00000  Uiso   1.00
H823   H     0.09398   0.48678   0.57049   0.00000  Uiso   1.00
H824   H     0.22112   0.47407   0.92717   0.00000  Uiso   1.00
H825   H     0.32013   0.43947   0.79276   0.00000  Uiso   1.00
H826   H     0.31823   0.48531   0.82175   0.00000  Uiso   1.00
H827   H     0.32581   0.57397   0.53076   0.00000  Uiso   1.00
H828   H     0.05317   0.52281   0.88070   0.00000  Uiso   1.00
H829   H     0.07263   0.57385   0.89092   0.00000  Uiso   1.00
H830   H     0.28270   0.44860   0.52221   0.00000  Uiso   1.00
H831   H     0.01628   0.52467   0.71452   0.00000  Uiso   1.00
H832   H     0.20789   0.33616   0.71598   0.00000  Uiso   1.00
H833   H     0.12432   0.66563   0.78454   0.00000  Uiso   1.00
H834   H     0.13890   0.48707   0.60100   0.00000  Uiso   1.00
H835   H     0.26271   0.45493   0.59431   0.00000  Uiso   1.00
H836   H     0.26617   0.45503   0.96153   0.00000  Uiso   1.00
H837   H     0.18761   0.50534   0.90224   0.00000  Uiso   1.00
N838   N     0.31231   0.47007   0.79576   0.00000  Uiso   1.00
N839   N     0.05859   0.54581   0.90282   0.00000  Uiso   1.00
O840   O     0.16667   0.50000   0.75000   0.00000  Uiso   1.00
O841   O     0.15693   0.45726   0.66625   0.00000  Uiso   1.00
O842   O     0.12687   0.53979   0.83749   0.00000  Uiso   1.00
O843   O     0.21088   0.50826   0.65877   0.00000  Uiso   1.00
O844   O     0.17198   0.49468   0.83749   0.00000  Uiso   1.00
O845   O     0.33057   0.52545   0.97278   0.00000  Uiso   1.00
O846   O     0.02353   0.56839   0.51826   0.00000  Uiso   1.00
O847   O     0.17849   0.41434   0.77820   0.00000  Uiso   1.00
O848   O     0.14581   0.59469   0.76767   0.00000  Uiso   1.00
O849   O     0.07452   0.46584   0.73607   0.00000  Uiso   1.00
O850   O     0.26785   0.52512   0.71805   0.00000  Uiso   1.00
O851   O     0.06990   0.52293   0.77820   0.00000  Uiso   1.00
O852   O     0.25440   0.48610   0.76767   0.00000  Uiso   1.00
O853   O     0.13800   0.40236   0.73607   0.00000  Uiso   1.00
O854   O     0.20437   0.58860   0.71805   0.00000  Uiso   1.00
Zn855  Zn    0.19244   0.47423   0.78277   0.00000  Uiso   1.00
Zn856  Zn    0.13459   0.45711   0.72257   0.00000  Uiso   1.00
Zn857  Zn    0.21166   0.52997   0.71188   0.00000  Uiso   1.00
Zn858  Zn    0.12798   0.53868   0.78277   0.00000  Uiso   1.00
C859   C     0.38618   0.49375   0.75832   0.00000  Uiso   1.00
C860   C     0.54162   0.47577   0.95870   0.00000  Uiso   1.00
C861   C     0.56807   0.46388   0.97839   0.00000  Uiso   1.00
C862   C     0.61430   0.50678   0.74136   0.00000  Uiso   1.00
C863   C     0.55512   0.46475   0.51921   0.00000  Uiso   1.00
C864   C     0.51339   0.47511   0.54090   0.00000  Uiso   1.00
C865   C     0.58409   0.45640   0.53865   0.00000  Uiso   1.00
C866   C     0.57278   0.45984   0.57958   0.00000  Uiso   1.00
C867   C     0.50235   0.47721   0.58240   0.00000  Uiso   1.00
C868   C     0.66000   0.50856   0.73812   0.00000  Uiso   1.00
C869   C     0.34074   0.49081   0.76327   0.00000  Uiso   1.00
C870   C     0.42020   0.53207   0.92148   0.00000  Uiso   1.00
C871   C     0.51424   0.65554   0.73816   0.00000  Uiso   1.00
C872   C     0.48502   0.34548   0.76229   0.00000  Uiso   1.00
C873   C     0.48928   0.38950   0.75897   0.00000  Uiso   1.00
C874   C     0.51020   0.61102   0.74137   0.00000  Uiso   1.00
C875   C     0.52182   0.47859   0.64404   0.00000  Uiso   1.00
C876   C     0.47765   0.52017   0.85638   0.00000  Uiso   1.00
C877   C     0.46211   0.52236   0.89993   0.00000  Uiso   1.00
C878   C     0.53198   0.47030   0.60137   0.00000  Uiso   1.00
C879   C     0.40533   0.52805   0.96219   0.00000  Uiso   1.00
C880   C     0.36183   0.53998   0.98442   0.00000  Uiso   1.00
C881   C     0.48868   0.51002   0.91957   0.00000  Uiso   1.00
C882   C     0.47412   0.50367   0.95977   0.00000  Uiso   1.00
C883   C     0.43183   0.51289   0.98119   0.00000  Uiso   1.00
C884   C     0.50058   0.48845   0.97921   0.00000  Uiso   1.00
C885   C     0.48528   0.48531   0.52054   0.00000  Uiso   1.00
C886   C     0.44234   0.49225   0.54016   0.00000  Uiso   1.00
C887   C     0.41627   0.50537   0.52089   0.00000  Uiso   1.00
H888   H     0.38344   0.50920   0.53773   0.00000  Uiso   1.00
H889   H     0.42731   0.48678   0.57049   0.00000  Uiso   1.00
H890   H     0.55445   0.47407   0.92717   0.00000  Uiso   1.00
H891   H     0.65347   0.43947   0.79276   0.00000  Uiso   1.00
H892   H     0.65156   0.48531   0.82175   0.00000  Uiso   1.00
H893   H     0.65914   0.57397   0.53076   0.00000  Uiso   1.00
H894   H     0.38650   0.52281   0.88070   0.00000  Uiso   1.00
H895   H     0.40597   0.57385   0.89092   0.00000  Uiso   1.00
H896   H     0.61603   0.44860   0.52221   0.00000  Uiso   1.00
H897   H     0.34961   0.52467   0.71452   0.00000  Uiso   1.00
H898   H     0.54122   0.33616   0.71598   0.00000  Uiso   1.00
H899   H     0.45766   0.66563   0.78454   0.00000  Uiso   1.00
H900   H     0.47223   0.48707   0.60100   0.00000  Uiso   1.00
H901   H     0.59604   0.45493   0.59431   0.00000  Uiso   1.00
H902   H     0.59950   0.45503   0.96153   0.00000  Uiso   1.00
H903   H     0.52094   0.50534   0.90224   0.00000  Uiso   1.00
N904   N     0.64564   0.47007   0.79576   0.00000  Uiso   1.00
N905   N     0.39192   0.54581   0.90282   0.00000  Uiso   1.00
O906   O     0.50000   0.50000   0.75000   0.00000  Uiso   1.00
O907   O     0.49027   0.45726   0.66625   0.00000  Uiso   1.00
O908   O     0.46020   0.53979   0.83749   0.00000  Uiso   1.00
O909   O     0.54421   0.50826   0.65877   0.00000  Uiso   1.00
O910   O     0.50532   0.49468   0.83749   0.00000  Uiso   1.00
O911   O     0.66390   0.52545   0.97278   0.00000  Uiso   1.00
O912   O     0.35686   0.56839   0.51826   0.00000  Uiso   1.00
O913   O     0.51182   0.41434   0.77820   0.00000  Uiso   1.00
O914   O     0.47914   0.59469   0.76767   0.00000  Uiso   1.00
O915   O     0.40785   0.46584   0.73607   0.00000  Uiso   1.00
O916   O     0.60119   0.52512   0.71805   0.00000  Uiso   1.00
O917   O     0.40323   0.52293   0.77820   0.00000  Uiso   1.00
O918   O     0.58773   0.48610   0.76767   0.00000  Uiso   1.00
O919   O     0.47133   0.40236   0.73607   0.00000  Uiso   1.00
O920   O     0.53771   0.58860   0.71805   0.00000  Uiso   1.00
Zn921  Zn    0.52577   0.47423   0.78277   0.00000  Uiso   1.00
Zn922  Zn    0.46792   0.45711   0.72257   0.00000  Uiso   1.00
Zn923  Zn    0.54500   0.52997   0.71188   0.00000  Uiso   1.00
Zn924  Zn    0.46131   0.53868   0.78277   0.00000  Uiso   1.00
C925   C     0.71952   0.49375   0.75832   0.00000  Uiso   1.00
C926   C     0.87496   0.47577   0.95870   0.00000  Uiso   1.00
C927   C     0.90140   0.46388   0.97839   0.00000  Uiso   1.00
C928   C     0.94764   0.50678   0.74136   0.00000  Uiso   1.00
C929   C     0.88845   0.46475   0.51921   0.00000  Uiso   1.00
C930   C     0.84672   0.47511   0.54090   0.00000  Uiso   1.00
C931   C     0.91742   0.45640   0.53865   0.00000  Uiso   1.00
C932   C     0.90612   0.45984   0.57958   0.00000  Uiso   1.00
C933   C     0.83568   0.47721   0.58240   0.00000  Uiso   1.00
C934   C     0.99333   0.50856   0.73812   0.00000  Uiso   1.00
C935   C     0.67407   0.49081   0.76327   0.00000  Uiso   1.00
C936   C     0.75353   0.53207   0.92148   0.00000  Uiso   1.00
C937   C     0.84758   0.65554   0.73816   0.00000  Uiso   1.00
C938   C     0.81835   0.34548   0.76229   0.00000  Uiso   1.00
C939   C     0.82261   0.38950   0.75897   0.00000  Uiso   1.00
C940   C     0.84354   0.61102   0.74137   0.00000  Uiso   1.00
C941   C     0.85515   0.47859   0.64404   0.00000  Uiso   1.00
C942   C     0.81098   0.52017   0.85638   0.00000  Uiso   1.00
C943   C     0.79544   0.52236   0.89993   0.00000  Uiso   1.00
C944   C     0.86531   0.47030   0.60137   0.00000  Uiso   1.00
C945   C     0.73866   0.52805   0.96219   0.00000  Uiso   1.00
C946   C     0.69516   0.53998   0.98442   0.00000  Uiso   1.00
C947   C     0.82202   0.51002   0.91957   0.00000  Uiso   1.00
C948   C     0.80746   0.50367   0.95977   0.00000  Uiso   1.00
C949   C     0.76516   0.51289   0.98119   0.00000  Uiso   1.00
C950   C     0.83391   0.48845   0.97921   0.00000  Uiso   1.00
C951   C     0.81861   0.48531   0.52054   0.00000  Uiso   1.00
C952   C     0.77567   0.49225   0.54016   0.00000  Uiso   1.00
C953   C     0.74961   0.50537   0.52089   0.00000  Uiso   1.00
H954   H     0.71677   0.50920   0.53773   0.00000  Uiso   1.00
H955   H     0.76065   0.48678   0.57049   0.00000  Uiso   1.00
H956   H     0.88778   0.47407   0.92717   0.00000  Uiso   1.00
H957   H     0.98680   0.43947   0.79276   0.00000  Uiso   1.00
H958   H     0.98490   0.48531   0.82175   0.00000  Uiso   1.00
H959   H     0.99248   0.57397   0.53076   0.00000  Uiso   1.00
H960   H     0.71984   0.52281   0.88070   0.00000  Uiso   1.00
H961   H     0.73930   0.57385   0.89092   0.00000  Uiso   1.00
H962   H     0.94937   0.44860   0.52221   0.00000  Uiso   1.00
H963   H     0.68294   0.52467   0.71452   0.00000  Uiso   1.00
H964   H     0.87456   0.33616   0.71598   0.00000  Uiso   1.00
H965   H     0.79099   0.66563   0.78454   0.00000  Uiso   1.00
H966   H     0.80557   0.48707   0.60100   0.00000  Uiso   1.00
H967   H     0.92937   0.45493   0.59431   0.00000  Uiso   1.00
H968   H     0.93284   0.45503   0.96153   0.00000  Uiso   1.00
H969   H     0.85428   0.50534   0.90224   0.00000  Uiso   1.00
N970   N     0.97897   0.47007   0.79576   0.00000  Uiso   1.00
N971   N     0.72526   0.54581   0.90282   0.00000  Uiso   1.00
O972   O     0.83333   0.50000   0.75000   0.00000  Uiso   1.00
O973   O     0.82360   0.45726   0.66625   0.00000  Uiso   1.00
O974   O     0.79354   0.53979   0.83749   0.00000  Uiso   1.00
O975   O     0.87755   0.50826   0.65877   0.00000  Uiso   1.00
O976   O     0.83865   0.49468   0.83749   0.00000  Uiso   1.00
O977   O     0.99723   0.52545   0.97278   0.00000  Uiso   1.00
O978   O     0.69020   0.56839   0.51826   0.00000  Uiso   1.00
O979   O     0.84515   0.41434   0.77820   0.00000  Uiso   1.00
O980   O     0.81247   0.59469   0.76767   0.00000  Uiso   1.00
O981   O     0.74119   0.46584   0.73607   0.00000  Uiso   1.00
O982   O     0.93452   0.52512   0.71805   0.00000  Uiso   1.00
O983   O     0.73656   0.52293   0.77820   0.00000  Uiso   1.00
O984   O     0.92106   0.48610   0.76767   0.00000  Uiso   1.00
O985   O     0.80467   0.40236   0.73607   0.00000  Uiso   1.00
O986   O     0.87104   0.58860   0.71805   0.00000  Uiso   1.00
Zn987  Zn    0.85910   0.47423   0.78277   0.00000  Uiso   1.00
Zn988  Zn    0.80125   0.45711   0.72257   0.00000  Uiso   1.00
Zn989  Zn    0.87833   0.52997   0.71188   0.00000  Uiso   1.00
Zn990  Zn    0.79465   0.53868   0.78277   0.00000  Uiso   1.00
C991   C     0.05285   0.82708   0.75832   0.00000  Uiso   1.00
C992   C     0.20829   0.80910   0.95870   0.00000  Uiso   1.00
C993   C     0.23473   0.79721   0.97839   0.00000  Uiso   1.00
C994   C     0.28097   0.84011   0.74136   0.00000  Uiso   1.00
C995   C     0.22178   0.79808   0.51921   0.00000  Uiso   1.00
C996   C     0.18006   0.80844   0.54090   0.00000  Uiso   1.00
C997   C     0.25076   0.78973   0.53865   0.00000  Uiso   1.00
C998   C     0.23945   0.79317   0.57958   0.00000  Uiso   1.00
C999   C     0.16901   0.81054   0.58240   0.00000  Uiso   1.00
C1000  C     0.32666   0.84189   0.73812   0.00000  Uiso   1.00
C1001  C     0.00741   0.82414   0.76327   0.00000  Uiso   1.00
C1002  C     0.08687   0.86540   0.92148   0.00000  Uiso   1.00
C1003  C     0.18091   0.98888   0.73816   0.00000  Uiso   1.00
C1004  C     0.15168   0.67881   0.76229   0.00000  Uiso   1.00
C1005  C     0.15595   0.72284   0.75897   0.00000  Uiso   1.00
C1006  C     0.17687   0.94435   0.74137   0.00000  Uiso   1.00
C1007  C     0.18848   0.81192   0.64404   0.00000  Uiso   1.00
C1008  C     0.14431   0.85350   0.85638   0.00000  Uiso   1.00
C1009  C     0.12877   0.85570   0.89993   0.00000  Uiso   1.00
C1010  C     0.19865   0.80363   0.60137   0.00000  Uiso   1.00
C1011  C     0.07199   0.86138   0.96219   0.00000  Uiso   1.00
C1012  C     0.02850   0.87331   0.98442   0.00000  Uiso   1.00
C1013  C     0.15535   0.84335   0.91957   0.00000  Uiso   1.00
C1014  C     0.14079   0.83701   0.95977   0.00000  Uiso   1.00
C1015  C     0.09850   0.84622   0.98119   0.00000  Uiso   1.00
C1016  C     0.16725   0.82179   0.97921   0.00000  Uiso   1.00
C1017  C     0.15194   0.81864   0.52054   0.00000  Uiso   1.00
C1018  C     0.10900   0.82558   0.54016   0.00000  Uiso   1.00
C1019  C     0.08294   0.83870   0.52089   0.00000  Uiso   1.00
H1020  H     0.05011   0.84253   0.53773   0.00000  Uiso   1.00
H1021  H     0.09398   0.82011   0.57049   0.00000  Uiso   1.00
H1022  H     0.22112   0.80740   0.92717   0.00000  Uiso   1.00
H1023  H     0.32013   0.77280   0.79276   0.00000  Uiso   1.00
H1024  H     0.31823   0.81864   0.82175   0.00000  Uiso   1.00
H1025  H     0.32581   0.90731   0.53076   0.00000  Uiso   1.00
H1026  H     0.05317   0.85615   0.88070   0.00000  Uiso   1.00
H1027  H     0.07263   0.90718   0.89092   0.00000  Uiso   1.00
H1028  H     0.28270   0.78193   0.52221   0.00000  Uiso   1.00
H1029  H     0.01628   0.85800   0.71452   0.00000  Uiso   1.00
H1030  H     0.20789   0.66950   0.71598   0.00000  Uiso   1.00
H1031  H     0.12432   0.99897   0.78454   0.00000  Uiso   1.00
H1032  H     0.13890   0.82040   0.60100   0.00000  Uiso   1.00
H1033  H     0.26271   0.78826   0.59431   0.00000  Uiso   1.00
H1034  H     0.26617   0.78836   0.96153   0.00000  Uiso   1.00
H1035  H     0.18761   0.83868   0.90224   0.00000  Uiso   1.00
N1036  N     0.31231   0.80340   0.79576   0.00000  Uiso   1.00
N1037  N     0.05859   0.87914   0.90282   0.00000  Uiso   1.00
O1038  O     0.16667   0.83333   0.75000   0.00000  Uiso   1.00
O1039  O     0.15693   0.79060   0.66625   0.00000  Uiso   1.00
O1040  O     0.12687   0.87313   0.83749   0.00000  Uiso   1.00
O1041  O     0.21088   0.84159   0.65877   0.00000  Uiso   1.00
O1042  O     0.17198   0.82802   0.83749   0.00000  Uiso   1.00
O1043  O     0.33057   0.85878   0.97278   0.00000  Uiso   1.00
O1044  O     0.02353   0.90172   0.51826   0.00000  Uiso   1.00
O1045  O     0.17849   0.74768   0.77820   0.00000  Uiso   1.00
O1046  O     0.14581   0.92803   0.76767   0.00000  Uiso   1.00
O1047  O     0.07452   0.79917   0.73607   0.00000  Uiso   1.00
O1048  O     0.26785   0.85845   0.71805   0.00000  Uiso   1.00
O1049  O     0.06990   0.85627   0.77820   0.00000  Uiso   1.00
O1050  O     0.25440   0.81944   0.76767   0.00000  Uiso   1.00
O1051  O     0.13800   0.73570   0.73607   0.00000  Uiso   1.00
O1052  O     0.20437   0.92193   0.71805   0.00000  Uiso   1.00
Zn1053 Zn    0.19244   0.80756   0.78277   0.00000  Uiso   1.00
Zn1054 Zn    0.13459   0.79044   0.72257   0.00000  Uiso   1.00
Zn1055 Zn    0.21166   0.86331   0.71188   0.00000  Uiso   1.00
Zn1056 Zn    0.12798   0.87202   0.78277   0.00000  Uiso   1.00
C1057  C     0.38618   0.82708   0.75832   0.00000  Uiso   1.00
C1058  C     0.54162   0.80910   0.95870   0.00000  Uiso   1.00
C1059  C     0.56807   0.79721   0.97839   0.00000  Uiso   1.00
C1060  C     0.61430   0.84011   0.74136   0.00000  Uiso   1.00
C1061  C     0.55512   0.79808   0.51921   0.00000  Uiso   1.00
C1062  C     0.51339   0.80844   0.54090   0.00000  Uiso   1.00
C1063  C     0.58409   0.78973   0.53865   0.00000  Uiso   1.00
C1064  C     0.57278   0.79317   0.57958   0.00000  Uiso   1.00
C1065  C     0.50235   0.81054   0.58240   0.00000  Uiso   1.00
C1066  C     0.66000   0.84189   0.73812   0.00000  Uiso   1.00
C1067  C     0.34074   0.82414   0.76327   0.00000  Uiso   1.00
C1068  C     0.42020   0.86540   0.92148   0.00000  Uiso   1.00
C1069  C     0.51424   0.98888   0.73816   0.00000  Uiso   1.00
C1070  C     0.48502   0.67881   0.76229   0.00000  Uiso   1.00
C1071  C     0.48928   0.72284   0.75897   0.00000  Uiso   1.00
C1072  C     0.51020   0.94435   0.74137   0.00000  Uiso   1.00
C1073  C     0.52182   0.81192   0.64404   0.00000  Uiso   1.00
C1074  C     0.47765   0.85350   0.85638   0.00000  Uiso   1.00
C1075  C     0.46211   0.85570   0.89993   0.00000  Uiso   1.00
C1076  C     0.53198   0.80363   0.60137   0.00000  Uiso   1.00
C1077  C     0.40533   0.86138   0.96219   0.00000  Uiso   1.00
C1078  C     0.36183   0.87331   0.98442   0.00000  Uiso   1.00
C1079  C     0.48868   0.84335   0.91957   0.00000  Uiso   1.00
C1080  C     0.47412   0.83701   0.95977   0.00000  Uiso   1.00
C1081  C     0.43183   0.84622   0.98119   0.00000  Uiso   1.00
C1082  C     0.50058   0.82179   0.97921   0.00000  Uiso   1.00
C1083  C     0.48528   0.81864   0.52054   0.00000  Uiso   1.00
C1084  C     0.44234   0.82558   0.54016   0.00000  Uiso   1.00
C1085  C     0.41627   0.83870   0.52089   0.00000  Uiso   1.00
H1086  H     0.38344   0.84253   0.53773   0.00000  Uiso   1.00
H1087  H     0.42731   0.82011   0.57049   0.00000  Uiso   1.00
H1088  H     0.55445   0.80740   0.92717   0.00000  Uiso   1.00
H1089  H     0.65347   0.77280   0.79276   0.00000  Uiso   1.00
H1090  H     0.65156   0.81864   0.82175   0.00000  Uiso   1.00
H1091  H     0.65914   0.90731   0.53076   0.00000  Uiso   1.00
H1092  H     0.38650   0.85615   0.88070   0.00000  Uiso   1.00
H1093  H     0.40597   0.90718   0.89092   0.00000  Uiso   1.00
H1094  H     0.61603   0.78193   0.52221   0.00000  Uiso   1.00
H1095  H     0.34961   0.85800   0.71452   0.00000  Uiso   1.00
H1096  H     0.54122   0.66950   0.71598   0.00000  Uiso   1.00
H1097  H     0.45766   0.99897   0.78454   0.00000  Uiso   1.00
H1098  H     0.47223   0.82040   0.60100   0.00000  Uiso   1.00
H1099  H     0.59604   0.78826   0.59431   0.00000  Uiso   1.00
H1100  H     0.59950   0.78836   0.96153   0.00000  Uiso   1.00
H1101  H     0.52094   0.83868   0.90224   0.00000  Uiso   1.00
N1102  N     0.64564   0.80340   0.79576   0.00000  Uiso   1.00
N1103  N     0.39192   0.87914   0.90282   0.00000  Uiso   1.00
O1104  O     0.50000   0.83333   0.75000   0.00000  Uiso   1.00
O1105  O     0.49027   0.79060   0.66625   0.00000  Uiso   1.00
O1106  O     0.46020   0.87313   0.83749   0.00000  Uiso   1.00
O1107  O     0.54421   0.84159   0.65877   0.00000  Uiso   1.00
O1108  O     0.50532   0.82802   0.83749   0.00000  Uiso   1.00
O1109  O     0.66390   0.85878   0.97278   0.00000  Uiso   1.00
O1110  O     0.35686   0.90172   0.51826   0.00000  Uiso   1.00
O1111  O     0.51182   0.74768   0.77820   0.00000  Uiso   1.00
O1112  O     0.47914   0.92803   0.76767   0.00000  Uiso   1.00
O1113  O     0.40785   0.79917   0.73607   0.00000  Uiso   1.00
O1114  O     0.60119   0.85845   0.71805   0.00000  Uiso   1.00
O1115  O     0.40323   0.85627   0.77820   0.00000  Uiso   1.00
O1116  O     0.58773   0.81944   0.76767   0.00000  Uiso   1.00
O1117  O     0.47133   0.73570   0.73607   0.00000  Uiso   1.00
O1118  O     0.53771   0.92193   0.71805   0.00000  Uiso   1.00
Zn1119 Zn    0.52577   0.80756   0.78277   0.00000  Uiso   1.00
Zn1120 Zn    0.46792   0.79044   0.72257   0.00000  Uiso   1.00
Zn1121 Zn    0.54500   0.86331   0.71188   0.00000  Uiso   1.00
Zn1122 Zn    0.46131   0.87202   0.78277   0.00000  Uiso   1.00
C1123  C     0.71952   0.82708   0.75832   0.00000  Uiso   1.00
C1124  C     0.87496   0.80910   0.95870   0.00000  Uiso   1.00
C1125  C     0.90140   0.79721   0.97839   0.00000  Uiso   1.00
C1126  C     0.94764   0.84011   0.74136   0.00000  Uiso   1.00
C1127  C     0.88845   0.79808   0.51921   0.00000  Uiso   1.00
C1128  C     0.84672   0.80844   0.54090   0.00000  Uiso   1.00
C1129  C     0.91742   0.78973   0.53865   0.00000  Uiso   1.00
C1130  C     0.90612   0.79317   0.57958   0.00000  Uiso   1.00
C1131  C     0.83568   0.81054   0.58240   0.00000  Uiso   1.00
C1132  C     0.99333   0.84189   0.73812   0.00000  Uiso   1.00
C1133  C     0.67407   0.82414   0.76327   0.00000  Uiso   1.00
C1134  C     0.75353   0.86540   0.92148   0.00000  Uiso   1.00
C1135  C     0.84758   0.98888   0.73816   0.00000  Uiso   1.00
C1136  C     0.81835   0.67881   0.76229   0.00000  Uiso   1.00
C1137  C     0.82261   0.72284   0.75897   0.00000  Uiso   1.00
C1138  C     0.84354   0.94435   0.74137   0.00000  Uiso   1.00
C1139  C     0.85515   0.81192   0.64404   0.00000  Uiso   1.00
C1140  C     0.81098   0.85350   0.85638   0.00000  Uiso   1.00
C1141  C     0.79544   0.85570   0.89993   0.00000  Uiso   1.00
C1142  C     0.86531   0.80363   0.60137   0.00000  Uiso   1.00
C1143  C     0.73866   0.86138   0.96219   0.00000  Uiso   1.00
C1144  C     0.69516   0.87331   0.98442   0.00000  Uiso   1.00
C1145  C     0.82202   0.84335   0.91957   0.00000  Uiso   1.00
C1146  C     0.80746   0.83701   0.95977   0.00000  Uiso   1.00
C1147  C     0.76516   0.84622   0.98119   0.00000  Uiso   1.00
C1148  C     0.83391   0.82179   0.97921   0.00000  Uiso   1.00
C1149  C     0.81861   0.81864   0.52054   0.00000  Uiso   1.00
C1150  C     0.77567   0.82558   0.54016   0.00000  Uiso   1.00
C1151  C     0.74961   0.83870   0.52089   0.00000  Uiso   1.00
H1152  H     0.71677   0.84253   0.53773   0.00000  Uiso   1.00
H1153  H     0.76065   0.82011   0.57049   0.00000  Uiso   1.00
H1154  H     0.88778   0.80740   0.92717   0.00000  Uiso   1.00
H1155  H     0.98680   0.77280   0.79276   0.00000  Uiso   1.00
H1156  H     0.98490   0.81864   0.82175   0.00000  Uiso   1.00
H1157  H     0.99248   0.90731   0.53076   0.00000  Uiso   1.00
H1158  H     0.71984   0.85615   0.88070   0.00000  Uiso   1.00
H1159  H     0.73930   0.90718   0.89092   0.00000  Uiso   1.00
H1160  H     0.94937   0.78193   0.52221   0.00000  Uiso   1.00
H1161  H     0.68294   0.85800   0.71452   0.00000  Uiso   1.00
H1162  H     0.87456   0.66950   0.71598   0.00000  Uiso   1.00
H1163  H     0.79099   0.99897   0.78454   0.00000  Uiso   1.00
H1164  H     0.80557   0.82040   0.60100   0.00000  Uiso   1.00
H1165  H     0.92937   0.78826   0.59431   0.00000  Uiso   1.00
H1166  H     0.93284   0.78836   0.96153   0.00000  Uiso   1.00
H1167  H     0.85428   0.83868   0.90224   0.00000  Uiso   1.00
N1168  N     0.97897   0.80340   0.79576   0.00000  Uiso   1.00
N1169  N     0.72526   0.87914   0.90282   0.00000  Uiso   1.00
O1170  O     0.83333   0.83333   0.75000   0.00000  Uiso   1.00
O1171  O     0.82360   0.79060   0.66625   0.00000  Uiso   1.00
O1172  O     0.79354   0.87313   0.83749   0.00000  Uiso   1.00
O1173  O     0.87755   0.84159   0.65877   0.00000  Uiso   1.00
O1174  O     0.83865   0.82802   0.83749   0.00000  Uiso   1.00
O1175  O     0.99723   0.85878   0.97278   0.00000  Uiso   1.00
O1176  O     0.69020   0.90172   0.51826   0.00000  Uiso   1.00
O1177  O     0.84515   0.74768   0.77820   0.00000  Uiso   1.00
O1178  O     0.81247   0.92803   0.76767   0.00000  Uiso   1.00
O1179  O     0.74119   0.79917   0.73607   0.00000  Uiso   1.00
O1180  O     0.93452   0.85845   0.71805   0.00000  Uiso   1.00
O1181  O     0.73656   0.85627   0.77820   0.00000  Uiso   1.00
O1182  O     0.92106   0.81944   0.76767   0.00000  Uiso   1.00
O1183  O     0.80467   0.73570   0.73607   0.00000  Uiso   1.00
O1184  O     0.87104   0.92193   0.71805   0.00000  Uiso   1.00
Zn1185 Zn    0.85910   0.80756   0.78277   0.00000  Uiso   1.00
Zn1186 Zn    0.80125   0.79044   0.72257   0.00000  Uiso   1.00
Zn1187 Zn    0.87833   0.86331   0.71188   0.00000  Uiso   1.00
Zn1188 Zn    0.79465   0.87202   0.78277   0.00000  Uiso   1.00
loop_
_geom_bond_atom_site_label_1
_geom_bond_atom_site_label_2
_geom_bond_distance
_geom_bond_site_symmetry_2
_ccdc_geom_bond_type
C1     O57     1.269   .     A
C1     C11     1.435   .     S
C1     O59     1.267   .     A
C2     C3      1.386   .     A
C2     C26     1.417   .     A
C2     H32     1.076   .     S
C3     H44     1.084   .     S
C3     C599    1.390   .     S
C4     O60     1.270   .     A
C4     O58     1.286   .     A
C4     C10     1.458   .     S
C5     C6      1.420   .     A
C5     C7      1.402   .     A
C5     C597    1.390   1_554 S
C6     C27     1.425   .     A
C6     C9      1.412   .     A
C7     C8      1.390   .     A
C7     H38     1.084   .     S
C8     H43     1.084   .     S
C8     C20     1.396   .     A
C9     H42     1.078   .     S
C9     C20     1.393   .     A
C10    C77     1.347   .     S
C10    H105    1.088   .     S
C11    C142    1.347   1_455 S
C11    N178    1.437   1_455 S
C12    N47     1.436   .     S
C12    C19     1.417   .     A
C12    C21     1.409   .     A
C13    C16     1.450   .     S
C13    C212    1.331   .     S
C13    H238    1.088   .     S
C14    C15     1.434   .     S
C14    C409    1.331   1_545 S
C14    H437    1.086   1_545 S
C15    O61     1.279   .     A
C15    O55     1.279   .     A
C16    O56     1.271   .     A
C16    O62     1.270   .     A
C17    O51     1.274   .     A
C17    O49     1.279   .     A
C17    C20     1.455   .     S
C18    O52     1.290   .     A
C18    O50     1.280   .     A
C18    C19     1.481   .     S
C19    C23     1.395   .     A
C21    C25     1.420   .     A
C21    C22     1.488   .     S
C22    O185    1.223   1_455 S
C22    O648    1.398   .     S
C23    C24     1.407   .     A
C23    H45     1.075   .     S
C24    C26     1.431   .     A
C24    C25     1.422   .     A
C25    C623    1.401   .     S
C26    C621    1.425   .     S
C27    C28     1.408   .     A
C27    C620    1.425   1_554 S
C28    C29     1.383   .     A
C28    H31     1.077   .     S
C29    H30     1.081   .     S
C29    C619    1.401   1_554 S
H33    N46     1.046   .     S
H34    N46     1.046   .     S
H35    O120    1.014   .     S
H36    N47     1.045   .     S
H37    N47     1.045   .     S
H39    C142    1.088   1_455 S
H40    C409    1.088   1_545 S
H41    C212    1.086   .     S
N46    C77     1.437   .     S
O48    Zn65    1.934   .     S
O48    Zn64    1.949   .     S
O48    Zn66    1.932   .     S
O48    Zn63    1.959   .     S
O49    Zn64    1.927   .     S
O50    Zn66    1.938   .     S
O51    Zn65    1.935   .     S
O52    Zn63    1.925   .     S
O53    C88     1.223   .     S
O54    C616    1.398   1_554 S
O54    H167    1.014   1_455 S
O55    Zn63    1.928   .     S
O56    Zn66    1.929   .     S
O57    Zn64    1.934   .     S
O58    Zn65    1.945   .     S
O59    Zn66    1.943   .     S
O60    Zn63    1.932   .     S
O61    Zn64    1.932   .     S
O62    Zn65    1.928   .     S
C67    O123    1.269   .     A
C67    C77     1.435   .     S
C67    O125    1.267   .     A
C68    C69     1.386   .     A
C68    C92     1.417   .     A
C68    H98     1.076   .     S
C69    H110    1.084   .     S
C69    C665    1.390   .     S
C70    O126    1.270   .     A
C70    O124    1.286   .     A
C70    C76     1.458   .     S
C71    C72     1.420   .     A
C71    C73     1.402   .     A
C71    C663    1.390   1_554 S
C72    C93     1.425   .     A
C72    C75     1.412   .     A
C73    C74     1.390   .     A
C73    H104    1.084   .     S
C74    H109    1.084   .     S
C74    C86     1.396   .     A
C75    H108    1.078   .     S
C75    C86     1.393   .     A
C76    C143    1.347   .     S
C76    H171    1.088   .     S
C78    N113    1.436   .     S
C78    C85     1.417   .     A
C78    C87     1.409   .     A
C79    C82     1.450   .     S
C79    C278    1.331   .     S
C79    H304    1.088   .     S
C80    C81     1.434   .     S
C80    C475    1.331   1_545 S
C80    H503    1.086   1_545 S
C81    O127    1.279   .     A
C81    O121    1.279   .     A
C82    O122    1.271   .     A
C82    O128    1.270   .     A
C83    O117    1.274   .     A
C83    O115    1.279   .     A
C83    C86     1.455   .     S
C84    O118    1.290   .     A
C84    O116    1.280   .     A
C84    C85     1.481   .     S
C85    C89     1.395   .     A
C87    C91     1.420   .     A
C87    C88     1.488   .     S
C88    O714    1.398   .     S
C89    C90     1.407   .     A
C89    H111    1.075   .     S
C90    C92     1.431   .     A
C90    C91     1.422   .     A
C91    C689    1.401   .     S
C92    C687    1.425   .     S
C93    C94     1.408   .     A
C93    C686    1.425   1_554 S
C94    C95     1.383   .     A
C94    H97     1.077   .     S
C95    H96     1.081   .     S
C95    C685    1.401   1_554 S
H99    N112    1.046   .     S
H100   N112    1.046   .     S
H101   O186    1.014   .     S
H102   N113    1.045   .     S
H103   N113    1.045   .     S
H106   C475    1.088   1_545 S
H107   C278    1.086   .     S
N112   C143    1.437   .     S
O114   Zn131   1.934   .     S
O114   Zn130   1.949   .     S
O114   Zn132   1.932   .     S
O114   Zn129   1.959   .     S
O115   Zn130   1.927   .     S
O116   Zn132   1.938   .     S
O117   Zn131   1.935   .     S
O118   Zn129   1.925   .     S
O119   C154    1.223   .     S
O120   C682    1.398   1_554 S
O121   Zn129   1.928   .     S
O122   Zn132   1.929   .     S
O123   Zn130   1.934   .     S
O124   Zn131   1.945   .     S
O125   Zn132   1.943   .     S
O126   Zn129   1.932   .     S
O127   Zn130   1.932   .     S
O128   Zn131   1.928   .     S
C133   O189    1.269   .     A
C133   C143    1.435   .     S
C133   O191    1.267   .     A
C134   C135    1.386   .     A
C134   C158    1.417   .     A
C134   H164    1.076   .     S
C135   H176    1.084   .     S
C135   C731    1.390   .     S
C136   O192    1.270   .     A
C136   O190    1.286   .     A
C136   C142    1.458   .     S
C137   C138    1.420   .     A
C137   C139    1.402   .     A
C137   C729    1.390   1_554 S
C138   C159    1.425   .     A
C138   C141    1.412   .     A
C139   C140    1.390   .     A
C139   H170    1.084   .     S
C140   H175    1.084   .     S
C140   C152    1.396   .     A
C141   H174    1.078   .     S
C141   C152    1.393   .     A
C142   C11     1.347   1_655 S
C142   H39     1.088   1_655 S
C144   N179    1.436   .     S
C144   C151    1.417   .     A
C144   C153    1.409   .     A
C145   C148    1.450   .     S
C145   C344    1.331   .     S
C145   H370    1.088   .     S
C146   C147    1.434   .     S
C146   C541    1.331   1_545 S
C146   H569    1.086   1_545 S
C147   O193    1.279   .     A
C147   O187    1.279   .     A
C148   O188    1.271   .     A
C148   O194    1.270   .     A
C149   O183    1.274   .     A
C149   O181    1.279   .     A
C149   C152    1.455   .     S
C150   O184    1.290   .     A
C150   O182    1.280   .     A
C150   C151    1.481   .     S
C151   C155    1.395   .     A
C153   C157    1.420   .     A
C153   C154    1.488   .     S
C154   O780    1.398   .     S
C155   C156    1.407   .     A
C155   H177    1.075   .     S
C156   C158    1.431   .     A
C156   C157    1.422   .     A
C157   C755    1.401   .     S
C158   C753    1.425   .     S
C159   C160    1.408   .     A
C159   C752    1.425   1_554 S
C160   C161    1.383   .     A
C160   H163    1.077   .     S
C161   H162    1.081   .     S
C161   C751    1.401   1_554 S
H165   N178    1.046   .     S
H166   N178    1.046   .     S
H167   O54     1.014   1_655 S
H168   N179    1.045   .     S
H169   N179    1.045   .     S
H172   C541    1.088   1_545 S
H173   C344    1.086   .     S
N178   C11     1.437   1_655 S
O180   Zn197   1.934   .     S
O180   Zn196   1.949   .     S
O180   Zn198   1.932   .     S
O180   Zn195   1.959   .     S
O181   Zn196   1.927   .     S
O182   Zn198   1.938   .     S
O183   Zn197   1.935   .     S
O184   Zn195   1.925   .     S
O185   C22     1.223   1_655 S
O186   C748    1.398   1_554 S
O187   Zn195   1.928   .     S
O188   Zn198   1.929   .     S
O189   Zn196   1.934   .     S
O190   Zn197   1.945   .     S
O191   Zn198   1.943   .     S
O192   Zn195   1.932   .     S
O193   Zn196   1.932   .     S
O194   Zn197   1.928   .     S
C199   O255    1.269   .     A
C199   C209    1.435   .     S
C199   O257    1.267   .     A
C200   C201    1.386   .     A
C200   C224    1.417   .     A
C200   H230    1.076   .     S
C201   H242    1.084   .     S
C201   C797    1.390   .     S
C202   O258    1.270   .     A
C202   O256    1.286   .     A
C202   C208    1.458   .     S
C203   C204    1.420   .     A
C203   C205    1.402   .     A
C203   C795    1.390   1_554 S
C204   C225    1.425   .     A
C204   C207    1.412   .     A
C205   C206    1.390   .     A
C205   H236    1.084   .     S
C206   H241    1.084   .     S
C206   C218    1.396   .     A
C207   H240    1.078   .     S
C207   C218    1.393   .     A
C208   C275    1.347   .     S
C208   H303    1.088   .     S
C209   C340    1.347   1_455 S
C209   N376    1.437   1_455 S
C210   N245    1.436   .     S
C210   C217    1.417   .     A
C210   C219    1.409   .     A
C211   C214    1.450   .     S
C211   C410    1.331   .     S
C211   H436    1.088   .     S
C212   C213    1.434   .     S
C213   O259    1.279   .     A
C213   O253    1.279   .     A
C214   O254    1.271   .     A
C214   O260    1.270   .     A
C215   O249    1.274   .     A
C215   O247    1.279   .     A
C215   C218    1.455   .     S
C216   O250    1.290   .     A
C216   O248    1.280   .     A
C216   C217    1.481   .     S
C217   C221    1.395   .     A
C219   C223    1.420   .     A
C219   C220    1.488   .     S
C220   O383    1.223   1_455 S
C220   O846    1.398   .     S
C221   C222    1.407   .     A
C221   H243    1.075   .     S
C222   C224    1.431   .     A
C222   C223    1.422   .     A
C223   C821    1.401   .     S
C224   C819    1.425   .     S
C225   C226    1.408   .     A
C225   C818    1.425   1_554 S
C226   C227    1.383   .     A
C226   H229    1.077   .     S
C227   H228    1.081   .     S
C227   C817    1.401   1_554 S
H231   N244    1.046   .     S
H232   N244    1.046   .     S
H233   O318    1.014   .     S
H234   N245    1.045   .     S
H235   N245    1.045   .     S
H237   C340    1.088   1_455 S
H239   C410    1.086   .     S
N244   C275    1.437   .     S
O246   Zn263   1.934   .     S
O246   Zn262   1.949   .     S
O246   Zn264   1.932   .     S
O246   Zn261   1.959   .     S
O247   Zn262   1.927   .     S
O248   Zn264   1.938   .     S
O249   Zn263   1.935   .     S
O250   Zn261   1.925   .     S
O251   C286    1.223   .     S
O252   C814    1.398   1_554 S
O252   H365    1.014   1_455 S
O253   Zn261   1.928   .     S
O254   Zn264   1.929   .     S
O255   Zn262   1.934   .     S
O256   Zn263   1.945   .     S
O257   Zn264   1.943   .     S
O258   Zn261   1.932   .     S
O259   Zn262   1.932   .     S
O260   Zn263   1.928   .     S
C265   O321    1.269   .     A
C265   C275    1.435   .     S
C265   O323    1.267   .     A
C266   C267    1.386   .     A
C266   C290    1.417   .     A
C266   H296    1.076   .     S
C267   H308    1.084   .     S
C267   C863    1.390   .     S
C268   O324    1.270   .     A
C268   O322    1.286   .     A
C268   C274    1.458   .     S
C269   C270    1.420   .     A
C269   C271    1.402   .     A
C269   C861    1.390   1_554 S
C270   C291    1.425   .     A
C270   C273    1.412   .     A
C271   C272    1.390   .     A
C271   H302    1.084   .     S
C272   H307    1.084   .     S
C272   C284    1.396   .     A
C273   H306    1.078   .     S
C273   C284    1.393   .     A
C274   C341    1.347   .     S
C274   H369    1.088   .     S
C276   N311    1.436   .     S
C276   C283    1.417   .     A
C276   C285    1.409   .     A
C277   C280    1.450   .     S
C277   C476    1.331   .     S
C277   H502    1.088   .     S
C278   C279    1.434   .     S
C279   O325    1.279   .     A
C279   O319    1.279   .     A
C280   O320    1.271   .     A
C280   O326    1.270   .     A
C281   O315    1.274   .     A
C281   O313    1.279   .     A
C281   C284    1.455   .     S
C282   O316    1.290   .     A
C282   O314    1.280   .     A
C282   C283    1.481   .     S
C283   C287    1.395   .     A
C285   C289    1.420   .     A
C285   C286    1.488   .     S
C286   O912    1.398   .     S
C287   C288    1.407   .     A
C287   H309    1.075   .     S
C288   C290    1.431   .     A
C288   C289    1.422   .     A
C289   C887    1.401   .     S
C290   C885    1.425   .     S
C291   C292    1.408   .     A
C291   C884    1.425   1_554 S
C292   C293    1.383   .     A
C292   H295    1.077   .     S
C293   H294    1.081   .     S
C293   C883    1.401   1_554 S
H297   N310    1.046   .     S
H298   N310    1.046   .     S
H299   O384    1.014   .     S
H300   N311    1.045   .     S
H301   N311    1.045   .     S
H305   C476    1.086   .     S
N310   C341    1.437   .     S
O312   Zn329   1.934   .     S
O312   Zn328   1.949   .     S
O312   Zn330   1.932   .     S
O312   Zn327   1.959   .     S
O313   Zn328   1.927   .     S
O314   Zn330   1.938   .     S
O315   Zn329   1.935   .     S
O316   Zn327   1.925   .     S
O317   C352    1.223   .     S
O318   C880    1.398   1_554 S
O319   Zn327   1.928   .     S
O320   Zn330   1.929   .     S
O321   Zn328   1.934   .     S
O322   Zn329   1.945   .     S
O323   Zn330   1.943   .     S
O324   Zn327   1.932   .     S
O325   Zn328   1.932   .     S
O326   Zn329   1.928   .     S
C331   O387    1.269   .     A
C331   C341    1.435   .     S
C331   O389    1.267   .     A
C332   C333    1.386   .     A
C332   C356    1.417   .     A
C332   H362    1.076   .     S
C333   H374    1.084   .     S
C333   C929    1.390   .     S
C334   O390    1.270   .     A
C334   O388    1.286   .     A
C334   C340    1.458   .     S
C335   C336    1.420   .     A
C335   C337    1.402   .     A
C335   C927    1.390   1_554 S
C336   C357    1.425   .     A
C336   C339    1.412   .     A
C337   C338    1.390   .     A
C337   H368    1.084   .     S
C338   H373    1.084   .     S
C338   C350    1.396   .     A
C339   H372    1.078   .     S
C339   C350    1.393   .     A
C340   C209    1.347   1_655 S
C340   H237    1.088   1_655 S
C342   N377    1.436   .     S
C342   C349    1.417   .     A
C342   C351    1.409   .     A
C343   C346    1.450   .     S
C343   C542    1.331   .     S
C343   H568    1.088   .     S
C344   C345    1.434   .     S
C345   O391    1.279   .     A
C345   O385    1.279   .     A
C346   O386    1.271   .     A
C346   O392    1.270   .     A
C347   O381    1.274   .     A
C347   O379    1.279   .     A
C347   C350    1.455   .     S
C348   O382    1.290   .     A
C348   O380    1.280   .     A
C348   C349    1.481   .     S
C349   C353    1.395   .     A
C351   C355    1.420   .     A
C351   C352    1.488   .     S
C352   O978    1.398   .     S
C353   C354    1.407   .     A
C353   H375    1.075   .     S
C354   C356    1.431   .     A
C354   C355    1.422   .     A
C355   C953    1.401   .     S
C356   C951    1.425   .     S
C357   C358    1.408   .     A
C357   C950    1.425   1_554 S
C358   C359    1.383   .     A
C358   H361    1.077   .     S
C359   H360    1.081   .     S
C359   C949    1.401   1_554 S
H363   N376    1.046   .     S
H364   N376    1.046   .     S
H365   O252    1.014   1_655 S
H366   N377    1.045   .     S
H367   N377    1.045   .     S
H371   C542    1.086   .     S
N376   C209    1.437   1_655 S
O378   Zn395   1.934   .     S
O378   Zn394   1.949   .     S
O378   Zn396   1.932   .     S
O378   Zn393   1.959   .     S
O379   Zn394   1.927   .     S
O380   Zn396   1.938   .     S
O381   Zn395   1.935   .     S
O382   Zn393   1.925   .     S
O383   C220    1.223   1_655 S
O384   C946    1.398   1_554 S
O385   Zn393   1.928   .     S
O386   Zn396   1.929   .     S
O387   Zn394   1.934   .     S
O388   Zn395   1.945   .     S
O389   Zn396   1.943   .     S
O390   Zn393   1.932   .     S
O391   Zn394   1.932   .     S
O392   Zn395   1.928   .     S
C397   O453    1.269   .     A
C397   C407    1.435   .     S
C397   O455    1.267   .     A
C398   C399    1.386   .     A
C398   C422    1.417   .     A
C398   H428    1.076   .     S
C399   H440    1.084   .     S
C399   C995    1.390   .     S
C400   O456    1.270   .     A
C400   O454    1.286   .     A
C400   C406    1.458   .     S
C401   C402    1.420   .     A
C401   C403    1.402   .     A
C401   C993    1.390   1_554 S
C402   C423    1.425   .     A
C402   C405    1.412   .     A
C403   C404    1.390   .     A
C403   H434    1.084   .     S
C404   H439    1.084   .     S
C404   C416    1.396   .     A
C405   H438    1.078   .     S
C405   C416    1.393   .     A
C406   C473    1.347   .     S
C406   H501    1.088   .     S
C407   C538    1.347   1_455 S
C407   N574    1.437   1_455 S
C408   N443    1.436   .     S
C408   C415    1.417   .     A
C408   C417    1.409   .     A
C409   C412    1.450   .     S
C409   C14     1.331   1_565 S
C409   H40     1.088   1_565 S
C410   C411    1.434   .     S
C411   O457    1.279   .     A
C411   O451    1.279   .     A
C412   O452    1.271   .     A
C412   O458    1.270   .     A
C413   O447    1.274   .     A
C413   O445    1.279   .     A
C413   C416    1.455   .     S
C414   O448    1.290   .     A
C414   O446    1.280   .     A
C414   C415    1.481   .     S
C415   C419    1.395   .     A
C417   C421    1.420   .     A
C417   C418    1.488   .     S
C418   O581    1.223   1_455 S
C418   O1044   1.398   .     S
C419   C420    1.407   .     A
C419   H441    1.075   .     S
C420   C422    1.431   .     A
C420   C421    1.422   .     A
C421   C1019   1.401   .     S
C422   C1017   1.425   .     S
C423   C424    1.408   .     A
C423   C1016   1.425   1_554 S
C424   C425    1.383   .     A
C424   H427    1.077   .     S
C425   H426    1.081   .     S
C425   C1015   1.401   1_554 S
H429   N442    1.046   .     S
H430   N442    1.046   .     S
H431   O516    1.014   .     S
H432   N443    1.045   .     S
H433   N443    1.045   .     S
H435   C538    1.088   1_455 S
H437   C14     1.086   1_565 S
N442   C473    1.437   .     S
O444   Zn461   1.934   .     S
O444   Zn460   1.949   .     S
O444   Zn462   1.932   .     S
O444   Zn459   1.959   .     S
O445   Zn460   1.927   .     S
O446   Zn462   1.938   .     S
O447   Zn461   1.935   .     S
O448   Zn459   1.925   .     S
O449   C484    1.223   .     S
O450   C1012   1.398   1_554 S
O450   H563    1.014   1_455 S
O451   Zn459   1.928   .     S
O452   Zn462   1.929   .     S
O453   Zn460   1.934   .     S
O454   Zn461   1.945   .     S
O455   Zn462   1.943   .     S
O456   Zn459   1.932   .     S
O457   Zn460   1.932   .     S
O458   Zn461   1.928   .     S
C463   O519    1.269   .     A
C463   C473    1.435   .     S
C463   O521    1.267   .     A
C464   C465    1.386   .     A
C464   C488    1.417   .     A
C464   H494    1.076   .     S
C465   H506    1.084   .     S
C465   C1061   1.390   .     S
C466   O522    1.270   .     A
C466   O520    1.286   .     A
C466   C472    1.458   .     S
C467   C468    1.420   .     A
C467   C469    1.402   .     A
C467   C1059   1.390   1_554 S
C468   C489    1.425   .     A
C468   C471    1.412   .     A
C469   C470    1.390   .     A
C469   H500    1.084   .     S
C470   H505    1.084   .     S
C470   C482    1.396   .     A
C471   H504    1.078   .     S
C471   C482    1.393   .     A
C472   C539    1.347   .     S
C472   H567    1.088   .     S
C474   N509    1.436   .     S
C474   C481    1.417   .     A
C474   C483    1.409   .     A
C475   C478    1.450   .     S
C475   C80     1.331   1_565 S
C475   H106    1.088   1_565 S
C476   C477    1.434   .     S
C477   O523    1.279   .     A
C477   O517    1.279   .     A
C478   O518    1.271   .     A
C478   O524    1.270   .     A
C479   O513    1.274   .     A
C479   O511    1.279   .     A
C479   C482    1.455   .     S
C480   O514    1.290   .     A
C480   O512    1.280   .     A
C480   C481    1.481   .     S
C481   C485    1.395   .     A
C483   C487    1.420   .     A
C483   C484    1.488   .     S
C484   O1110   1.398   .     S
C485   C486    1.407   .     A
C485   H507    1.075   .     S
C486   C488    1.431   .     A
C486   C487    1.422   .     A
C487   C1085   1.401   .     S
C488   C1083   1.425   .     S
C489   C490    1.408   .     A
C489   C1082   1.425   1_554 S
C490   C491    1.383   .     A
C490   H493    1.077   .     S
C491   H492    1.081   .     S
C491   C1081   1.401   1_554 S
H495   N508    1.046   .     S
H496   N508    1.046   .     S
H497   O582    1.014   .     S
H498   N509    1.045   .     S
H499   N509    1.045   .     S
H503   C80     1.086   1_565 S
N508   C539    1.437   .     S
O510   Zn527   1.934   .     S
O510   Zn526   1.949   .     S
O510   Zn528   1.932   .     S
O510   Zn525   1.959   .     S
O511   Zn526   1.927   .     S
O512   Zn528   1.938   .     S
O513   Zn527   1.935   .     S
O514   Zn525   1.925   .     S
O515   C550    1.223   .     S
O516   C1078   1.398   1_554 S
O517   Zn525   1.928   .     S
O518   Zn528   1.929   .     S
O519   Zn526   1.934   .     S
O520   Zn527   1.945   .     S
O521   Zn528   1.943   .     S
O522   Zn525   1.932   .     S
O523   Zn526   1.932   .     S
O524   Zn527   1.928   .     S
C529   O585    1.269   .     A
C529   C539    1.435   .     S
C529   O587    1.267   .     A
C530   C531    1.386   .     A
C530   C554    1.417   .     A
C530   H560    1.076   .     S
C531   H572    1.084   .     S
C531   C1127   1.390   .     S
C532   O588    1.270   .     A
C532   O586    1.286   .     A
C532   C538    1.458   .     S
C533   C534    1.420   .     A
C533   C535    1.402   .     A
C533   C1125   1.390   1_554 S
C534   C555    1.425   .     A
C534   C537    1.412   .     A
C535   C536    1.390   .     A
C535   H566    1.084   .     S
C536   H571    1.084   .     S
C536   C548    1.396   .     A
C537   H570    1.078   .     S
C537   C548    1.393   .     A
C538   C407    1.347   1_655 S
C538   H435    1.088   1_655 S
C540   N575    1.436   .     S
C540   C547    1.417   .     A
C540   C549    1.409   .     A
C541   C544    1.450   .     S
C541   C146    1.331   1_565 S
C541   H172    1.088   1_565 S
C542   C543    1.434   .     S
C543   O589    1.279   .     A
C543   O583    1.279   .     A
C544   O584    1.271   .     A
C544   O590    1.270   .     A
C545   O579    1.274   .     A
C545   O577    1.279   .     A
C545   C548    1.455   .     S
C546   O580    1.290   .     A
C546   O578    1.280   .     A
C546   C547    1.481   .     S
C547   C551    1.395   .     A
C549   C553    1.420   .     A
C549   C550    1.488   .     S
C550   O1176   1.398   .     S
C551   C552    1.407   .     A
C551   H573    1.075   .     S
C552   C554    1.431   .     A
C552   C553    1.422   .     A
C553   C1151   1.401   .     S
C554   C1149   1.425   .     S
C555   C556    1.408   .     A
C555   C1148   1.425   1_554 S
C556   C557    1.383   .     A
C556   H559    1.077   .     S
C557   H558    1.081   .     S
C557   C1147   1.401   1_554 S
H561   N574    1.046   .     S
H562   N574    1.046   .     S
H563   O450    1.014   1_655 S
H564   N575    1.045   .     S
H565   N575    1.045   .     S
H569   C146    1.086   1_565 S
N574   C407    1.437   1_655 S
O576   Zn593   1.934   .     S
O576   Zn592   1.949   .     S
O576   Zn594   1.932   .     S
O576   Zn591   1.959   .     S
O577   Zn592   1.927   .     S
O578   Zn594   1.938   .     S
O579   Zn593   1.935   .     S
O580   Zn591   1.925   .     S
O581   C418    1.223   1_655 S
O582   C1144   1.398   1_554 S
O583   Zn591   1.928   .     S
O584   Zn594   1.929   .     S
O585   Zn592   1.934   .     S
O586   Zn593   1.945   .     S
O587   Zn594   1.943   .     S
O588   Zn591   1.932   .     S
O589   Zn592   1.932   .     S
O590   Zn593   1.928   .     S
C595   O651    1.269   .     A
C595   C605    1.435   .     S
C595   O653    1.267   .     A
C596   C597    1.386   .     A
C596   C620    1.417   .     A
C596   H626    1.076   .     S
C597   H638    1.084   .     S
C597   C5      1.390   1_556 S
C598   O654    1.270   .     A
C598   O652    1.286   .     A
C598   C604    1.458   .     S
C599   C600    1.420   .     A
C599   C601    1.402   .     A
C600   C621    1.425   .     A
C600   C603    1.412   .     A
C601   C602    1.390   .     A
C601   H632    1.084   .     S
C602   H637    1.084   .     S
C602   C614    1.396   .     A
C603   H636    1.078   .     S
C603   C614    1.393   .     A
C604   C671    1.347   .     S
C604   H699    1.088   .     S
C605   C736    1.347   1_455 S
C605   N772    1.437   1_455 S
C606   N641    1.436   .     S
C606   C613    1.417   .     A
C606   C615    1.409   .     A
C607   C610    1.450   .     S
C607   C806    1.331   .     S
C607   H832    1.088   .     S
C608   C609    1.434   .     S
C608   C1003   1.331   1_545 S
C608   H1031   1.086   1_545 S
C609   O655    1.279   .     A
C609   O649    1.279   .     A
C610   O650    1.271   .     A
C610   O656    1.270   .     A
C611   O645    1.274   .     A
C611   O643    1.279   .     A
C611   C614    1.455   .     S
C612   O646    1.290   .     A
C612   O644    1.280   .     A
C612   C613    1.481   .     S
C613   C617    1.395   .     A
C615   C619    1.420   .     A
C615   C616    1.488   .     S
C616   O779    1.223   1_455 S
C616   O54     1.398   1_556 S
C617   C618    1.407   .     A
C617   H639    1.075   .     S
C618   C620    1.431   .     A
C618   C619    1.422   .     A
C619   C29     1.401   1_556 S
C620   C27     1.425   1_556 S
C621   C622    1.408   .     A
C622   C623    1.383   .     A
C622   H625    1.077   .     S
C623   H624    1.081   .     S
H627   N640    1.046   .     S
H628   N640    1.046   .     S
H629   O714    1.014   .     S
H630   N641    1.045   .     S
H631   N641    1.045   .     S
H633   C736    1.088   1_455 S
H634   C1003   1.088   1_545 S
H635   C806    1.086   .     S
N640   C671    1.437   .     S
O642   Zn659   1.934   .     S
O642   Zn658   1.949   .     S
O642   Zn660   1.932   .     S
O642   Zn657   1.959   .     S
O643   Zn658   1.927   .     S
O644   Zn660   1.938   .     S
O645   Zn659   1.935   .     S
O646   Zn657   1.925   .     S
O647   C682    1.223   .     S
O648   H761    1.014   1_455 S
O649   Zn657   1.928   .     S
O650   Zn660   1.929   .     S
O651   Zn658   1.934   .     S
O652   Zn659   1.945   .     S
O653   Zn660   1.943   .     S
O654   Zn657   1.932   .     S
O655   Zn658   1.932   .     S
O656   Zn659   1.928   .     S
C661   O717    1.269   .     A
C661   C671    1.435   .     S
C661   O719    1.267   .     A
C662   C663    1.386   .     A
C662   C686    1.417   .     A
C662   H692    1.076   .     S
C663   H704    1.084   .     S
C663   C71     1.390   1_556 S
C664   O720    1.270   .     A
C664   O718    1.286   .     A
C664   C670    1.458   .     S
C665   C666    1.420   .     A
C665   C667    1.402   .     A
C666   C687    1.425   .     A
C666   C669    1.412   .     A
C667   C668    1.390   .     A
C667   H698    1.084   .     S
C668   H703    1.084   .     S
C668   C680    1.396   .     A
C669   H702    1.078   .     S
C669   C680    1.393   .     A
C670   C737    1.347   .     S
C670   H765    1.088   .     S
C672   N707    1.436   .     S
C672   C679    1.417   .     A
C672   C681    1.409   .     A
C673   C676    1.450   .     S
C673   C872    1.331   .     S
C673   H898    1.088   .     S
C674   C675    1.434   .     S
C674   C1069   1.331   1_545 S
C674   H1097   1.086   1_545 S
C675   O721    1.279   .     A
C675   O715    1.279   .     A
C676   O716    1.271   .     A
C676   O722    1.270   .     A
C677   O711    1.274   .     A
C677   O709    1.279   .     A
C677   C680    1.455   .     S
C678   O712    1.290   .     A
C678   O710    1.280   .     A
C678   C679    1.481   .     S
C679   C683    1.395   .     A
C681   C685    1.420   .     A
C681   C682    1.488   .     S
C682   O120    1.398   1_556 S
C683   C684    1.407   .     A
C683   H705    1.075   .     S
C684   C686    1.431   .     A
C684   C685    1.422   .     A
C685   C95     1.401   1_556 S
C686   C93     1.425   1_556 S
C687   C688    1.408   .     A
C688   C689    1.383   .     A
C688   H691    1.077   .     S
C689   H690    1.081   .     S
H693   N706    1.046   .     S
H694   N706    1.046   .     S
H695   O780    1.014   .     S
H696   N707    1.045   .     S
H697   N707    1.045   .     S
H700   C1069   1.088   1_545 S
H701   C872    1.086   .     S
N706   C737    1.437   .     S
O708   Zn725   1.934   .     S
O708   Zn724   1.949   .     S
O708   Zn726   1.932   .     S
O708   Zn723   1.959   .     S
O709   Zn724   1.927   .     S
O710   Zn726   1.938   .     S
O711   Zn725   1.935   .     S
O712   Zn723   1.925   .     S
O713   C748    1.223   .     S
O715   Zn723   1.928   .     S
O716   Zn726   1.929   .     S
O717   Zn724   1.934   .     S
O718   Zn725   1.945   .     S
O719   Zn726   1.943   .     S
O720   Zn723   1.932   .     S
O721   Zn724   1.932   .     S
O722   Zn725   1.928   .     S
C727   O783    1.269   .     A
C727   C737    1.435   .     S
C727   O785    1.267   .     A
C728   C729    1.386   .     A
C728   C752    1.417   .     A
C728   H758    1.076   .     S
C729   H770    1.084   .     S
C729   C137    1.390   1_556 S
C730   O786    1.270   .     A
C730   O784    1.286   .     A
C730   C736    1.458   .     S
C731   C732    1.420   .     A
C731   C733    1.402   .     A
C732   C753    1.425   .     A
C732   C735    1.412   .     A
C733   C734    1.390   .     A
C733   H764    1.084   .     S
C734   H769    1.084   .     S
C734   C746    1.396   .     A
C735   H768    1.078   .     S
C735   C746    1.393   .     A
C736   C605    1.347   1_655 S
C736   H633    1.088   1_655 S
C738   N773    1.436   .     S
C738   C745    1.417   .     A
C738   C747    1.409   .     A
C739   C742    1.450   .     S
C739   C938    1.331   .     S
C739   H964    1.088   .     S
C740   C741    1.434   .     S
C740   C1135   1.331   1_545 S
C740   H1163   1.086   1_545 S
C741   O787    1.279   .     A
C741   O781    1.279   .     A
C742   O782    1.271   .     A
C742   O788    1.270   .     A
C743   O777    1.274   .     A
C743   O775    1.279   .     A
C743   C746    1.455   .     S
C744   O778    1.290   .     A
C744   O776    1.280   .     A
C744   C745    1.481   .     S
C745   C749    1.395   .     A
C747   C751    1.420   .     A
C747   C748    1.488   .     S
C748   O186    1.398   1_556 S
C749   C750    1.407   .     A
C749   H771    1.075   .     S
C750   C752    1.431   .     A
C750   C751    1.422   .     A
C751   C161    1.401   1_556 S
C752   C159    1.425   1_556 S
C753   C754    1.408   .     A
C754   C755    1.383   .     A
C754   H757    1.077   .     S
C755   H756    1.081   .     S
H759   N772    1.046   .     S
H760   N772    1.046   .     S
H761   O648    1.014   1_655 S
H762   N773    1.045   .     S
H763   N773    1.045   .     S
H766   C1135   1.088   1_545 S
H767   C938    1.086   .     S
N772   C605    1.437   1_655 S
O774   Zn791   1.934   .     S
O774   Zn790   1.949   .     S
O774   Zn792   1.932   .     S
O774   Zn789   1.959   .     S
O775   Zn790   1.927   .     S
O776   Zn792   1.938   .     S
O777   Zn791   1.935   .     S
O778   Zn789   1.925   .     S
O779   C616    1.223   1_655 S
O781   Zn789   1.928   .     S
O782   Zn792   1.929   .     S
O783   Zn790   1.934   .     S
O784   Zn791   1.945   .     S
O785   Zn792   1.943   .     S
O786   Zn789   1.932   .     S
O787   Zn790   1.932   .     S
O788   Zn791   1.928   .     S
C793   O849    1.269   .     A
C793   C803    1.435   .     S
C793   O851    1.267   .     A
C794   C795    1.386   .     A
C794   C818    1.417   .     A
C794   H824    1.076   .     S
C795   H836    1.084   .     S
C795   C203    1.390   1_556 S
C796   O852    1.270   .     A
C796   O850    1.286   .     A
C796   C802    1.458   .     S
C797   C798    1.420   .     A
C797   C799    1.402   .     A
C798   C819    1.425   .     A
C798   C801    1.412   .     A
C799   C800    1.390   .     A
C799   H830    1.084   .     S
C800   H835    1.084   .     S
C800   C812    1.396   .     A
C801   H834    1.078   .     S
C801   C812    1.393   .     A
C802   C869    1.347   .     S
C802   H897    1.088   .     S
C803   C934    1.347   1_455 S
C803   N970    1.437   1_455 S
C804   N839    1.436   .     S
C804   C811    1.417   .     A
C804   C813    1.409   .     A
C805   C808    1.450   .     S
C805   C1004   1.331   .     S
C805   H1030   1.088   .     S
C806   C807    1.434   .     S
C807   O853    1.279   .     A
C807   O847    1.279   .     A
C808   O848    1.271   .     A
C808   O854    1.270   .     A
C809   O843    1.274   .     A
C809   O841    1.279   .     A
C809   C812    1.455   .     S
C810   O844    1.290   .     A
C810   O842    1.280   .     A
C810   C811    1.481   .     S
C811   C815    1.395   .     A
C813   C817    1.420   .     A
C813   C814    1.488   .     S
C814   O977    1.223   1_455 S
C814   O252    1.398   1_556 S
C815   C816    1.407   .     A
C815   H837    1.075   .     S
C816   C818    1.431   .     A
C816   C817    1.422   .     A
C817   C227    1.401   1_556 S
C818   C225    1.425   1_556 S
C819   C820    1.408   .     A
C820   C821    1.383   .     A
C820   H823    1.077   .     S
C821   H822    1.081   .     S
H825   N838    1.046   .     S
H826   N838    1.046   .     S
H827   O912    1.014   .     S
H828   N839    1.045   .     S
H829   N839    1.045   .     S
H831   C934    1.088   1_455 S
H833   C1004   1.086   .     S
N838   C869    1.437   .     S
O840   Zn857   1.934   .     S
O840   Zn856   1.949   .     S
O840   Zn858   1.932   .     S
O840   Zn855   1.959   .     S
O841   Zn856   1.927   .     S
O842   Zn858   1.938   .     S
O843   Zn857   1.935   .     S
O844   Zn855   1.925   .     S
O845   C880    1.223   .     S
O846   H959    1.014   1_455 S
O847   Zn855   1.928   .     S
O848   Zn858   1.929   .     S
O849   Zn856   1.934   .     S
O850   Zn857   1.945   .     S
O851   Zn858   1.943   .     S
O852   Zn855   1.932   .     S
O853   Zn856   1.932   .     S
O854   Zn857   1.928   .     S
C859   O915    1.269   .     A
C859   C869    1.435   .     S
C859   O917    1.267   .     A
C860   C861    1.386   .     A
C860   C884    1.417   .     A
C860   H890    1.076   .     S
C861   H902    1.084   .     S
C861   C269    1.390   1_556 S
C862   O918    1.270   .     A
C862   O916    1.286   .     A
C862   C868    1.458   .     S
C863   C864    1.420   .     A
C863   C865    1.402   .     A
C864   C885    1.425   .     A
C864   C867    1.412   .     A
C865   C866    1.390   .     A
C865   H896    1.084   .     S
C866   H901    1.084   .     S
C866   C878    1.396   .     A
C867   H900    1.078   .     S
C867   C878    1.393   .     A
C868   C935    1.347   .     S
C868   H963    1.088   .     S
C870   N905    1.436   .     S
C870   C877    1.417   .     A
C870   C879    1.409   .     A
C871   C874    1.450   .     S
C871   C1070   1.331   .     S
C871   H1096   1.088   .     S
C872   C873    1.434   .     S
C873   O919    1.279   .     A
C873   O913    1.279   .     A
C874   O914    1.271   .     A
C874   O920    1.270   .     A
C875   O909    1.274   .     A
C875   O907    1.279   .     A
C875   C878    1.455   .     S
C876   O910    1.290   .     A
C876   O908    1.280   .     A
C876   C877    1.481   .     S
C877   C881    1.395   .     A
C879   C883    1.420   .     A
C879   C880    1.488   .     S
C880   O318    1.398   1_556 S
C881   C882    1.407   .     A
C881   H903    1.075   .     S
C882   C884    1.431   .     A
C882   C883    1.422   .     A
C883   C293    1.401   1_556 S
C884   C291    1.425   1_556 S
C885   C886    1.408   .     A
C886   C887    1.383   .     A
C886   H889    1.077   .     S
C887   H888    1.081   .     S
H891   N904    1.046   .     S
H892   N904    1.046   .     S
H893   O978    1.014   .     S
H894   N905    1.045   .     S
H895   N905    1.045   .     S
H899   C1070   1.086   .     S
N904   C935    1.437   .     S
O906   Zn923   1.934   .     S
O906   Zn922   1.949   .     S
O906   Zn924   1.932   .     S
O906   Zn921   1.959   .     S
O907   Zn922   1.927   .     S
O908   Zn924   1.938   .     S
O909   Zn923   1.935   .     S
O910   Zn921   1.925   .     S
O911   C946    1.223   .     S
O913   Zn921   1.928   .     S
O914   Zn924   1.929   .     S
O915   Zn922   1.934   .     S
O916   Zn923   1.945   .     S
O917   Zn924   1.943   .     S
O918   Zn921   1.932   .     S
O919   Zn922   1.932   .     S
O920   Zn923   1.928   .     S
C925   O981    1.269   .     A
C925   C935    1.435   .     S
C925   O983    1.267   .     A
C926   C927    1.386   .     A
C926   C950    1.417   .     A
C926   H956    1.076   .     S
C927   H968    1.084   .     S
C927   C335    1.390   1_556 S
C928   O984    1.270   .     A
C928   O982    1.286   .     A
C928   C934    1.458   .     S
C929   C930    1.420   .     A
C929   C931    1.402   .     A
C930   C951    1.425   .     A
C930   C933    1.412   .     A
C931   C932    1.390   .     A
C931   H962    1.084   .     S
C932   H967    1.084   .     S
C932   C944    1.396   .     A
C933   H966    1.078   .     S
C933   C944    1.393   .     A
C934   C803    1.347   1_655 S
C934   H831    1.088   1_655 S
C936   N971    1.436   .     S
C936   C943    1.417   .     A
C936   C945    1.409   .     A
C937   C940    1.450   .     S
C937   C1136   1.331   .     S
C937   H1162   1.088   .     S
C938   C939    1.434   .     S
C939   O985    1.279   .     A
C939   O979    1.279   .     A
C940   O980    1.271   .     A
C940   O986    1.270   .     A
C941   O975    1.274   .     A
C941   O973    1.279   .     A
C941   C944    1.455   .     S
C942   O976    1.290   .     A
C942   O974    1.280   .     A
C942   C943    1.481   .     S
C943   C947    1.395   .     A
C945   C949    1.420   .     A
C945   C946    1.488   .     S
C946   O384    1.398   1_556 S
C947   C948    1.407   .     A
C947   H969    1.075   .     S
C948   C950    1.431   .     A
C948   C949    1.422   .     A
C949   C359    1.401   1_556 S
C950   C357    1.425   1_556 S
C951   C952    1.408   .     A
C952   C953    1.383   .     A
C952   H955    1.077   .     S
C953   H954    1.081   .     S
H957   N970    1.046   .     S
H958   N970    1.046   .     S
H959   O846    1.014   1_655 S
H960   N971    1.045   .     S
H961   N971    1.045   .     S
H965   C1136   1.086   .     S
N970   C803    1.437   1_655 S
O972   Zn989   1.934   .     S
O972   Zn988   1.949   .     S
O972   Zn990   1.932   .     S
O972   Zn987   1.959   .     S
O973   Zn988   1.927   .     S
O974   Zn990   1.938   .     S
O975   Zn989   1.935   .     S
O976   Zn987   1.925   .     S
O977   C814    1.223   1_655 S
O979   Zn987   1.928   .     S
O980   Zn990   1.929   .     S
O981   Zn988   1.934   .     S
O982   Zn989   1.945   .     S
O983   Zn990   1.943   .     S
O984   Zn987   1.932   .     S
O985   Zn988   1.932   .     S
O986   Zn989   1.928   .     S
C991   O1047   1.269   .     A
C991   C1001   1.435   .     S
C991   O1049   1.267   .     A
C992   C993    1.386   .     A
C992   C1016   1.417   .     A
C992   H1022   1.076   .     S
C993   H1034   1.084   .     S
C993   C401    1.390   1_556 S
C994   O1050   1.270   .     A
C994   O1048   1.286   .     A
C994   C1000   1.458   .     S
C995   C996    1.420   .     A
C995   C997    1.402   .     A
C996   C1017   1.425   .     A
C996   C999    1.412   .     A
C997   C998    1.390   .     A
C997   H1028   1.084   .     S
C998   H1033   1.084   .     S
C998   C1010   1.396   .     A
C999   H1032   1.078   .     S
C999   C1010   1.393   .     A
C1000  C1067   1.347   .     S
C1000  H1095   1.088   .     S
C1001  C1132   1.347   1_455 S
C1001  N1168   1.437   1_455 S
C1002  N1037   1.436   .     S
C1002  C1009   1.417   .     A
C1002  C1011   1.409   .     A
C1003  C1006   1.450   .     S
C1003  C608    1.331   1_565 S
C1003  H634    1.088   1_565 S
C1004  C1005   1.434   .     S
C1005  O1051   1.279   .     A
C1005  O1045   1.279   .     A
C1006  O1046   1.271   .     A
C1006  O1052   1.270   .     A
C1007  O1041   1.274   .     A
C1007  O1039   1.279   .     A
C1007  C1010   1.455   .     S
C1008  O1042   1.290   .     A
C1008  O1040   1.280   .     A
C1008  C1009   1.481   .     S
C1009  C1013   1.395   .     A
C1011  C1015   1.420   .     A
C1011  C1012   1.488   .     S
C1012  O1175   1.223   1_455 S
C1012  O450    1.398   1_556 S
C1013  C1014   1.407   .     A
C1013  H1035   1.075   .     S
C1014  C1016   1.431   .     A
C1014  C1015   1.422   .     A
C1015  C425    1.401   1_556 S
C1016  C423    1.425   1_556 S
C1017  C1018   1.408   .     A
C1018  C1019   1.383   .     A
C1018  H1021   1.077   .     S
C1019  H1020   1.081   .     S
H1023  N1036   1.046   .     S
H1024  N1036   1.046   .     S
H1025  O1110   1.014   .     S
H1026  N1037   1.045   .     S
H1027  N1037   1.045   .     S
H1029  C1132   1.088   1_455 S
H1031  C608    1.086   1_565 S
N1036  C1067   1.437   .     S
O1038  Zn1055  1.934   .     S
O1038  Zn1054  1.949   .     S
O1038  Zn1056  1.932   .     S
O1038  Zn1053  1.959   .     S
O1039  Zn1054  1.927   .     S
O1040  Zn1056  1.938   .     S
O1041  Zn1055  1.935   .     S
O1042  Zn1053  1.925   .     S
O1043  C1078   1.223   .     S
O1044  H1157   1.014   1_455 S
O1045  Zn1053  1.928   .     S
O1046  Zn1056  1.929   .     S
O1047  Zn1054  1.934   .     S
O1048  Zn1055  1.945   .     S
O1049  Zn1056  1.943   .     S
O1050  Zn1053  1.932   .     S
O1051  Zn1054  1.932   .     S
O1052  Zn1055  1.928   .     S
C1057  O1113   1.269   .     A
C1057  C1067   1.435   .     S
C1057  O1115   1.267   .     A
C1058  C1059   1.386   .     A
C1058  C1082   1.417   .     A
C1058  H1088   1.076   .     S
C1059  H1100   1.084   .     S
C1059  C467    1.390   1_556 S
C1060  O1116   1.270   .     A
C1060  O1114   1.286   .     A
C1060  C1066   1.458   .     S
C1061  C1062   1.420   .     A
C1061  C1063   1.402   .     A
C1062  C1083   1.425   .     A
C1062  C1065   1.412   .     A
C1063  C1064   1.390   .     A
C1063  H1094   1.084   .     S
C1064  H1099   1.084   .     S
C1064  C1076   1.396   .     A
C1065  H1098   1.078   .     S
C1065  C1076   1.393   .     A
C1066  C1133   1.347   .     S
C1066  H1161   1.088   .     S
C1068  N1103   1.436   .     S
C1068  C1075   1.417   .     A
C1068  C1077   1.409   .     A
C1069  C1072   1.450   .     S
C1069  C674    1.331   1_565 S
C1069  H700    1.088   1_565 S
C1070  C1071   1.434   .     S
C1071  O1117   1.279   .     A
C1071  O1111   1.279   .     A
C1072  O1112   1.271   .     A
C1072  O1118   1.270   .     A
C1073  O1107   1.274   .     A
C1073  O1105   1.279   .     A
C1073  C1076   1.455   .     S
C1074  O1108   1.290   .     A
C1074  O1106   1.280   .     A
C1074  C1075   1.481   .     S
C1075  C1079   1.395   .     A
C1077  C1081   1.420   .     A
C1077  C1078   1.488   .     S
C1078  O516    1.398   1_556 S
C1079  C1080   1.407   .     A
C1079  H1101   1.075   .     S
C1080  C1082   1.431   .     A
C1080  C1081   1.422   .     A
C1081  C491    1.401   1_556 S
C1082  C489    1.425   1_556 S
C1083  C1084   1.408   .     A
C1084  C1085   1.383   .     A
C1084  H1087   1.077   .     S
C1085  H1086   1.081   .     S
H1089  N1102   1.046   .     S
H1090  N1102   1.046   .     S
H1091  O1176   1.014   .     S
H1092  N1103   1.045   .     S
H1093  N1103   1.045   .     S
H1097  C674    1.086   1_565 S
N1102  C1133   1.437   .     S
O1104  Zn1121  1.934   .     S
O1104  Zn1120  1.949   .     S
O1104  Zn1122  1.932   .     S
O1104  Zn1119  1.959   .     S
O1105  Zn1120  1.927   .     S
O1106  Zn1122  1.938   .     S
O1107  Zn1121  1.935   .     S
O1108  Zn1119  1.925   .     S
O1109  C1144   1.223   .     S
O1111  Zn1119  1.928   .     S
O1112  Zn1122  1.929   .     S
O1113  Zn1120  1.934   .     S
O1114  Zn1121  1.945   .     S
O1115  Zn1122  1.943   .     S
O1116  Zn1119  1.932   .     S
O1117  Zn1120  1.932   .     S
O1118  Zn1121  1.928   .     S
C1123  O1179   1.269   .     A
C1123  C1133   1.435   .     S
C1123  O1181   1.267   .     A
C1124  C1125   1.386   .     A
C1124  C1148   1.417   .     A
C1124  H1154   1.076   .     S
C1125  H1166   1.084   .     S
C1125  C533    1.390   1_556 S
C1126  O1182   1.270   .     A
C1126  O1180   1.286   .     A
C1126  C1132   1.458   .     S
C1127  C1128   1.420   .     A
C1127  C1129   1.402   .     A
C1128  C1149   1.425   .     A
C1128  C1131   1.412   .     A
C1129  C1130   1.390   .     A
C1129  H1160   1.084   .     S
C1130  H1165   1.084   .     S
C1130  C1142   1.396   .     A
C1131  H1164   1.078   .     S
C1131  C1142   1.393   .     A
C1132  C1001   1.347   1_655 S
C1132  H1029   1.088   1_655 S
C1134  N1169   1.436   .     S
C1134  C1141   1.417   .     A
C1134  C1143   1.409   .     A
C1135  C1138   1.450   .     S
C1135  C740    1.331   1_565 S
C1135  H766    1.088   1_565 S
C1136  C1137   1.434   .     S
C1137  O1183   1.279   .     A
C1137  O1177   1.279   .     A
C1138  O1178   1.271   .     A
C1138  O1184   1.270   .     A
C1139  O1173   1.274   .     A
C1139  O1171   1.279   .     A
C1139  C1142   1.455   .     S
C1140  O1174   1.290   .     A
C1140  O1172   1.280   .     A
C1140  C1141   1.481   .     S
C1141  C1145   1.395   .     A
C1143  C1147   1.420   .     A
C1143  C1144   1.488   .     S
C1144  O582    1.398   1_556 S
C1145  C1146   1.407   .     A
C1145  H1167   1.075   .     S
C1146  C1148   1.431   .     A
C1146  C1147   1.422   .     A
C1147  C557    1.401   1_556 S
C1148  C555    1.425   1_556 S
C1149  C1150   1.408   .     A
C1150  C1151   1.383   .     A
C1150  H1153   1.077   .     S
C1151  H1152   1.081   .     S
H1155  N1168   1.046   .     S
H1156  N1168   1.046   .     S
H1157  O1044   1.014   1_655 S
H1158  N1169   1.045   .     S
H1159  N1169   1.045   .     S
H1163  C740    1.086   1_565 S
N1168  C1001   1.437   1_655 S
O1170  Zn1187  1.934   .     S
O1170  Zn1186  1.949   .     S
O1170  Zn1188  1.932   .     S
O1170  Zn1185  1.959   .     S
O1171  Zn1186  1.927   .     S
O1172  Zn1188  1.938   .     S
O1173  Zn1187  1.935   .     S
O1174  Zn1185  1.925   .     S
O1175  C1012   1.223   1_655 S
O1177  Zn1185  1.928   .     S
O1178  Zn1188  1.929   .     S
O1179  Zn1186  1.934   .     S
O1180  Zn1187  1.945   .     S
O1181  Zn1188  1.943   .     S
O1182  Zn1185  1.932   .     S
O1183  Zn1186  1.932   .     S
O1184  Zn1187  1.928   .     S
