data_str_m1_o10_o16_pcu_sym.228
_audit_creation_date              2020-01-03
_audit_creation_method            'Materials Studio'
_symmetry_space_group_name_H-M    'P1'
_symmetry_Int_Tables_number       1
_symmetry_cell_setting            triclinic
loop_
_symmetry_equiv_pos_as_xyz
  x,y,z
_cell_length_a                    32.5673
_cell_length_b                    32.5329
_cell_length_c                    31.0545
_cell_angle_alpha                 96.0129
_cell_angle_beta                  74.2588
_cell_angle_gamma                 98.6367
loop_
_atom_site_label
_atom_site_type_symbol
_atom_site_fract_x
_atom_site_fract_y
_atom_site_fract_z
_atom_site_U_iso_or_equiv
_atom_site_adp_type
_atom_site_occupancy
Br1    Br    0.22837   0.01440   0.18988   0.00000  Uiso   1.00
Br2    Br    0.03308   0.20619   0.18633   0.00000  Uiso   1.00
C3     C     0.05275   0.15959   0.26025   0.00000  Uiso   1.00
C4     C     0.16578   0.15121   0.05906   0.00000  Uiso   1.00
C5     C     0.23748   0.13797   0.05652   0.00000  Uiso   1.00
C6     C     0.28096   0.17386   0.23972   0.00000  Uiso   1.00
C7     C     0.13595   0.18720   0.42067   0.00000  Uiso   1.00
C8     C     0.32710   0.17642   0.23468   0.00000  Uiso   1.00
C9     C     0.00759   0.15789   0.26369   0.00000  Uiso   1.00
C10    C     0.18123   0.32267   0.23567   0.00000  Uiso   1.00
C11    C     0.15259   0.01177   0.26352   0.00000  Uiso   1.00
C12    C     0.15601   0.05595   0.26042   0.00000  Uiso   1.00
C13    C     0.17680   0.27802   0.23996   0.00000  Uiso   1.00
C14    C     0.07870   0.18592   0.48966   0.00000  Uiso   1.00
C15    C     0.18572   0.14845   0.12927   0.00000  Uiso   1.00
C16    C     0.14839   0.18452   0.37101   0.00000  Uiso   1.00
C17    C     0.25073   0.14234   0.01061   0.00000  Uiso   1.00
C18    C     0.19550   0.14293   0.08068   0.00000  Uiso   1.00
C19    C     0.09285   0.19164   0.44370   0.00000  Uiso   1.00
C20    C     0.10603   0.17459   0.01250   0.00000  Uiso   1.00
C21    C     0.14958   0.17064   0.49072   0.00000  Uiso   1.00
C22    C     0.16495   0.17927   0.44478   0.00000  Uiso   1.00
C23    C     0.17841   0.15851   0.01304   0.00000  Uiso   1.00
C24    C     0.22206   0.15526   0.48899   0.00000  Uiso   1.00
C25    C     0.23696   0.16797   0.44519   0.00000  Uiso   1.00
C26    C     0.20918   0.18041   0.42389   0.00000  Uiso   1.00
H27    H     0.26043   0.13149   0.07371   0.00000  Uiso   1.00
H28    H     0.03578   0.20140   0.44150   0.00000  Uiso   1.00
H29    H     0.31871   0.14162   0.29126   0.00000  Uiso   1.00
H30    H     0.12601   0.33096   0.28921   0.00000  Uiso   1.00
H31    H     0.27060   0.16992   0.42722   0.00000  Uiso   1.00
H32    H     0.13417   0.15512   0.08004   0.00000  Uiso   1.00
H33    H     0.09167   0.16912   0.04726   0.00000  Uiso   1.00
H34    H     0.04563   0.18872   0.00775   0.00000  Uiso   1.00
H35    H     0.22321   0.19171   0.39089   0.00000  Uiso   1.00
H36    H     0.29312   0.12436   0.45779   0.00000  Uiso   1.00
O37    O     0.16667   0.16667   0.25000   0.00000  Uiso   1.00
O38    O     0.15451   0.12637   0.15459   0.00000  Uiso   1.00
O39    O     0.12940   0.20391   0.34968   0.00000  Uiso   1.00
O40    O     0.20824   0.17759   0.14606   0.00000  Uiso   1.00
O41    O     0.17451   0.15880   0.34968   0.00000  Uiso   1.00
O42    O     0.29236   0.13564   0.48881   0.00000  Uiso   1.00
O43    O     0.06455   0.19967   0.42044   0.00000  Uiso   1.00
O44    O     0.17930   0.08019   0.28214   0.00000  Uiso   1.00
O45    O     0.14632   0.26085   0.27014   0.00000  Uiso   1.00
O46    O     0.07412   0.13291   0.23413   0.00000  Uiso   1.00
O47    O     0.26693   0.19272   0.21361   0.00000  Uiso   1.00
O48    O     0.07071   0.18878   0.28213   0.00000  Uiso   1.00
O49    O     0.25491   0.15226   0.27014   0.00000  Uiso   1.00
O50    O     0.13760   0.06944   0.23413   0.00000  Uiso   1.00
O51    O     0.20345   0.25620   0.21361   0.00000  Uiso   1.00
Zn52   Zn    0.19338   0.13994   0.28734   0.00000  Uiso   1.00
Zn53   Zn    0.13379   0.12458   0.21876   0.00000  Uiso   1.00
Zn54   Zn    0.21056   0.19775   0.20657   0.00000  Uiso   1.00
Zn55   Zn    0.12893   0.20439   0.28734   0.00000  Uiso   1.00
Br56   Br    0.56170   0.01440   0.18988   0.00000  Uiso   1.00
Br57   Br    0.36642   0.20619   0.18633   0.00000  Uiso   1.00
C58    C     0.38609   0.15959   0.26025   0.00000  Uiso   1.00
C59    C     0.49911   0.15121   0.05906   0.00000  Uiso   1.00
C60    C     0.57081   0.13797   0.05652   0.00000  Uiso   1.00
C61    C     0.61429   0.17386   0.23972   0.00000  Uiso   1.00
C62    C     0.46928   0.18720   0.42067   0.00000  Uiso   1.00
C63    C     0.66043   0.17642   0.23468   0.00000  Uiso   1.00
C64    C     0.34092   0.15789   0.26369   0.00000  Uiso   1.00
C65    C     0.51456   0.32267   0.23567   0.00000  Uiso   1.00
C66    C     0.48592   0.01177   0.26352   0.00000  Uiso   1.00
C67    C     0.48934   0.05595   0.26042   0.00000  Uiso   1.00
C68    C     0.51014   0.27802   0.23996   0.00000  Uiso   1.00
C69    C     0.41203   0.18592   0.48966   0.00000  Uiso   1.00
C70    C     0.51905   0.14845   0.12927   0.00000  Uiso   1.00
C71    C     0.48172   0.18452   0.37101   0.00000  Uiso   1.00
C72    C     0.58407   0.14234   0.01061   0.00000  Uiso   1.00
C73    C     0.52884   0.14293   0.08068   0.00000  Uiso   1.00
C74    C     0.42618   0.19164   0.44370   0.00000  Uiso   1.00
C75    C     0.43936   0.17459   0.01250   0.00000  Uiso   1.00
C76    C     0.48291   0.17064   0.49072   0.00000  Uiso   1.00
C77    C     0.49828   0.17927   0.44478   0.00000  Uiso   1.00
C78    C     0.51175   0.15851   0.01304   0.00000  Uiso   1.00
C79    C     0.55540   0.15526   0.48899   0.00000  Uiso   1.00
C80    C     0.57030   0.16797   0.44519   0.00000  Uiso   1.00
C81    C     0.54252   0.18041   0.42389   0.00000  Uiso   1.00
H82    H     0.59376   0.13149   0.07371   0.00000  Uiso   1.00
H83    H     0.36911   0.20140   0.44150   0.00000  Uiso   1.00
H84    H     0.65204   0.14162   0.29126   0.00000  Uiso   1.00
H85    H     0.45935   0.33096   0.28921   0.00000  Uiso   1.00
H86    H     0.60393   0.16992   0.42722   0.00000  Uiso   1.00
H87    H     0.46750   0.15512   0.08004   0.00000  Uiso   1.00
H88    H     0.42500   0.16912   0.04726   0.00000  Uiso   1.00
H89    H     0.37896   0.18872   0.00775   0.00000  Uiso   1.00
H90    H     0.55654   0.19171   0.39089   0.00000  Uiso   1.00
H91    H     0.62645   0.12436   0.45779   0.00000  Uiso   1.00
O92    O     0.50000   0.16667   0.25000   0.00000  Uiso   1.00
O93    O     0.48784   0.12637   0.15459   0.00000  Uiso   1.00
O94    O     0.46274   0.20391   0.34968   0.00000  Uiso   1.00
O95    O     0.54157   0.17759   0.14606   0.00000  Uiso   1.00
O96    O     0.50785   0.15880   0.34968   0.00000  Uiso   1.00
O97    O     0.62569   0.13564   0.48881   0.00000  Uiso   1.00
O98    O     0.39789   0.19967   0.42044   0.00000  Uiso   1.00
O99    O     0.51264   0.08019   0.28214   0.00000  Uiso   1.00
O100   O     0.47965   0.26085   0.27014   0.00000  Uiso   1.00
O101   O     0.40745   0.13291   0.23413   0.00000  Uiso   1.00
O102   O     0.60026   0.19272   0.21361   0.00000  Uiso   1.00
O103   O     0.40405   0.18878   0.28213   0.00000  Uiso   1.00
O104   O     0.58824   0.15226   0.27014   0.00000  Uiso   1.00
O105   O     0.47093   0.06944   0.23413   0.00000  Uiso   1.00
O106   O     0.53678   0.25620   0.21361   0.00000  Uiso   1.00
Zn107  Zn    0.52672   0.13994   0.28734   0.00000  Uiso   1.00
Zn108  Zn    0.46713   0.12458   0.21876   0.00000  Uiso   1.00
Zn109  Zn    0.54389   0.19775   0.20657   0.00000  Uiso   1.00
Zn110  Zn    0.46226   0.20439   0.28734   0.00000  Uiso   1.00
Br111  Br    0.89503   0.01440   0.18988   0.00000  Uiso   1.00
Br112  Br    0.69975   0.20619   0.18633   0.00000  Uiso   1.00
C113   C     0.71942   0.15959   0.26025   0.00000  Uiso   1.00
C114   C     0.83245   0.15121   0.05906   0.00000  Uiso   1.00
C115   C     0.90415   0.13797   0.05652   0.00000  Uiso   1.00
C116   C     0.94763   0.17386   0.23972   0.00000  Uiso   1.00
C117   C     0.80261   0.18720   0.42067   0.00000  Uiso   1.00
C118   C     0.99376   0.17642   0.23468   0.00000  Uiso   1.00
C119   C     0.67425   0.15789   0.26369   0.00000  Uiso   1.00
C120   C     0.84789   0.32267   0.23567   0.00000  Uiso   1.00
C121   C     0.81926   0.01177   0.26352   0.00000  Uiso   1.00
C122   C     0.82268   0.05595   0.26042   0.00000  Uiso   1.00
C123   C     0.84347   0.27802   0.23996   0.00000  Uiso   1.00
C124   C     0.74536   0.18592   0.48966   0.00000  Uiso   1.00
C125   C     0.85239   0.14845   0.12927   0.00000  Uiso   1.00
C126   C     0.81505   0.18452   0.37101   0.00000  Uiso   1.00
C127   C     0.91740   0.14234   0.01061   0.00000  Uiso   1.00
C128   C     0.86217   0.14293   0.08068   0.00000  Uiso   1.00
C129   C     0.75951   0.19164   0.44370   0.00000  Uiso   1.00
C130   C     0.77269   0.17459   0.01250   0.00000  Uiso   1.00
C131   C     0.81625   0.17064   0.49072   0.00000  Uiso   1.00
C132   C     0.83162   0.17927   0.44478   0.00000  Uiso   1.00
C133   C     0.84508   0.15851   0.01304   0.00000  Uiso   1.00
C134   C     0.88873   0.15526   0.48899   0.00000  Uiso   1.00
C135   C     0.90363   0.16797   0.44519   0.00000  Uiso   1.00
C136   C     0.87585   0.18041   0.42389   0.00000  Uiso   1.00
H137   H     0.92710   0.13149   0.07371   0.00000  Uiso   1.00
H138   H     0.70244   0.20140   0.44150   0.00000  Uiso   1.00
H139   H     0.98538   0.14162   0.29126   0.00000  Uiso   1.00
H140   H     0.79268   0.33096   0.28921   0.00000  Uiso   1.00
H141   H     0.93726   0.16992   0.42722   0.00000  Uiso   1.00
H142   H     0.80083   0.15512   0.08004   0.00000  Uiso   1.00
H143   H     0.75834   0.16912   0.04726   0.00000  Uiso   1.00
H144   H     0.71230   0.18872   0.00775   0.00000  Uiso   1.00
H145   H     0.88987   0.19171   0.39089   0.00000  Uiso   1.00
H146   H     0.95979   0.12436   0.45779   0.00000  Uiso   1.00
O147   O     0.83333   0.16667   0.25000   0.00000  Uiso   1.00
O148   O     0.82118   0.12637   0.15459   0.00000  Uiso   1.00
O149   O     0.79607   0.20391   0.34968   0.00000  Uiso   1.00
O150   O     0.87491   0.17759   0.14606   0.00000  Uiso   1.00
O151   O     0.84118   0.15880   0.34968   0.00000  Uiso   1.00
O152   O     0.95903   0.13564   0.48881   0.00000  Uiso   1.00
O153   O     0.73122   0.19967   0.42044   0.00000  Uiso   1.00
O154   O     0.84597   0.08019   0.28214   0.00000  Uiso   1.00
O155   O     0.81298   0.26085   0.27014   0.00000  Uiso   1.00
O156   O     0.74078   0.13291   0.23413   0.00000  Uiso   1.00
O157   O     0.93360   0.19272   0.21361   0.00000  Uiso   1.00
O158   O     0.73738   0.18878   0.28213   0.00000  Uiso   1.00
O159   O     0.92158   0.15226   0.27014   0.00000  Uiso   1.00
O160   O     0.80426   0.06944   0.23413   0.00000  Uiso   1.00
O161   O     0.87012   0.25620   0.21361   0.00000  Uiso   1.00
Zn162  Zn    0.86005   0.13994   0.28734   0.00000  Uiso   1.00
Zn163  Zn    0.80046   0.12458   0.21876   0.00000  Uiso   1.00
Zn164  Zn    0.87723   0.19775   0.20657   0.00000  Uiso   1.00
Zn165  Zn    0.79560   0.20439   0.28734   0.00000  Uiso   1.00
Br166  Br    0.22837   0.34773   0.18988   0.00000  Uiso   1.00
Br167  Br    0.03308   0.53952   0.18633   0.00000  Uiso   1.00
C168   C     0.05275   0.49292   0.26025   0.00000  Uiso   1.00
C169   C     0.16578   0.48454   0.05906   0.00000  Uiso   1.00
C170   C     0.23748   0.47131   0.05652   0.00000  Uiso   1.00
C171   C     0.28096   0.50719   0.23972   0.00000  Uiso   1.00
C172   C     0.13595   0.52054   0.42067   0.00000  Uiso   1.00
C173   C     0.32710   0.50976   0.23468   0.00000  Uiso   1.00
C174   C     0.00759   0.49122   0.26369   0.00000  Uiso   1.00
C175   C     0.18123   0.65601   0.23567   0.00000  Uiso   1.00
C176   C     0.15259   0.34511   0.26352   0.00000  Uiso   1.00
C177   C     0.15601   0.38928   0.26042   0.00000  Uiso   1.00
C178   C     0.17680   0.61135   0.23996   0.00000  Uiso   1.00
C179   C     0.07870   0.51925   0.48966   0.00000  Uiso   1.00
C180   C     0.18572   0.48178   0.12927   0.00000  Uiso   1.00
C181   C     0.14839   0.51785   0.37101   0.00000  Uiso   1.00
C182   C     0.25073   0.47568   0.01061   0.00000  Uiso   1.00
C183   C     0.19550   0.47626   0.08068   0.00000  Uiso   1.00
C184   C     0.09285   0.52498   0.44370   0.00000  Uiso   1.00
C185   C     0.10603   0.50792   0.01250   0.00000  Uiso   1.00
C186   C     0.14958   0.50397   0.49072   0.00000  Uiso   1.00
C187   C     0.16495   0.51261   0.44478   0.00000  Uiso   1.00
C188   C     0.17841   0.49184   0.01304   0.00000  Uiso   1.00
C189   C     0.22206   0.48859   0.48899   0.00000  Uiso   1.00
C190   C     0.23696   0.50130   0.44519   0.00000  Uiso   1.00
C191   C     0.20918   0.51374   0.42389   0.00000  Uiso   1.00
H192   H     0.26043   0.46482   0.07371   0.00000  Uiso   1.00
H193   H     0.03578   0.53473   0.44150   0.00000  Uiso   1.00
H194   H     0.31871   0.47496   0.29126   0.00000  Uiso   1.00
H195   H     0.12601   0.66429   0.28921   0.00000  Uiso   1.00
H196   H     0.27060   0.50325   0.42722   0.00000  Uiso   1.00
H197   H     0.13417   0.48845   0.08004   0.00000  Uiso   1.00
H198   H     0.09167   0.50245   0.04726   0.00000  Uiso   1.00
H199   H     0.04563   0.52206   0.00775   0.00000  Uiso   1.00
H200   H     0.22321   0.52504   0.39089   0.00000  Uiso   1.00
H201   H     0.29312   0.45769   0.45779   0.00000  Uiso   1.00
O202   O     0.16667   0.50000   0.25000   0.00000  Uiso   1.00
O203   O     0.15451   0.45970   0.15459   0.00000  Uiso   1.00
O204   O     0.12940   0.53724   0.34968   0.00000  Uiso   1.00
O205   O     0.20824   0.51092   0.14606   0.00000  Uiso   1.00
O206   O     0.17451   0.49213   0.34968   0.00000  Uiso   1.00
O207   O     0.29236   0.46898   0.48881   0.00000  Uiso   1.00
O208   O     0.06455   0.53301   0.42044   0.00000  Uiso   1.00
O209   O     0.17930   0.41352   0.28214   0.00000  Uiso   1.00
O210   O     0.14632   0.59418   0.27014   0.00000  Uiso   1.00
O211   O     0.07412   0.46625   0.23413   0.00000  Uiso   1.00
O212   O     0.26693   0.52605   0.21361   0.00000  Uiso   1.00
O213   O     0.07071   0.52211   0.28213   0.00000  Uiso   1.00
O214   O     0.25491   0.48559   0.27014   0.00000  Uiso   1.00
O215   O     0.13760   0.40277   0.23413   0.00000  Uiso   1.00
O216   O     0.20345   0.58953   0.21361   0.00000  Uiso   1.00
Zn217  Zn    0.19338   0.47327   0.28734   0.00000  Uiso   1.00
Zn218  Zn    0.13379   0.45791   0.21876   0.00000  Uiso   1.00
Zn219  Zn    0.21056   0.53109   0.20657   0.00000  Uiso   1.00
Zn220  Zn    0.12893   0.53773   0.28734   0.00000  Uiso   1.00
Br221  Br    0.56170   0.34773   0.18988   0.00000  Uiso   1.00
Br222  Br    0.36642   0.53952   0.18633   0.00000  Uiso   1.00
C223   C     0.38609   0.49292   0.26025   0.00000  Uiso   1.00
C224   C     0.49911   0.48454   0.05906   0.00000  Uiso   1.00
C225   C     0.57081   0.47131   0.05652   0.00000  Uiso   1.00
C226   C     0.61429   0.50719   0.23972   0.00000  Uiso   1.00
C227   C     0.46928   0.52054   0.42067   0.00000  Uiso   1.00
C228   C     0.66043   0.50976   0.23468   0.00000  Uiso   1.00
C229   C     0.34092   0.49122   0.26369   0.00000  Uiso   1.00
C230   C     0.51456   0.65601   0.23567   0.00000  Uiso   1.00
C231   C     0.48592   0.34511   0.26352   0.00000  Uiso   1.00
C232   C     0.48934   0.38928   0.26042   0.00000  Uiso   1.00
C233   C     0.51014   0.61135   0.23996   0.00000  Uiso   1.00
C234   C     0.41203   0.51925   0.48966   0.00000  Uiso   1.00
C235   C     0.51905   0.48178   0.12927   0.00000  Uiso   1.00
C236   C     0.48172   0.51785   0.37101   0.00000  Uiso   1.00
C237   C     0.58407   0.47568   0.01061   0.00000  Uiso   1.00
C238   C     0.52884   0.47626   0.08068   0.00000  Uiso   1.00
C239   C     0.42618   0.52498   0.44370   0.00000  Uiso   1.00
C240   C     0.43936   0.50792   0.01250   0.00000  Uiso   1.00
C241   C     0.48291   0.50397   0.49072   0.00000  Uiso   1.00
C242   C     0.49828   0.51261   0.44478   0.00000  Uiso   1.00
C243   C     0.51175   0.49184   0.01304   0.00000  Uiso   1.00
C244   C     0.55540   0.48859   0.48899   0.00000  Uiso   1.00
C245   C     0.57030   0.50130   0.44519   0.00000  Uiso   1.00
C246   C     0.54252   0.51374   0.42389   0.00000  Uiso   1.00
H247   H     0.59376   0.46482   0.07371   0.00000  Uiso   1.00
H248   H     0.36911   0.53473   0.44150   0.00000  Uiso   1.00
H249   H     0.65204   0.47496   0.29126   0.00000  Uiso   1.00
H250   H     0.45935   0.66429   0.28921   0.00000  Uiso   1.00
H251   H     0.60393   0.50325   0.42722   0.00000  Uiso   1.00
H252   H     0.46750   0.48845   0.08004   0.00000  Uiso   1.00
H253   H     0.42500   0.50245   0.04726   0.00000  Uiso   1.00
H254   H     0.37896   0.52206   0.00775   0.00000  Uiso   1.00
H255   H     0.55654   0.52504   0.39089   0.00000  Uiso   1.00
H256   H     0.62645   0.45769   0.45779   0.00000  Uiso   1.00
O257   O     0.50000   0.50000   0.25000   0.00000  Uiso   1.00
O258   O     0.48784   0.45970   0.15459   0.00000  Uiso   1.00
O259   O     0.46274   0.53724   0.34968   0.00000  Uiso   1.00
O260   O     0.54157   0.51092   0.14606   0.00000  Uiso   1.00
O261   O     0.50785   0.49213   0.34968   0.00000  Uiso   1.00
O262   O     0.62569   0.46898   0.48881   0.00000  Uiso   1.00
O263   O     0.39789   0.53301   0.42044   0.00000  Uiso   1.00
O264   O     0.51264   0.41352   0.28214   0.00000  Uiso   1.00
O265   O     0.47965   0.59418   0.27014   0.00000  Uiso   1.00
O266   O     0.40745   0.46625   0.23413   0.00000  Uiso   1.00
O267   O     0.60026   0.52605   0.21361   0.00000  Uiso   1.00
O268   O     0.40405   0.52211   0.28213   0.00000  Uiso   1.00
O269   O     0.58824   0.48559   0.27014   0.00000  Uiso   1.00
O270   O     0.47093   0.40277   0.23413   0.00000  Uiso   1.00
O271   O     0.53678   0.58953   0.21361   0.00000  Uiso   1.00
Zn272  Zn    0.52672   0.47327   0.28734   0.00000  Uiso   1.00
Zn273  Zn    0.46713   0.45791   0.21876   0.00000  Uiso   1.00
Zn274  Zn    0.54389   0.53109   0.20657   0.00000  Uiso   1.00
Zn275  Zn    0.46226   0.53773   0.28734   0.00000  Uiso   1.00
Br276  Br    0.89503   0.34773   0.18988   0.00000  Uiso   1.00
Br277  Br    0.69975   0.53952   0.18633   0.00000  Uiso   1.00
C278   C     0.71942   0.49292   0.26025   0.00000  Uiso   1.00
C279   C     0.83245   0.48454   0.05906   0.00000  Uiso   1.00
C280   C     0.90415   0.47131   0.05652   0.00000  Uiso   1.00
C281   C     0.94763   0.50719   0.23972   0.00000  Uiso   1.00
C282   C     0.80261   0.52054   0.42067   0.00000  Uiso   1.00
C283   C     0.99376   0.50976   0.23468   0.00000  Uiso   1.00
C284   C     0.67425   0.49122   0.26369   0.00000  Uiso   1.00
C285   C     0.84789   0.65601   0.23567   0.00000  Uiso   1.00
C286   C     0.81926   0.34511   0.26352   0.00000  Uiso   1.00
C287   C     0.82268   0.38928   0.26042   0.00000  Uiso   1.00
C288   C     0.84347   0.61135   0.23996   0.00000  Uiso   1.00
C289   C     0.74536   0.51925   0.48966   0.00000  Uiso   1.00
C290   C     0.85239   0.48178   0.12927   0.00000  Uiso   1.00
C291   C     0.81505   0.51785   0.37101   0.00000  Uiso   1.00
C292   C     0.91740   0.47568   0.01061   0.00000  Uiso   1.00
C293   C     0.86217   0.47626   0.08068   0.00000  Uiso   1.00
C294   C     0.75951   0.52498   0.44370   0.00000  Uiso   1.00
C295   C     0.77269   0.50792   0.01250   0.00000  Uiso   1.00
C296   C     0.81625   0.50397   0.49072   0.00000  Uiso   1.00
C297   C     0.83162   0.51261   0.44478   0.00000  Uiso   1.00
C298   C     0.84508   0.49184   0.01304   0.00000  Uiso   1.00
C299   C     0.88873   0.48859   0.48899   0.00000  Uiso   1.00
C300   C     0.90363   0.50130   0.44519   0.00000  Uiso   1.00
C301   C     0.87585   0.51374   0.42389   0.00000  Uiso   1.00
H302   H     0.92710   0.46482   0.07371   0.00000  Uiso   1.00
H303   H     0.70244   0.53473   0.44150   0.00000  Uiso   1.00
H304   H     0.98538   0.47496   0.29126   0.00000  Uiso   1.00
H305   H     0.79268   0.66429   0.28921   0.00000  Uiso   1.00
H306   H     0.93726   0.50325   0.42722   0.00000  Uiso   1.00
H307   H     0.80083   0.48845   0.08004   0.00000  Uiso   1.00
H308   H     0.75834   0.50245   0.04726   0.00000  Uiso   1.00
H309   H     0.71230   0.52206   0.00775   0.00000  Uiso   1.00
H310   H     0.88987   0.52504   0.39089   0.00000  Uiso   1.00
H311   H     0.95979   0.45769   0.45779   0.00000  Uiso   1.00
O312   O     0.83333   0.50000   0.25000   0.00000  Uiso   1.00
O313   O     0.82118   0.45970   0.15459   0.00000  Uiso   1.00
O314   O     0.79607   0.53724   0.34968   0.00000  Uiso   1.00
O315   O     0.87491   0.51092   0.14606   0.00000  Uiso   1.00
O316   O     0.84118   0.49213   0.34968   0.00000  Uiso   1.00
O317   O     0.95903   0.46898   0.48881   0.00000  Uiso   1.00
O318   O     0.73122   0.53301   0.42044   0.00000  Uiso   1.00
O319   O     0.84597   0.41352   0.28214   0.00000  Uiso   1.00
O320   O     0.81298   0.59418   0.27014   0.00000  Uiso   1.00
O321   O     0.74078   0.46625   0.23413   0.00000  Uiso   1.00
O322   O     0.93360   0.52605   0.21361   0.00000  Uiso   1.00
O323   O     0.73738   0.52211   0.28213   0.00000  Uiso   1.00
O324   O     0.92158   0.48559   0.27014   0.00000  Uiso   1.00
O325   O     0.80426   0.40277   0.23413   0.00000  Uiso   1.00
O326   O     0.87012   0.58953   0.21361   0.00000  Uiso   1.00
Zn327  Zn    0.86005   0.47327   0.28734   0.00000  Uiso   1.00
Zn328  Zn    0.80046   0.45791   0.21876   0.00000  Uiso   1.00
Zn329  Zn    0.87723   0.53109   0.20657   0.00000  Uiso   1.00
Zn330  Zn    0.79560   0.53773   0.28734   0.00000  Uiso   1.00
Br331  Br    0.22837   0.68106   0.18988   0.00000  Uiso   1.00
Br332  Br    0.03308   0.87286   0.18633   0.00000  Uiso   1.00
C333   C     0.05275   0.82626   0.26025   0.00000  Uiso   1.00
C334   C     0.16578   0.81787   0.05906   0.00000  Uiso   1.00
C335   C     0.23748   0.80464   0.05652   0.00000  Uiso   1.00
C336   C     0.28096   0.84053   0.23972   0.00000  Uiso   1.00
C337   C     0.13595   0.85387   0.42067   0.00000  Uiso   1.00
C338   C     0.32710   0.84309   0.23468   0.00000  Uiso   1.00
C339   C     0.00759   0.82455   0.26369   0.00000  Uiso   1.00
C340   C     0.18123   0.98934   0.23567   0.00000  Uiso   1.00
C341   C     0.15259   0.67844   0.26352   0.00000  Uiso   1.00
C342   C     0.15601   0.72262   0.26042   0.00000  Uiso   1.00
C343   C     0.17680   0.94469   0.23996   0.00000  Uiso   1.00
C344   C     0.07870   0.85258   0.48966   0.00000  Uiso   1.00
C345   C     0.18572   0.81511   0.12927   0.00000  Uiso   1.00
C346   C     0.14839   0.85119   0.37101   0.00000  Uiso   1.00
C347   C     0.25073   0.80901   0.01061   0.00000  Uiso   1.00
C348   C     0.19550   0.80960   0.08068   0.00000  Uiso   1.00
C349   C     0.09285   0.85831   0.44370   0.00000  Uiso   1.00
C350   C     0.10603   0.84125   0.01250   0.00000  Uiso   1.00
C351   C     0.14958   0.83731   0.49072   0.00000  Uiso   1.00
C352   C     0.16495   0.84594   0.44478   0.00000  Uiso   1.00
C353   C     0.17841   0.82517   0.01304   0.00000  Uiso   1.00
C354   C     0.22206   0.82192   0.48899   0.00000  Uiso   1.00
C355   C     0.23696   0.83464   0.44519   0.00000  Uiso   1.00
C356   C     0.20918   0.84708   0.42389   0.00000  Uiso   1.00
H357   H     0.26043   0.79815   0.07371   0.00000  Uiso   1.00
H358   H     0.03578   0.86807   0.44150   0.00000  Uiso   1.00
H359   H     0.31871   0.80829   0.29126   0.00000  Uiso   1.00
H360   H     0.12601   0.99762   0.28921   0.00000  Uiso   1.00
H361   H     0.27060   0.83659   0.42722   0.00000  Uiso   1.00
H362   H     0.13417   0.82178   0.08004   0.00000  Uiso   1.00
H363   H     0.09167   0.83579   0.04726   0.00000  Uiso   1.00
H364   H     0.04563   0.85539   0.00775   0.00000  Uiso   1.00
H365   H     0.22321   0.85838   0.39089   0.00000  Uiso   1.00
H366   H     0.29312   0.79103   0.45779   0.00000  Uiso   1.00
O367   O     0.16667   0.83333   0.25000   0.00000  Uiso   1.00
O368   O     0.15451   0.79304   0.15459   0.00000  Uiso   1.00
O369   O     0.12940   0.87058   0.34968   0.00000  Uiso   1.00
O370   O     0.20824   0.84425   0.14606   0.00000  Uiso   1.00
O371   O     0.17451   0.82546   0.34968   0.00000  Uiso   1.00
O372   O     0.29236   0.80231   0.48881   0.00000  Uiso   1.00
O373   O     0.06455   0.86634   0.42044   0.00000  Uiso   1.00
O374   O     0.17930   0.74686   0.28214   0.00000  Uiso   1.00
O375   O     0.14632   0.92751   0.27014   0.00000  Uiso   1.00
O376   O     0.07412   0.79958   0.23413   0.00000  Uiso   1.00
O377   O     0.26693   0.85939   0.21361   0.00000  Uiso   1.00
O378   O     0.07071   0.85544   0.28213   0.00000  Uiso   1.00
O379   O     0.25491   0.81892   0.27014   0.00000  Uiso   1.00
O380   O     0.13760   0.73610   0.23413   0.00000  Uiso   1.00
O381   O     0.20345   0.92286   0.21361   0.00000  Uiso   1.00
Zn382  Zn    0.19338   0.80661   0.28734   0.00000  Uiso   1.00
Zn383  Zn    0.13379   0.79124   0.21876   0.00000  Uiso   1.00
Zn384  Zn    0.21056   0.86442   0.20657   0.00000  Uiso   1.00
Zn385  Zn    0.12893   0.87106   0.28734   0.00000  Uiso   1.00
Br386  Br    0.56170   0.68106   0.18988   0.00000  Uiso   1.00
Br387  Br    0.36642   0.87286   0.18633   0.00000  Uiso   1.00
C388   C     0.38609   0.82626   0.26025   0.00000  Uiso   1.00
C389   C     0.49911   0.81787   0.05906   0.00000  Uiso   1.00
C390   C     0.57081   0.80464   0.05652   0.00000  Uiso   1.00
C391   C     0.61429   0.84053   0.23972   0.00000  Uiso   1.00
C392   C     0.46928   0.85387   0.42067   0.00000  Uiso   1.00
C393   C     0.66043   0.84309   0.23468   0.00000  Uiso   1.00
C394   C     0.34092   0.82455   0.26369   0.00000  Uiso   1.00
C395   C     0.51456   0.98934   0.23567   0.00000  Uiso   1.00
C396   C     0.48592   0.67844   0.26352   0.00000  Uiso   1.00
C397   C     0.48934   0.72262   0.26042   0.00000  Uiso   1.00
C398   C     0.51014   0.94469   0.23996   0.00000  Uiso   1.00
C399   C     0.41203   0.85258   0.48966   0.00000  Uiso   1.00
C400   C     0.51905   0.81511   0.12927   0.00000  Uiso   1.00
C401   C     0.48172   0.85119   0.37101   0.00000  Uiso   1.00
C402   C     0.58407   0.80901   0.01061   0.00000  Uiso   1.00
C403   C     0.52884   0.80960   0.08068   0.00000  Uiso   1.00
C404   C     0.42618   0.85831   0.44370   0.00000  Uiso   1.00
C405   C     0.43936   0.84125   0.01250   0.00000  Uiso   1.00
C406   C     0.48291   0.83731   0.49072   0.00000  Uiso   1.00
C407   C     0.49828   0.84594   0.44478   0.00000  Uiso   1.00
C408   C     0.51175   0.82517   0.01304   0.00000  Uiso   1.00
C409   C     0.55540   0.82192   0.48899   0.00000  Uiso   1.00
C410   C     0.57030   0.83464   0.44519   0.00000  Uiso   1.00
C411   C     0.54252   0.84708   0.42389   0.00000  Uiso   1.00
H412   H     0.59376   0.79815   0.07371   0.00000  Uiso   1.00
H413   H     0.36911   0.86807   0.44150   0.00000  Uiso   1.00
H414   H     0.65204   0.80829   0.29126   0.00000  Uiso   1.00
H415   H     0.45935   0.99762   0.28921   0.00000  Uiso   1.00
H416   H     0.60393   0.83659   0.42722   0.00000  Uiso   1.00
H417   H     0.46750   0.82178   0.08004   0.00000  Uiso   1.00
H418   H     0.42500   0.83579   0.04726   0.00000  Uiso   1.00
H419   H     0.37896   0.85539   0.00775   0.00000  Uiso   1.00
H420   H     0.55654   0.85838   0.39089   0.00000  Uiso   1.00
H421   H     0.62645   0.79103   0.45779   0.00000  Uiso   1.00
O422   O     0.50000   0.83333   0.25000   0.00000  Uiso   1.00
O423   O     0.48784   0.79304   0.15459   0.00000  Uiso   1.00
O424   O     0.46274   0.87058   0.34968   0.00000  Uiso   1.00
O425   O     0.54157   0.84425   0.14606   0.00000  Uiso   1.00
O426   O     0.50785   0.82546   0.34968   0.00000  Uiso   1.00
O427   O     0.62569   0.80231   0.48881   0.00000  Uiso   1.00
O428   O     0.39789   0.86634   0.42044   0.00000  Uiso   1.00
O429   O     0.51264   0.74686   0.28214   0.00000  Uiso   1.00
O430   O     0.47965   0.92751   0.27014   0.00000  Uiso   1.00
O431   O     0.40745   0.79958   0.23413   0.00000  Uiso   1.00
O432   O     0.60026   0.85939   0.21361   0.00000  Uiso   1.00
O433   O     0.40405   0.85544   0.28213   0.00000  Uiso   1.00
O434   O     0.58824   0.81892   0.27014   0.00000  Uiso   1.00
O435   O     0.47093   0.73610   0.23413   0.00000  Uiso   1.00
O436   O     0.53678   0.92286   0.21361   0.00000  Uiso   1.00
Zn437  Zn    0.52672   0.80661   0.28734   0.00000  Uiso   1.00
Zn438  Zn    0.46713   0.79124   0.21876   0.00000  Uiso   1.00
Zn439  Zn    0.54389   0.86442   0.20657   0.00000  Uiso   1.00
Zn440  Zn    0.46226   0.87106   0.28734   0.00000  Uiso   1.00
Br441  Br    0.89503   0.68106   0.18988   0.00000  Uiso   1.00
Br442  Br    0.69975   0.87286   0.18633   0.00000  Uiso   1.00
C443   C     0.71942   0.82626   0.26025   0.00000  Uiso   1.00
C444   C     0.83245   0.81787   0.05906   0.00000  Uiso   1.00
C445   C     0.90415   0.80464   0.05652   0.00000  Uiso   1.00
C446   C     0.94763   0.84053   0.23972   0.00000  Uiso   1.00
C447   C     0.80261   0.85387   0.42067   0.00000  Uiso   1.00
C448   C     0.99376   0.84309   0.23468   0.00000  Uiso   1.00
C449   C     0.67425   0.82455   0.26369   0.00000  Uiso   1.00
C450   C     0.84789   0.98934   0.23567   0.00000  Uiso   1.00
C451   C     0.81926   0.67844   0.26352   0.00000  Uiso   1.00
C452   C     0.82268   0.72262   0.26042   0.00000  Uiso   1.00
C453   C     0.84347   0.94469   0.23996   0.00000  Uiso   1.00
C454   C     0.74536   0.85258   0.48966   0.00000  Uiso   1.00
C455   C     0.85239   0.81511   0.12927   0.00000  Uiso   1.00
C456   C     0.81505   0.85119   0.37101   0.00000  Uiso   1.00
C457   C     0.91740   0.80901   0.01061   0.00000  Uiso   1.00
C458   C     0.86217   0.80960   0.08068   0.00000  Uiso   1.00
C459   C     0.75951   0.85831   0.44370   0.00000  Uiso   1.00
C460   C     0.77269   0.84125   0.01250   0.00000  Uiso   1.00
C461   C     0.81625   0.83731   0.49072   0.00000  Uiso   1.00
C462   C     0.83162   0.84594   0.44478   0.00000  Uiso   1.00
C463   C     0.84508   0.82517   0.01304   0.00000  Uiso   1.00
C464   C     0.88873   0.82192   0.48899   0.00000  Uiso   1.00
C465   C     0.90363   0.83464   0.44519   0.00000  Uiso   1.00
C466   C     0.87585   0.84708   0.42389   0.00000  Uiso   1.00
H467   H     0.92710   0.79815   0.07371   0.00000  Uiso   1.00
H468   H     0.70244   0.86807   0.44150   0.00000  Uiso   1.00
H469   H     0.98538   0.80829   0.29126   0.00000  Uiso   1.00
H470   H     0.79268   0.99762   0.28921   0.00000  Uiso   1.00
H471   H     0.93726   0.83659   0.42722   0.00000  Uiso   1.00
H472   H     0.80083   0.82178   0.08004   0.00000  Uiso   1.00
H473   H     0.75834   0.83579   0.04726   0.00000  Uiso   1.00
H474   H     0.71230   0.85539   0.00775   0.00000  Uiso   1.00
H475   H     0.88987   0.85838   0.39089   0.00000  Uiso   1.00
H476   H     0.95979   0.79103   0.45779   0.00000  Uiso   1.00
O477   O     0.83333   0.83333   0.25000   0.00000  Uiso   1.00
O478   O     0.82118   0.79304   0.15459   0.00000  Uiso   1.00
O479   O     0.79607   0.87058   0.34968   0.00000  Uiso   1.00
O480   O     0.87491   0.84425   0.14606   0.00000  Uiso   1.00
O481   O     0.84118   0.82546   0.34968   0.00000  Uiso   1.00
O482   O     0.95903   0.80231   0.48881   0.00000  Uiso   1.00
O483   O     0.73122   0.86634   0.42044   0.00000  Uiso   1.00
O484   O     0.84597   0.74686   0.28214   0.00000  Uiso   1.00
O485   O     0.81298   0.92751   0.27014   0.00000  Uiso   1.00
O486   O     0.74078   0.79958   0.23413   0.00000  Uiso   1.00
O487   O     0.93360   0.85939   0.21361   0.00000  Uiso   1.00
O488   O     0.73738   0.85544   0.28213   0.00000  Uiso   1.00
O489   O     0.92158   0.81892   0.27014   0.00000  Uiso   1.00
O490   O     0.80426   0.73610   0.23413   0.00000  Uiso   1.00
O491   O     0.87012   0.92286   0.21361   0.00000  Uiso   1.00
Zn492  Zn    0.86005   0.80661   0.28734   0.00000  Uiso   1.00
Zn493  Zn    0.80046   0.79124   0.21876   0.00000  Uiso   1.00
Zn494  Zn    0.87723   0.86442   0.20657   0.00000  Uiso   1.00
Zn495  Zn    0.79560   0.87106   0.28734   0.00000  Uiso   1.00
Br496  Br    0.22837   0.01440   0.68988   0.00000  Uiso   1.00
Br497  Br    0.03308   0.20619   0.68633   0.00000  Uiso   1.00
C498   C     0.05275   0.15959   0.76025   0.00000  Uiso   1.00
C499   C     0.16578   0.15121   0.55906   0.00000  Uiso   1.00
C500   C     0.23748   0.13797   0.55652   0.00000  Uiso   1.00
C501   C     0.28096   0.17386   0.73972   0.00000  Uiso   1.00
C502   C     0.13595   0.18720   0.92067   0.00000  Uiso   1.00
C503   C     0.32710   0.17642   0.73468   0.00000  Uiso   1.00
C504   C     0.00759   0.15789   0.76369   0.00000  Uiso   1.00
C505   C     0.18123   0.32267   0.73567   0.00000  Uiso   1.00
C506   C     0.15259   0.01177   0.76352   0.00000  Uiso   1.00
C507   C     0.15601   0.05595   0.76042   0.00000  Uiso   1.00
C508   C     0.17680   0.27802   0.73996   0.00000  Uiso   1.00
C509   C     0.07870   0.18592   0.98966   0.00000  Uiso   1.00
C510   C     0.18572   0.14845   0.62927   0.00000  Uiso   1.00
C511   C     0.14839   0.18452   0.87101   0.00000  Uiso   1.00
C512   C     0.25073   0.14234   0.51061   0.00000  Uiso   1.00
C513   C     0.19550   0.14293   0.58068   0.00000  Uiso   1.00
C514   C     0.09285   0.19164   0.94370   0.00000  Uiso   1.00
C515   C     0.10603   0.17459   0.51250   0.00000  Uiso   1.00
C516   C     0.14958   0.17064   0.99072   0.00000  Uiso   1.00
C517   C     0.16495   0.17927   0.94478   0.00000  Uiso   1.00
C518   C     0.17841   0.15851   0.51304   0.00000  Uiso   1.00
C519   C     0.22206   0.15526   0.98899   0.00000  Uiso   1.00
C520   C     0.23696   0.16797   0.94519   0.00000  Uiso   1.00
C521   C     0.20918   0.18041   0.92389   0.00000  Uiso   1.00
H522   H     0.26043   0.13149   0.57371   0.00000  Uiso   1.00
H523   H     0.03578   0.20140   0.94150   0.00000  Uiso   1.00
H524   H     0.31871   0.14162   0.79126   0.00000  Uiso   1.00
H525   H     0.12601   0.33096   0.78921   0.00000  Uiso   1.00
H526   H     0.27060   0.16992   0.92722   0.00000  Uiso   1.00
H527   H     0.13417   0.15512   0.58004   0.00000  Uiso   1.00
H528   H     0.09167   0.16912   0.54726   0.00000  Uiso   1.00
H529   H     0.04563   0.18872   0.50775   0.00000  Uiso   1.00
H530   H     0.22321   0.19171   0.89089   0.00000  Uiso   1.00
H531   H     0.29312   0.12436   0.95779   0.00000  Uiso   1.00
O532   O     0.16667   0.16667   0.75000   0.00000  Uiso   1.00
O533   O     0.15451   0.12637   0.65459   0.00000  Uiso   1.00
O534   O     0.12940   0.20391   0.84968   0.00000  Uiso   1.00
O535   O     0.20824   0.17759   0.64606   0.00000  Uiso   1.00
O536   O     0.17451   0.15880   0.84968   0.00000  Uiso   1.00
O537   O     0.29236   0.13564   0.98881   0.00000  Uiso   1.00
O538   O     0.06455   0.19967   0.92044   0.00000  Uiso   1.00
O539   O     0.17930   0.08019   0.78214   0.00000  Uiso   1.00
O540   O     0.14632   0.26085   0.77014   0.00000  Uiso   1.00
O541   O     0.07412   0.13291   0.73413   0.00000  Uiso   1.00
O542   O     0.26693   0.19272   0.71361   0.00000  Uiso   1.00
O543   O     0.07071   0.18878   0.78213   0.00000  Uiso   1.00
O544   O     0.25491   0.15226   0.77014   0.00000  Uiso   1.00
O545   O     0.13760   0.06944   0.73413   0.00000  Uiso   1.00
O546   O     0.20345   0.25620   0.71361   0.00000  Uiso   1.00
Zn547  Zn    0.19338   0.13994   0.78734   0.00000  Uiso   1.00
Zn548  Zn    0.13379   0.12458   0.71876   0.00000  Uiso   1.00
Zn549  Zn    0.21056   0.19775   0.70657   0.00000  Uiso   1.00
Zn550  Zn    0.12893   0.20439   0.78734   0.00000  Uiso   1.00
Br551  Br    0.56170   0.01440   0.68988   0.00000  Uiso   1.00
Br552  Br    0.36642   0.20619   0.68633   0.00000  Uiso   1.00
C553   C     0.38609   0.15959   0.76025   0.00000  Uiso   1.00
C554   C     0.49911   0.15121   0.55906   0.00000  Uiso   1.00
C555   C     0.57081   0.13797   0.55652   0.00000  Uiso   1.00
C556   C     0.61429   0.17386   0.73972   0.00000  Uiso   1.00
C557   C     0.46928   0.18720   0.92067   0.00000  Uiso   1.00
C558   C     0.66043   0.17642   0.73468   0.00000  Uiso   1.00
C559   C     0.34092   0.15789   0.76369   0.00000  Uiso   1.00
C560   C     0.51456   0.32267   0.73567   0.00000  Uiso   1.00
C561   C     0.48592   0.01177   0.76352   0.00000  Uiso   1.00
C562   C     0.48934   0.05595   0.76042   0.00000  Uiso   1.00
C563   C     0.51014   0.27802   0.73996   0.00000  Uiso   1.00
C564   C     0.41203   0.18592   0.98966   0.00000  Uiso   1.00
C565   C     0.51905   0.14845   0.62927   0.00000  Uiso   1.00
C566   C     0.48172   0.18452   0.87101   0.00000  Uiso   1.00
C567   C     0.58407   0.14234   0.51061   0.00000  Uiso   1.00
C568   C     0.52884   0.14293   0.58068   0.00000  Uiso   1.00
C569   C     0.42618   0.19164   0.94370   0.00000  Uiso   1.00
C570   C     0.43936   0.17459   0.51250   0.00000  Uiso   1.00
C571   C     0.48291   0.17064   0.99072   0.00000  Uiso   1.00
C572   C     0.49828   0.17927   0.94478   0.00000  Uiso   1.00
C573   C     0.51175   0.15851   0.51304   0.00000  Uiso   1.00
C574   C     0.55540   0.15526   0.98899   0.00000  Uiso   1.00
C575   C     0.57030   0.16797   0.94519   0.00000  Uiso   1.00
C576   C     0.54252   0.18041   0.92389   0.00000  Uiso   1.00
H577   H     0.59376   0.13149   0.57371   0.00000  Uiso   1.00
H578   H     0.36911   0.20140   0.94150   0.00000  Uiso   1.00
H579   H     0.65204   0.14162   0.79126   0.00000  Uiso   1.00
H580   H     0.45935   0.33096   0.78921   0.00000  Uiso   1.00
H581   H     0.60393   0.16992   0.92722   0.00000  Uiso   1.00
H582   H     0.46750   0.15512   0.58004   0.00000  Uiso   1.00
H583   H     0.42500   0.16912   0.54726   0.00000  Uiso   1.00
H584   H     0.37896   0.18872   0.50775   0.00000  Uiso   1.00
H585   H     0.55654   0.19171   0.89089   0.00000  Uiso   1.00
H586   H     0.62645   0.12436   0.95779   0.00000  Uiso   1.00
O587   O     0.50000   0.16667   0.75000   0.00000  Uiso   1.00
O588   O     0.48784   0.12637   0.65459   0.00000  Uiso   1.00
O589   O     0.46274   0.20391   0.84968   0.00000  Uiso   1.00
O590   O     0.54157   0.17759   0.64606   0.00000  Uiso   1.00
O591   O     0.50785   0.15880   0.84968   0.00000  Uiso   1.00
O592   O     0.62569   0.13564   0.98881   0.00000  Uiso   1.00
O593   O     0.39789   0.19967   0.92044   0.00000  Uiso   1.00
O594   O     0.51264   0.08019   0.78214   0.00000  Uiso   1.00
O595   O     0.47965   0.26085   0.77014   0.00000  Uiso   1.00
O596   O     0.40745   0.13291   0.73413   0.00000  Uiso   1.00
O597   O     0.60026   0.19272   0.71361   0.00000  Uiso   1.00
O598   O     0.40405   0.18878   0.78213   0.00000  Uiso   1.00
O599   O     0.58824   0.15226   0.77014   0.00000  Uiso   1.00
O600   O     0.47093   0.06944   0.73413   0.00000  Uiso   1.00
O601   O     0.53678   0.25620   0.71361   0.00000  Uiso   1.00
Zn602  Zn    0.52672   0.13994   0.78734   0.00000  Uiso   1.00
Zn603  Zn    0.46713   0.12458   0.71876   0.00000  Uiso   1.00
Zn604  Zn    0.54389   0.19775   0.70657   0.00000  Uiso   1.00
Zn605  Zn    0.46226   0.20439   0.78734   0.00000  Uiso   1.00
Br606  Br    0.89503   0.01440   0.68988   0.00000  Uiso   1.00
Br607  Br    0.69975   0.20619   0.68633   0.00000  Uiso   1.00
C608   C     0.71942   0.15959   0.76025   0.00000  Uiso   1.00
C609   C     0.83245   0.15121   0.55906   0.00000  Uiso   1.00
C610   C     0.90415   0.13797   0.55652   0.00000  Uiso   1.00
C611   C     0.94763   0.17386   0.73972   0.00000  Uiso   1.00
C612   C     0.80261   0.18720   0.92067   0.00000  Uiso   1.00
C613   C     0.99376   0.17642   0.73468   0.00000  Uiso   1.00
C614   C     0.67425   0.15789   0.76369   0.00000  Uiso   1.00
C615   C     0.84789   0.32267   0.73567   0.00000  Uiso   1.00
C616   C     0.81926   0.01177   0.76352   0.00000  Uiso   1.00
C617   C     0.82268   0.05595   0.76042   0.00000  Uiso   1.00
C618   C     0.84347   0.27802   0.73996   0.00000  Uiso   1.00
C619   C     0.74536   0.18592   0.98966   0.00000  Uiso   1.00
C620   C     0.85239   0.14845   0.62927   0.00000  Uiso   1.00
C621   C     0.81505   0.18452   0.87101   0.00000  Uiso   1.00
C622   C     0.91740   0.14234   0.51061   0.00000  Uiso   1.00
C623   C     0.86217   0.14293   0.58068   0.00000  Uiso   1.00
C624   C     0.75951   0.19164   0.94370   0.00000  Uiso   1.00
C625   C     0.77269   0.17459   0.51250   0.00000  Uiso   1.00
C626   C     0.81625   0.17064   0.99072   0.00000  Uiso   1.00
C627   C     0.83162   0.17927   0.94478   0.00000  Uiso   1.00
C628   C     0.84508   0.15851   0.51304   0.00000  Uiso   1.00
C629   C     0.88873   0.15526   0.98899   0.00000  Uiso   1.00
C630   C     0.90363   0.16797   0.94519   0.00000  Uiso   1.00
C631   C     0.87585   0.18041   0.92389   0.00000  Uiso   1.00
H632   H     0.92710   0.13149   0.57371   0.00000  Uiso   1.00
H633   H     0.70244   0.20140   0.94150   0.00000  Uiso   1.00
H634   H     0.98538   0.14162   0.79126   0.00000  Uiso   1.00
H635   H     0.79268   0.33096   0.78921   0.00000  Uiso   1.00
H636   H     0.93726   0.16992   0.92722   0.00000  Uiso   1.00
H637   H     0.80083   0.15512   0.58004   0.00000  Uiso   1.00
H638   H     0.75834   0.16912   0.54726   0.00000  Uiso   1.00
H639   H     0.71230   0.18872   0.50775   0.00000  Uiso   1.00
H640   H     0.88987   0.19171   0.89089   0.00000  Uiso   1.00
H641   H     0.95979   0.12436   0.95779   0.00000  Uiso   1.00
O642   O     0.83333   0.16667   0.75000   0.00000  Uiso   1.00
O643   O     0.82118   0.12637   0.65459   0.00000  Uiso   1.00
O644   O     0.79607   0.20391   0.84968   0.00000  Uiso   1.00
O645   O     0.87491   0.17759   0.64606   0.00000  Uiso   1.00
O646   O     0.84118   0.15880   0.84968   0.00000  Uiso   1.00
O647   O     0.95903   0.13564   0.98881   0.00000  Uiso   1.00
O648   O     0.73122   0.19967   0.92044   0.00000  Uiso   1.00
O649   O     0.84597   0.08019   0.78214   0.00000  Uiso   1.00
O650   O     0.81298   0.26085   0.77014   0.00000  Uiso   1.00
O651   O     0.74078   0.13291   0.73413   0.00000  Uiso   1.00
O652   O     0.93360   0.19272   0.71361   0.00000  Uiso   1.00
O653   O     0.73738   0.18878   0.78213   0.00000  Uiso   1.00
O654   O     0.92158   0.15226   0.77014   0.00000  Uiso   1.00
O655   O     0.80426   0.06944   0.73413   0.00000  Uiso   1.00
O656   O     0.87012   0.25620   0.71361   0.00000  Uiso   1.00
Zn657  Zn    0.86005   0.13994   0.78734   0.00000  Uiso   1.00
Zn658  Zn    0.80046   0.12458   0.71876   0.00000  Uiso   1.00
Zn659  Zn    0.87723   0.19775   0.70657   0.00000  Uiso   1.00
Zn660  Zn    0.79560   0.20439   0.78734   0.00000  Uiso   1.00
Br661  Br    0.22837   0.34773   0.68988   0.00000  Uiso   1.00
Br662  Br    0.03308   0.53952   0.68633   0.00000  Uiso   1.00
C663   C     0.05275   0.49292   0.76025   0.00000  Uiso   1.00
C664   C     0.16578   0.48454   0.55906   0.00000  Uiso   1.00
C665   C     0.23748   0.47131   0.55652   0.00000  Uiso   1.00
C666   C     0.28096   0.50719   0.73972   0.00000  Uiso   1.00
C667   C     0.13595   0.52054   0.92067   0.00000  Uiso   1.00
C668   C     0.32710   0.50976   0.73468   0.00000  Uiso   1.00
C669   C     0.00759   0.49122   0.76369   0.00000  Uiso   1.00
C670   C     0.18123   0.65601   0.73567   0.00000  Uiso   1.00
C671   C     0.15259   0.34511   0.76352   0.00000  Uiso   1.00
C672   C     0.15601   0.38928   0.76042   0.00000  Uiso   1.00
C673   C     0.17680   0.61135   0.73996   0.00000  Uiso   1.00
C674   C     0.07870   0.51925   0.98966   0.00000  Uiso   1.00
C675   C     0.18572   0.48178   0.62927   0.00000  Uiso   1.00
C676   C     0.14839   0.51785   0.87101   0.00000  Uiso   1.00
C677   C     0.25073   0.47568   0.51061   0.00000  Uiso   1.00
C678   C     0.19550   0.47626   0.58068   0.00000  Uiso   1.00
C679   C     0.09285   0.52498   0.94370   0.00000  Uiso   1.00
C680   C     0.10603   0.50792   0.51250   0.00000  Uiso   1.00
C681   C     0.14958   0.50397   0.99072   0.00000  Uiso   1.00
C682   C     0.16495   0.51261   0.94478   0.00000  Uiso   1.00
C683   C     0.17841   0.49184   0.51304   0.00000  Uiso   1.00
C684   C     0.22206   0.48859   0.98899   0.00000  Uiso   1.00
C685   C     0.23696   0.50130   0.94519   0.00000  Uiso   1.00
C686   C     0.20918   0.51374   0.92389   0.00000  Uiso   1.00
H687   H     0.26043   0.46482   0.57371   0.00000  Uiso   1.00
H688   H     0.03578   0.53473   0.94150   0.00000  Uiso   1.00
H689   H     0.31871   0.47496   0.79126   0.00000  Uiso   1.00
H690   H     0.12601   0.66429   0.78921   0.00000  Uiso   1.00
H691   H     0.27060   0.50325   0.92722   0.00000  Uiso   1.00
H692   H     0.13417   0.48845   0.58004   0.00000  Uiso   1.00
H693   H     0.09167   0.50245   0.54726   0.00000  Uiso   1.00
H694   H     0.04563   0.52206   0.50775   0.00000  Uiso   1.00
H695   H     0.22321   0.52504   0.89089   0.00000  Uiso   1.00
H696   H     0.29312   0.45769   0.95779   0.00000  Uiso   1.00
O697   O     0.16667   0.50000   0.75000   0.00000  Uiso   1.00
O698   O     0.15451   0.45970   0.65459   0.00000  Uiso   1.00
O699   O     0.12940   0.53724   0.84968   0.00000  Uiso   1.00
O700   O     0.20824   0.51092   0.64606   0.00000  Uiso   1.00
O701   O     0.17451   0.49213   0.84968   0.00000  Uiso   1.00
O702   O     0.29236   0.46898   0.98881   0.00000  Uiso   1.00
O703   O     0.06455   0.53301   0.92044   0.00000  Uiso   1.00
O704   O     0.17930   0.41352   0.78214   0.00000  Uiso   1.00
O705   O     0.14632   0.59418   0.77014   0.00000  Uiso   1.00
O706   O     0.07412   0.46625   0.73413   0.00000  Uiso   1.00
O707   O     0.26693   0.52605   0.71361   0.00000  Uiso   1.00
O708   O     0.07071   0.52211   0.78213   0.00000  Uiso   1.00
O709   O     0.25491   0.48559   0.77014   0.00000  Uiso   1.00
O710   O     0.13760   0.40277   0.73413   0.00000  Uiso   1.00
O711   O     0.20345   0.58953   0.71361   0.00000  Uiso   1.00
Zn712  Zn    0.19338   0.47327   0.78734   0.00000  Uiso   1.00
Zn713  Zn    0.13379   0.45791   0.71876   0.00000  Uiso   1.00
Zn714  Zn    0.21056   0.53109   0.70657   0.00000  Uiso   1.00
Zn715  Zn    0.12893   0.53773   0.78734   0.00000  Uiso   1.00
Br716  Br    0.56170   0.34773   0.68988   0.00000  Uiso   1.00
Br717  Br    0.36642   0.53952   0.68633   0.00000  Uiso   1.00
C718   C     0.38609   0.49292   0.76025   0.00000  Uiso   1.00
C719   C     0.49911   0.48454   0.55906   0.00000  Uiso   1.00
C720   C     0.57081   0.47131   0.55652   0.00000  Uiso   1.00
C721   C     0.61429   0.50719   0.73972   0.00000  Uiso   1.00
C722   C     0.46928   0.52054   0.92067   0.00000  Uiso   1.00
C723   C     0.66043   0.50976   0.73468   0.00000  Uiso   1.00
C724   C     0.34092   0.49122   0.76369   0.00000  Uiso   1.00
C725   C     0.51456   0.65601   0.73567   0.00000  Uiso   1.00
C726   C     0.48592   0.34511   0.76352   0.00000  Uiso   1.00
C727   C     0.48934   0.38928   0.76042   0.00000  Uiso   1.00
C728   C     0.51014   0.61135   0.73996   0.00000  Uiso   1.00
C729   C     0.41203   0.51925   0.98966   0.00000  Uiso   1.00
C730   C     0.51905   0.48178   0.62927   0.00000  Uiso   1.00
C731   C     0.48172   0.51785   0.87101   0.00000  Uiso   1.00
C732   C     0.58407   0.47568   0.51061   0.00000  Uiso   1.00
C733   C     0.52884   0.47626   0.58068   0.00000  Uiso   1.00
C734   C     0.42618   0.52498   0.94370   0.00000  Uiso   1.00
C735   C     0.43936   0.50792   0.51250   0.00000  Uiso   1.00
C736   C     0.48291   0.50397   0.99072   0.00000  Uiso   1.00
C737   C     0.49828   0.51261   0.94478   0.00000  Uiso   1.00
C738   C     0.51175   0.49184   0.51304   0.00000  Uiso   1.00
C739   C     0.55540   0.48859   0.98899   0.00000  Uiso   1.00
C740   C     0.57030   0.50130   0.94519   0.00000  Uiso   1.00
C741   C     0.54252   0.51374   0.92389   0.00000  Uiso   1.00
H742   H     0.59376   0.46482   0.57371   0.00000  Uiso   1.00
H743   H     0.36911   0.53473   0.94150   0.00000  Uiso   1.00
H744   H     0.65204   0.47496   0.79126   0.00000  Uiso   1.00
H745   H     0.45935   0.66429   0.78921   0.00000  Uiso   1.00
H746   H     0.60393   0.50325   0.92722   0.00000  Uiso   1.00
H747   H     0.46750   0.48845   0.58004   0.00000  Uiso   1.00
H748   H     0.42500   0.50245   0.54726   0.00000  Uiso   1.00
H749   H     0.37896   0.52206   0.50775   0.00000  Uiso   1.00
H750   H     0.55654   0.52504   0.89089   0.00000  Uiso   1.00
H751   H     0.62645   0.45769   0.95779   0.00000  Uiso   1.00
O752   O     0.50000   0.50000   0.75000   0.00000  Uiso   1.00
O753   O     0.48784   0.45970   0.65459   0.00000  Uiso   1.00
O754   O     0.46274   0.53724   0.84968   0.00000  Uiso   1.00
O755   O     0.54157   0.51092   0.64606   0.00000  Uiso   1.00
O756   O     0.50785   0.49213   0.84968   0.00000  Uiso   1.00
O757   O     0.62569   0.46898   0.98881   0.00000  Uiso   1.00
O758   O     0.39789   0.53301   0.92044   0.00000  Uiso   1.00
O759   O     0.51264   0.41352   0.78214   0.00000  Uiso   1.00
O760   O     0.47965   0.59418   0.77014   0.00000  Uiso   1.00
O761   O     0.40745   0.46625   0.73413   0.00000  Uiso   1.00
O762   O     0.60026   0.52605   0.71361   0.00000  Uiso   1.00
O763   O     0.40405   0.52211   0.78213   0.00000  Uiso   1.00
O764   O     0.58824   0.48559   0.77014   0.00000  Uiso   1.00
O765   O     0.47093   0.40277   0.73413   0.00000  Uiso   1.00
O766   O     0.53678   0.58953   0.71361   0.00000  Uiso   1.00
Zn767  Zn    0.52672   0.47327   0.78734   0.00000  Uiso   1.00
Zn768  Zn    0.46713   0.45791   0.71876   0.00000  Uiso   1.00
Zn769  Zn    0.54389   0.53109   0.70657   0.00000  Uiso   1.00
Zn770  Zn    0.46226   0.53773   0.78734   0.00000  Uiso   1.00
Br771  Br    0.89503   0.34773   0.68988   0.00000  Uiso   1.00
Br772  Br    0.69975   0.53952   0.68633   0.00000  Uiso   1.00
C773   C     0.71942   0.49292   0.76025   0.00000  Uiso   1.00
C774   C     0.83245   0.48454   0.55906   0.00000  Uiso   1.00
C775   C     0.90415   0.47131   0.55652   0.00000  Uiso   1.00
C776   C     0.94763   0.50719   0.73972   0.00000  Uiso   1.00
C777   C     0.80261   0.52054   0.92067   0.00000  Uiso   1.00
C778   C     0.99376   0.50976   0.73468   0.00000  Uiso   1.00
C779   C     0.67425   0.49122   0.76369   0.00000  Uiso   1.00
C780   C     0.84789   0.65601   0.73567   0.00000  Uiso   1.00
C781   C     0.81926   0.34511   0.76352   0.00000  Uiso   1.00
C782   C     0.82268   0.38928   0.76042   0.00000  Uiso   1.00
C783   C     0.84347   0.61135   0.73996   0.00000  Uiso   1.00
C784   C     0.74536   0.51925   0.98966   0.00000  Uiso   1.00
C785   C     0.85239   0.48178   0.62927   0.00000  Uiso   1.00
C786   C     0.81505   0.51785   0.87101   0.00000  Uiso   1.00
C787   C     0.91740   0.47568   0.51061   0.00000  Uiso   1.00
C788   C     0.86217   0.47626   0.58068   0.00000  Uiso   1.00
C789   C     0.75951   0.52498   0.94370   0.00000  Uiso   1.00
C790   C     0.77269   0.50792   0.51250   0.00000  Uiso   1.00
C791   C     0.81625   0.50397   0.99072   0.00000  Uiso   1.00
C792   C     0.83162   0.51261   0.94478   0.00000  Uiso   1.00
C793   C     0.84508   0.49184   0.51304   0.00000  Uiso   1.00
C794   C     0.88873   0.48859   0.98899   0.00000  Uiso   1.00
C795   C     0.90363   0.50130   0.94519   0.00000  Uiso   1.00
C796   C     0.87585   0.51374   0.92389   0.00000  Uiso   1.00
H797   H     0.92710   0.46482   0.57371   0.00000  Uiso   1.00
H798   H     0.70244   0.53473   0.94150   0.00000  Uiso   1.00
H799   H     0.98538   0.47496   0.79126   0.00000  Uiso   1.00
H800   H     0.79268   0.66429   0.78921   0.00000  Uiso   1.00
H801   H     0.93726   0.50325   0.92722   0.00000  Uiso   1.00
H802   H     0.80083   0.48845   0.58004   0.00000  Uiso   1.00
H803   H     0.75834   0.50245   0.54726   0.00000  Uiso   1.00
H804   H     0.71230   0.52206   0.50775   0.00000  Uiso   1.00
H805   H     0.88987   0.52504   0.89089   0.00000  Uiso   1.00
H806   H     0.95979   0.45769   0.95779   0.00000  Uiso   1.00
O807   O     0.83333   0.50000   0.75000   0.00000  Uiso   1.00
O808   O     0.82118   0.45970   0.65459   0.00000  Uiso   1.00
O809   O     0.79607   0.53724   0.84968   0.00000  Uiso   1.00
O810   O     0.87491   0.51092   0.64606   0.00000  Uiso   1.00
O811   O     0.84118   0.49213   0.84968   0.00000  Uiso   1.00
O812   O     0.95903   0.46898   0.98881   0.00000  Uiso   1.00
O813   O     0.73122   0.53301   0.92044   0.00000  Uiso   1.00
O814   O     0.84597   0.41352   0.78214   0.00000  Uiso   1.00
O815   O     0.81298   0.59418   0.77014   0.00000  Uiso   1.00
O816   O     0.74078   0.46625   0.73413   0.00000  Uiso   1.00
O817   O     0.93360   0.52605   0.71361   0.00000  Uiso   1.00
O818   O     0.73738   0.52211   0.78213   0.00000  Uiso   1.00
O819   O     0.92158   0.48559   0.77014   0.00000  Uiso   1.00
O820   O     0.80426   0.40277   0.73413   0.00000  Uiso   1.00
O821   O     0.87012   0.58953   0.71361   0.00000  Uiso   1.00
Zn822  Zn    0.86005   0.47327   0.78734   0.00000  Uiso   1.00
Zn823  Zn    0.80046   0.45791   0.71876   0.00000  Uiso   1.00
Zn824  Zn    0.87723   0.53109   0.70657   0.00000  Uiso   1.00
Zn825  Zn    0.79560   0.53773   0.78734   0.00000  Uiso   1.00
Br826  Br    0.22837   0.68106   0.68988   0.00000  Uiso   1.00
Br827  Br    0.03308   0.87286   0.68633   0.00000  Uiso   1.00
C828   C     0.05275   0.82626   0.76025   0.00000  Uiso   1.00
C829   C     0.16578   0.81787   0.55906   0.00000  Uiso   1.00
C830   C     0.23748   0.80464   0.55652   0.00000  Uiso   1.00
C831   C     0.28096   0.84053   0.73972   0.00000  Uiso   1.00
C832   C     0.13595   0.85387   0.92067   0.00000  Uiso   1.00
C833   C     0.32710   0.84309   0.73468   0.00000  Uiso   1.00
C834   C     0.00759   0.82455   0.76369   0.00000  Uiso   1.00
C835   C     0.18123   0.98934   0.73567   0.00000  Uiso   1.00
C836   C     0.15259   0.67844   0.76352   0.00000  Uiso   1.00
C837   C     0.15601   0.72262   0.76042   0.00000  Uiso   1.00
C838   C     0.17680   0.94469   0.73996   0.00000  Uiso   1.00
C839   C     0.07870   0.85258   0.98966   0.00000  Uiso   1.00
C840   C     0.18572   0.81511   0.62927   0.00000  Uiso   1.00
C841   C     0.14839   0.85119   0.87101   0.00000  Uiso   1.00
C842   C     0.25073   0.80901   0.51061   0.00000  Uiso   1.00
C843   C     0.19550   0.80960   0.58068   0.00000  Uiso   1.00
C844   C     0.09285   0.85831   0.94370   0.00000  Uiso   1.00
C845   C     0.10603   0.84125   0.51250   0.00000  Uiso   1.00
C846   C     0.14958   0.83731   0.99072   0.00000  Uiso   1.00
C847   C     0.16495   0.84594   0.94478   0.00000  Uiso   1.00
C848   C     0.17841   0.82517   0.51304   0.00000  Uiso   1.00
C849   C     0.22206   0.82192   0.98899   0.00000  Uiso   1.00
C850   C     0.23696   0.83464   0.94519   0.00000  Uiso   1.00
C851   C     0.20918   0.84708   0.92389   0.00000  Uiso   1.00
H852   H     0.26043   0.79815   0.57371   0.00000  Uiso   1.00
H853   H     0.03578   0.86807   0.94150   0.00000  Uiso   1.00
H854   H     0.31871   0.80829   0.79126   0.00000  Uiso   1.00
H855   H     0.12601   0.99762   0.78921   0.00000  Uiso   1.00
H856   H     0.27060   0.83659   0.92722   0.00000  Uiso   1.00
H857   H     0.13417   0.82178   0.58004   0.00000  Uiso   1.00
H858   H     0.09167   0.83579   0.54726   0.00000  Uiso   1.00
H859   H     0.04563   0.85539   0.50775   0.00000  Uiso   1.00
H860   H     0.22321   0.85838   0.89089   0.00000  Uiso   1.00
H861   H     0.29312   0.79103   0.95779   0.00000  Uiso   1.00
O862   O     0.16667   0.83333   0.75000   0.00000  Uiso   1.00
O863   O     0.15451   0.79304   0.65459   0.00000  Uiso   1.00
O864   O     0.12940   0.87058   0.84968   0.00000  Uiso   1.00
O865   O     0.20824   0.84425   0.64606   0.00000  Uiso   1.00
O866   O     0.17451   0.82546   0.84968   0.00000  Uiso   1.00
O867   O     0.29236   0.80231   0.98881   0.00000  Uiso   1.00
O868   O     0.06455   0.86634   0.92044   0.00000  Uiso   1.00
O869   O     0.17930   0.74686   0.78214   0.00000  Uiso   1.00
O870   O     0.14632   0.92751   0.77014   0.00000  Uiso   1.00
O871   O     0.07412   0.79958   0.73413   0.00000  Uiso   1.00
O872   O     0.26693   0.85939   0.71361   0.00000  Uiso   1.00
O873   O     0.07071   0.85544   0.78213   0.00000  Uiso   1.00
O874   O     0.25491   0.81892   0.77014   0.00000  Uiso   1.00
O875   O     0.13760   0.73610   0.73413   0.00000  Uiso   1.00
O876   O     0.20345   0.92286   0.71361   0.00000  Uiso   1.00
Zn877  Zn    0.19338   0.80661   0.78734   0.00000  Uiso   1.00
Zn878  Zn    0.13379   0.79124   0.71876   0.00000  Uiso   1.00
Zn879  Zn    0.21056   0.86442   0.70657   0.00000  Uiso   1.00
Zn880  Zn    0.12893   0.87106   0.78734   0.00000  Uiso   1.00
Br881  Br    0.56170   0.68106   0.68988   0.00000  Uiso   1.00
Br882  Br    0.36642   0.87286   0.68633   0.00000  Uiso   1.00
C883   C     0.38609   0.82626   0.76025   0.00000  Uiso   1.00
C884   C     0.49911   0.81787   0.55906   0.00000  Uiso   1.00
C885   C     0.57081   0.80464   0.55652   0.00000  Uiso   1.00
C886   C     0.61429   0.84053   0.73972   0.00000  Uiso   1.00
C887   C     0.46928   0.85387   0.92067   0.00000  Uiso   1.00
C888   C     0.66043   0.84309   0.73468   0.00000  Uiso   1.00
C889   C     0.34092   0.82455   0.76369   0.00000  Uiso   1.00
C890   C     0.51456   0.98934   0.73567   0.00000  Uiso   1.00
C891   C     0.48592   0.67844   0.76352   0.00000  Uiso   1.00
C892   C     0.48934   0.72262   0.76042   0.00000  Uiso   1.00
C893   C     0.51014   0.94469   0.73996   0.00000  Uiso   1.00
C894   C     0.41203   0.85258   0.98966   0.00000  Uiso   1.00
C895   C     0.51905   0.81511   0.62927   0.00000  Uiso   1.00
C896   C     0.48172   0.85119   0.87101   0.00000  Uiso   1.00
C897   C     0.58407   0.80901   0.51061   0.00000  Uiso   1.00
C898   C     0.52884   0.80960   0.58068   0.00000  Uiso   1.00
C899   C     0.42618   0.85831   0.94370   0.00000  Uiso   1.00
C900   C     0.43936   0.84125   0.51250   0.00000  Uiso   1.00
C901   C     0.48291   0.83731   0.99072   0.00000  Uiso   1.00
C902   C     0.49828   0.84594   0.94478   0.00000  Uiso   1.00
C903   C     0.51175   0.82517   0.51304   0.00000  Uiso   1.00
C904   C     0.55540   0.82192   0.98899   0.00000  Uiso   1.00
C905   C     0.57030   0.83464   0.94519   0.00000  Uiso   1.00
C906   C     0.54252   0.84708   0.92389   0.00000  Uiso   1.00
H907   H     0.59376   0.79815   0.57371   0.00000  Uiso   1.00
H908   H     0.36911   0.86807   0.94150   0.00000  Uiso   1.00
H909   H     0.65204   0.80829   0.79126   0.00000  Uiso   1.00
H910   H     0.45935   0.99762   0.78921   0.00000  Uiso   1.00
H911   H     0.60393   0.83659   0.92722   0.00000  Uiso   1.00
H912   H     0.46750   0.82178   0.58004   0.00000  Uiso   1.00
H913   H     0.42500   0.83579   0.54726   0.00000  Uiso   1.00
H914   H     0.37896   0.85539   0.50775   0.00000  Uiso   1.00
H915   H     0.55654   0.85838   0.89089   0.00000  Uiso   1.00
H916   H     0.62645   0.79103   0.95779   0.00000  Uiso   1.00
O917   O     0.50000   0.83333   0.75000   0.00000  Uiso   1.00
O918   O     0.48784   0.79304   0.65459   0.00000  Uiso   1.00
O919   O     0.46274   0.87058   0.84968   0.00000  Uiso   1.00
O920   O     0.54157   0.84425   0.64606   0.00000  Uiso   1.00
O921   O     0.50785   0.82546   0.84968   0.00000  Uiso   1.00
O922   O     0.62569   0.80231   0.98881   0.00000  Uiso   1.00
O923   O     0.39789   0.86634   0.92044   0.00000  Uiso   1.00
O924   O     0.51264   0.74686   0.78214   0.00000  Uiso   1.00
O925   O     0.47965   0.92751   0.77014   0.00000  Uiso   1.00
O926   O     0.40745   0.79958   0.73413   0.00000  Uiso   1.00
O927   O     0.60026   0.85939   0.71361   0.00000  Uiso   1.00
O928   O     0.40405   0.85544   0.78213   0.00000  Uiso   1.00
O929   O     0.58824   0.81892   0.77014   0.00000  Uiso   1.00
O930   O     0.47093   0.73610   0.73413   0.00000  Uiso   1.00
O931   O     0.53678   0.92286   0.71361   0.00000  Uiso   1.00
Zn932  Zn    0.52672   0.80661   0.78734   0.00000  Uiso   1.00
Zn933  Zn    0.46713   0.79124   0.71876   0.00000  Uiso   1.00
Zn934  Zn    0.54389   0.86442   0.70657   0.00000  Uiso   1.00
Zn935  Zn    0.46226   0.87106   0.78734   0.00000  Uiso   1.00
Br936  Br    0.89503   0.68106   0.68988   0.00000  Uiso   1.00
Br937  Br    0.69975   0.87286   0.68633   0.00000  Uiso   1.00
C938   C     0.71942   0.82626   0.76025   0.00000  Uiso   1.00
C939   C     0.83245   0.81787   0.55906   0.00000  Uiso   1.00
C940   C     0.90415   0.80464   0.55652   0.00000  Uiso   1.00
C941   C     0.94763   0.84053   0.73972   0.00000  Uiso   1.00
C942   C     0.80261   0.85387   0.92067   0.00000  Uiso   1.00
C943   C     0.99376   0.84309   0.73468   0.00000  Uiso   1.00
C944   C     0.67425   0.82455   0.76369   0.00000  Uiso   1.00
C945   C     0.84789   0.98934   0.73567   0.00000  Uiso   1.00
C946   C     0.81926   0.67844   0.76352   0.00000  Uiso   1.00
C947   C     0.82268   0.72262   0.76042   0.00000  Uiso   1.00
C948   C     0.84347   0.94469   0.73996   0.00000  Uiso   1.00
C949   C     0.74536   0.85258   0.98966   0.00000  Uiso   1.00
C950   C     0.85239   0.81511   0.62927   0.00000  Uiso   1.00
C951   C     0.81505   0.85119   0.87101   0.00000  Uiso   1.00
C952   C     0.91740   0.80901   0.51061   0.00000  Uiso   1.00
C953   C     0.86217   0.80960   0.58068   0.00000  Uiso   1.00
C954   C     0.75951   0.85831   0.94370   0.00000  Uiso   1.00
C955   C     0.77269   0.84125   0.51250   0.00000  Uiso   1.00
C956   C     0.81625   0.83731   0.99072   0.00000  Uiso   1.00
C957   C     0.83162   0.84594   0.94478   0.00000  Uiso   1.00
C958   C     0.84508   0.82517   0.51304   0.00000  Uiso   1.00
C959   C     0.88873   0.82192   0.98899   0.00000  Uiso   1.00
C960   C     0.90363   0.83464   0.94519   0.00000  Uiso   1.00
C961   C     0.87585   0.84708   0.92389   0.00000  Uiso   1.00
H962   H     0.92710   0.79815   0.57371   0.00000  Uiso   1.00
H963   H     0.70244   0.86807   0.94150   0.00000  Uiso   1.00
H964   H     0.98538   0.80829   0.79126   0.00000  Uiso   1.00
H965   H     0.79268   0.99762   0.78921   0.00000  Uiso   1.00
H966   H     0.93726   0.83659   0.92722   0.00000  Uiso   1.00
H967   H     0.80083   0.82178   0.58004   0.00000  Uiso   1.00
H968   H     0.75834   0.83579   0.54726   0.00000  Uiso   1.00
H969   H     0.71230   0.85539   0.50775   0.00000  Uiso   1.00
H970   H     0.88987   0.85838   0.89089   0.00000  Uiso   1.00
H971   H     0.95979   0.79103   0.95779   0.00000  Uiso   1.00
O972   O     0.83333   0.83333   0.75000   0.00000  Uiso   1.00
O973   O     0.82118   0.79304   0.65459   0.00000  Uiso   1.00
O974   O     0.79607   0.87058   0.84968   0.00000  Uiso   1.00
O975   O     0.87491   0.84425   0.64606   0.00000  Uiso   1.00
O976   O     0.84118   0.82546   0.84968   0.00000  Uiso   1.00
O977   O     0.95903   0.80231   0.98881   0.00000  Uiso   1.00
O978   O     0.73122   0.86634   0.92044   0.00000  Uiso   1.00
O979   O     0.84597   0.74686   0.78214   0.00000  Uiso   1.00
O980   O     0.81298   0.92751   0.77014   0.00000  Uiso   1.00
O981   O     0.74078   0.79958   0.73413   0.00000  Uiso   1.00
O982   O     0.93360   0.85939   0.71361   0.00000  Uiso   1.00
O983   O     0.73738   0.85544   0.78213   0.00000  Uiso   1.00
O984   O     0.92158   0.81892   0.77014   0.00000  Uiso   1.00
O985   O     0.80426   0.73610   0.73413   0.00000  Uiso   1.00
O986   O     0.87012   0.92286   0.71361   0.00000  Uiso   1.00
Zn987  Zn    0.86005   0.80661   0.78734   0.00000  Uiso   1.00
Zn988  Zn    0.80046   0.79124   0.71876   0.00000  Uiso   1.00
Zn989  Zn    0.87723   0.86442   0.70657   0.00000  Uiso   1.00
Zn990  Zn    0.79560   0.87106   0.78734   0.00000  Uiso   1.00
loop_
_geom_bond_atom_site_label_1
_geom_bond_atom_site_label_2
_geom_bond_distance
_geom_bond_site_symmetry_2
_ccdc_geom_bond_type
Br1    C340    1.930   1_545 S
Br2    C118    1.929   1_455 S
C3     C9      1.439   .     S
C3     O48     1.273   .     A
C3     O46     1.274   .     A
C4     C18     1.389   .     A
C4     H32     1.076   .     S
C4     C23     1.411   .     A
C5     C17     1.389   .     A
C5     C18     1.394   .     A
C5     H27     1.084   .     S
C6     O47     1.278   .     A
C6     O49     1.277   .     A
C6     C8      1.458   .     S
C7     C22     1.420   .     A
C7     C19     1.413   .     A
C7     C16     1.481   .     S
C8     Br57    1.929   .     S
C8     C64     1.339   .     S
C9     C118    1.339   1_455 S
C9     H139    1.086   1_455 S
C10    C13     1.455   .     S
C10    Br166   1.930   .     S
C10    C176    1.336   .     S
C11    C12     1.436   .     S
C11    C340    1.336   1_545 S
C11    H360    1.086   1_545 S
C12    O50     1.280   .     A
C12    O44     1.280   .     A
C13    O51     1.267   .     A
C13    O45     1.271   .     A
C14    C19     1.399   .     A
C14    C515    1.388   .     S
C14    H529    1.084   .     S
C15    C18     1.452   .     S
C15    O38     1.278   .     A
C15    O40     1.266   .     A
C16    O39     1.283   .     A
C16    O41     1.286   .     A
C17    C519    1.420   1_554 S
C17    O537    1.380   1_554 S
C19    O43     1.383   .     S
C20    H33     1.076   .     S
C20    C509    1.388   1_554 S
C20    C516    1.415   1_554 S
C21    C22     1.421   .     A
C21    C515    1.415   .     S
C21    C518    1.428   .     S
C22    C26     1.407   .     A
C23    C516    1.428   1_554 S
C23    C519    1.429   1_554 S
C24    C25     1.399   .     A
C24    C512    1.420   .     S
C24    C518    1.429   .     S
C25    H31     1.082   .     S
C25    C26     1.382   .     A
C26    H35     1.081   .     S
H28    O43     0.992   .     S
H29    C64     1.086   .     S
H30    C176    1.086   .     S
H34    C509    1.084   1_554 S
H36    O42     0.990   .     S
O37    Zn53    1.951   .     S
O37    Zn54    1.921   .     S
O37    Zn52    1.961   .     S
O37    Zn55    1.935   .     S
O38    Zn53    1.927   .     S
O39    Zn55    1.942   .     S
O40    Zn54    1.942   .     S
O41    Zn52    1.929   .     S
O42    C512    1.380   .     S
O44    Zn52    1.929   .     S
O45    Zn55    1.926   .     S
O46    Zn53    1.925   .     S
O47    Zn54    1.939   .     S
O48    Zn55    1.934   .     S
O49    Zn52    1.919   .     S
O50    Zn53    1.934   .     S
O51    Zn54    1.932   .     S
Br56   C395    1.930   1_545 S
C58    C64     1.439   .     S
C58    O103    1.273   .     A
C58    O101    1.274   .     A
C59    C73     1.389   .     A
C59    H87     1.076   .     S
C59    C78     1.411   .     A
C60    C72     1.389   .     A
C60    C73     1.394   .     A
C60    H82     1.084   .     S
C61    O102    1.278   .     A
C61    O104    1.277   .     A
C61    C63     1.458   .     S
C62    C77     1.420   .     A
C62    C74     1.413   .     A
C62    C71     1.481   .     S
C63    Br112   1.929   .     S
C63    C119    1.339   .     S
C65    C68     1.455   .     S
C65    Br221   1.930   .     S
C65    C231    1.336   .     S
C66    C67     1.436   .     S
C66    C395    1.336   1_545 S
C66    H415    1.086   1_545 S
C67    O105    1.280   .     A
C67    O99     1.280   .     A
C68    O106    1.267   .     A
C68    O100    1.271   .     A
C69    C74     1.399   .     A
C69    C570    1.388   .     S
C69    H584    1.084   .     S
C70    C73     1.452   .     S
C70    O93     1.278   .     A
C70    O95     1.266   .     A
C71    O94     1.283   .     A
C71    O96     1.286   .     A
C72    C574    1.420   1_554 S
C72    O592    1.380   1_554 S
C74    O98     1.383   .     S
C75    H88     1.076   .     S
C75    C564    1.388   1_554 S
C75    C571    1.415   1_554 S
C76    C77     1.421   .     A
C76    C570    1.415   .     S
C76    C573    1.428   .     S
C77    C81     1.407   .     A
C78    C571    1.428   1_554 S
C78    C574    1.429   1_554 S
C79    C80     1.399   .     A
C79    C567    1.420   .     S
C79    C573    1.429   .     S
C80    H86     1.082   .     S
C80    C81     1.382   .     A
C81    H90     1.081   .     S
H83    O98     0.992   .     S
H84    C119    1.086   .     S
H85    C231    1.086   .     S
H89    C564    1.084   1_554 S
H91    O97     0.990   .     S
O92    Zn108   1.951   .     S
O92    Zn109   1.921   .     S
O92    Zn107   1.961   .     S
O92    Zn110   1.935   .     S
O93    Zn108   1.927   .     S
O94    Zn110   1.942   .     S
O95    Zn109   1.942   .     S
O96    Zn107   1.929   .     S
O97    C567    1.380   .     S
O99    Zn107   1.929   .     S
O100   Zn110   1.926   .     S
O101   Zn108   1.925   .     S
O102   Zn109   1.939   .     S
O103   Zn110   1.934   .     S
O104   Zn107   1.919   .     S
O105   Zn108   1.934   .     S
O106   Zn109   1.932   .     S
Br111  C450    1.930   1_545 S
C113   C119    1.439   .     S
C113   O158    1.273   .     A
C113   O156    1.274   .     A
C114   C128    1.389   .     A
C114   H142    1.076   .     S
C114   C133    1.411   .     A
C115   C127    1.389   .     A
C115   C128    1.394   .     A
C115   H137    1.084   .     S
C116   O157    1.278   .     A
C116   O159    1.277   .     A
C116   C118    1.458   .     S
C117   C132    1.420   .     A
C117   C129    1.413   .     A
C117   C126    1.481   .     S
C118   Br2     1.929   1_655 S
C118   C9      1.339   1_655 S
C120   C123    1.455   .     S
C120   Br276   1.930   .     S
C120   C286    1.336   .     S
C121   C122    1.436   .     S
C121   C450    1.336   1_545 S
C121   H470    1.086   1_545 S
C122   O160    1.280   .     A
C122   O154    1.280   .     A
C123   O161    1.267   .     A
C123   O155    1.271   .     A
C124   C129    1.399   .     A
C124   C625    1.388   .     S
C124   H639    1.084   .     S
C125   C128    1.452   .     S
C125   O148    1.278   .     A
C125   O150    1.266   .     A
C126   O149    1.283   .     A
C126   O151    1.286   .     A
C127   C629    1.420   1_554 S
C127   O647    1.380   1_554 S
C129   O153    1.383   .     S
C130   H143    1.076   .     S
C130   C619    1.388   1_554 S
C130   C626    1.415   1_554 S
C131   C132    1.421   .     A
C131   C625    1.415   .     S
C131   C628    1.428   .     S
C132   C136    1.407   .     A
C133   C626    1.428   1_554 S
C133   C629    1.429   1_554 S
C134   C135    1.399   .     A
C134   C622    1.420   .     S
C134   C628    1.429   .     S
C135   H141    1.082   .     S
C135   C136    1.382   .     A
C136   H145    1.081   .     S
H138   O153    0.992   .     S
H139   C9      1.086   1_655 S
H140   C286    1.086   .     S
H144   C619    1.084   1_554 S
H146   O152    0.990   .     S
O147   Zn163   1.951   .     S
O147   Zn164   1.921   .     S
O147   Zn162   1.961   .     S
O147   Zn165   1.935   .     S
O148   Zn163   1.927   .     S
O149   Zn165   1.942   .     S
O150   Zn164   1.942   .     S
O151   Zn162   1.929   .     S
O152   C622    1.380   .     S
O154   Zn162   1.929   .     S
O155   Zn165   1.926   .     S
O156   Zn163   1.925   .     S
O157   Zn164   1.939   .     S
O158   Zn165   1.934   .     S
O159   Zn162   1.919   .     S
O160   Zn163   1.934   .     S
O161   Zn164   1.932   .     S
Br167  C283    1.929   1_455 S
C168   C174    1.439   .     S
C168   O213    1.273   .     A
C168   O211    1.274   .     A
C169   C183    1.389   .     A
C169   H197    1.076   .     S
C169   C188    1.411   .     A
C170   C182    1.389   .     A
C170   C183    1.394   .     A
C170   H192    1.084   .     S
C171   O212    1.278   .     A
C171   O214    1.277   .     A
C171   C173    1.458   .     S
C172   C187    1.420   .     A
C172   C184    1.413   .     A
C172   C181    1.481   .     S
C173   Br222   1.929   .     S
C173   C229    1.339   .     S
C174   C283    1.339   1_455 S
C174   H304    1.086   1_455 S
C175   C178    1.455   .     S
C175   Br331   1.930   .     S
C175   C341    1.336   .     S
C176   C177    1.436   .     S
C177   O215    1.280   .     A
C177   O209    1.280   .     A
C178   O216    1.267   .     A
C178   O210    1.271   .     A
C179   C184    1.399   .     A
C179   C680    1.388   .     S
C179   H694    1.084   .     S
C180   C183    1.452   .     S
C180   O203    1.278   .     A
C180   O205    1.266   .     A
C181   O204    1.283   .     A
C181   O206    1.286   .     A
C182   C684    1.420   1_554 S
C182   O702    1.380   1_554 S
C184   O208    1.383   .     S
C185   H198    1.076   .     S
C185   C674    1.388   1_554 S
C185   C681    1.415   1_554 S
C186   C187    1.421   .     A
C186   C680    1.415   .     S
C186   C683    1.428   .     S
C187   C191    1.407   .     A
C188   C681    1.428   1_554 S
C188   C684    1.429   1_554 S
C189   C190    1.399   .     A
C189   C677    1.420   .     S
C189   C683    1.429   .     S
C190   H196    1.082   .     S
C190   C191    1.382   .     A
C191   H200    1.081   .     S
H193   O208    0.992   .     S
H194   C229    1.086   .     S
H195   C341    1.086   .     S
H199   C674    1.084   1_554 S
H201   O207    0.990   .     S
O202   Zn218   1.951   .     S
O202   Zn219   1.921   .     S
O202   Zn217   1.961   .     S
O202   Zn220   1.935   .     S
O203   Zn218   1.927   .     S
O204   Zn220   1.942   .     S
O205   Zn219   1.942   .     S
O206   Zn217   1.929   .     S
O207   C677    1.380   .     S
O209   Zn217   1.929   .     S
O210   Zn220   1.926   .     S
O211   Zn218   1.925   .     S
O212   Zn219   1.939   .     S
O213   Zn220   1.934   .     S
O214   Zn217   1.919   .     S
O215   Zn218   1.934   .     S
O216   Zn219   1.932   .     S
C223   C229    1.439   .     S
C223   O268    1.273   .     A
C223   O266    1.274   .     A
C224   C238    1.389   .     A
C224   H252    1.076   .     S
C224   C243    1.411   .     A
C225   C237    1.389   .     A
C225   C238    1.394   .     A
C225   H247    1.084   .     S
C226   O267    1.278   .     A
C226   O269    1.277   .     A
C226   C228    1.458   .     S
C227   C242    1.420   .     A
C227   C239    1.413   .     A
C227   C236    1.481   .     S
C228   Br277   1.929   .     S
C228   C284    1.339   .     S
C230   C233    1.455   .     S
C230   Br386   1.930   .     S
C230   C396    1.336   .     S
C231   C232    1.436   .     S
C232   O270    1.280   .     A
C232   O264    1.280   .     A
C233   O271    1.267   .     A
C233   O265    1.271   .     A
C234   C239    1.399   .     A
C234   C735    1.388   .     S
C234   H749    1.084   .     S
C235   C238    1.452   .     S
C235   O258    1.278   .     A
C235   O260    1.266   .     A
C236   O259    1.283   .     A
C236   O261    1.286   .     A
C237   C739    1.420   1_554 S
C237   O757    1.380   1_554 S
C239   O263    1.383   .     S
C240   H253    1.076   .     S
C240   C729    1.388   1_554 S
C240   C736    1.415   1_554 S
C241   C242    1.421   .     A
C241   C735    1.415   .     S
C241   C738    1.428   .     S
C242   C246    1.407   .     A
C243   C736    1.428   1_554 S
C243   C739    1.429   1_554 S
C244   C245    1.399   .     A
C244   C732    1.420   .     S
C244   C738    1.429   .     S
C245   H251    1.082   .     S
C245   C246    1.382   .     A
C246   H255    1.081   .     S
H248   O263    0.992   .     S
H249   C284    1.086   .     S
H250   C396    1.086   .     S
H254   C729    1.084   1_554 S
H256   O262    0.990   .     S
O257   Zn273   1.951   .     S
O257   Zn274   1.921   .     S
O257   Zn272   1.961   .     S
O257   Zn275   1.935   .     S
O258   Zn273   1.927   .     S
O259   Zn275   1.942   .     S
O260   Zn274   1.942   .     S
O261   Zn272   1.929   .     S
O262   C732    1.380   .     S
O264   Zn272   1.929   .     S
O265   Zn275   1.926   .     S
O266   Zn273   1.925   .     S
O267   Zn274   1.939   .     S
O268   Zn275   1.934   .     S
O269   Zn272   1.919   .     S
O270   Zn273   1.934   .     S
O271   Zn274   1.932   .     S
C278   C284    1.439   .     S
C278   O323    1.273   .     A
C278   O321    1.274   .     A
C279   C293    1.389   .     A
C279   H307    1.076   .     S
C279   C298    1.411   .     A
C280   C292    1.389   .     A
C280   C293    1.394   .     A
C280   H302    1.084   .     S
C281   O322    1.278   .     A
C281   O324    1.277   .     A
C281   C283    1.458   .     S
C282   C297    1.420   .     A
C282   C294    1.413   .     A
C282   C291    1.481   .     S
C283   Br167   1.929   1_655 S
C283   C174    1.339   1_655 S
C285   C288    1.455   .     S
C285   Br441   1.930   .     S
C285   C451    1.336   .     S
C286   C287    1.436   .     S
C287   O325    1.280   .     A
C287   O319    1.280   .     A
C288   O326    1.267   .     A
C288   O320    1.271   .     A
C289   C294    1.399   .     A
C289   C790    1.388   .     S
C289   H804    1.084   .     S
C290   C293    1.452   .     S
C290   O313    1.278   .     A
C290   O315    1.266   .     A
C291   O314    1.283   .     A
C291   O316    1.286   .     A
C292   C794    1.420   1_554 S
C292   O812    1.380   1_554 S
C294   O318    1.383   .     S
C295   H308    1.076   .     S
C295   C784    1.388   1_554 S
C295   C791    1.415   1_554 S
C296   C297    1.421   .     A
C296   C790    1.415   .     S
C296   C793    1.428   .     S
C297   C301    1.407   .     A
C298   C791    1.428   1_554 S
C298   C794    1.429   1_554 S
C299   C300    1.399   .     A
C299   C787    1.420   .     S
C299   C793    1.429   .     S
C300   H306    1.082   .     S
C300   C301    1.382   .     A
C301   H310    1.081   .     S
H303   O318    0.992   .     S
H304   C174    1.086   1_655 S
H305   C451    1.086   .     S
H309   C784    1.084   1_554 S
H311   O317    0.990   .     S
O312   Zn328   1.951   .     S
O312   Zn329   1.921   .     S
O312   Zn327   1.961   .     S
O312   Zn330   1.935   .     S
O313   Zn328   1.927   .     S
O314   Zn330   1.942   .     S
O315   Zn329   1.942   .     S
O316   Zn327   1.929   .     S
O317   C787    1.380   .     S
O319   Zn327   1.929   .     S
O320   Zn330   1.926   .     S
O321   Zn328   1.925   .     S
O322   Zn329   1.939   .     S
O323   Zn330   1.934   .     S
O324   Zn327   1.919   .     S
O325   Zn328   1.934   .     S
O326   Zn329   1.932   .     S
Br332  C448    1.929   1_455 S
C333   C339    1.439   .     S
C333   O378    1.273   .     A
C333   O376    1.274   .     A
C334   C348    1.389   .     A
C334   H362    1.076   .     S
C334   C353    1.411   .     A
C335   C347    1.389   .     A
C335   C348    1.394   .     A
C335   H357    1.084   .     S
C336   O377    1.278   .     A
C336   O379    1.277   .     A
C336   C338    1.458   .     S
C337   C352    1.420   .     A
C337   C349    1.413   .     A
C337   C346    1.481   .     S
C338   Br387   1.929   .     S
C338   C394    1.339   .     S
C339   C448    1.339   1_455 S
C339   H469    1.086   1_455 S
C340   C343    1.455   .     S
C340   Br1     1.930   1_565 S
C340   C11     1.336   1_565 S
C341   C342    1.436   .     S
C342   O380    1.280   .     A
C342   O374    1.280   .     A
C343   O381    1.267   .     A
C343   O375    1.271   .     A
C344   C349    1.399   .     A
C344   C845    1.388   .     S
C344   H859    1.084   .     S
C345   C348    1.452   .     S
C345   O368    1.278   .     A
C345   O370    1.266   .     A
C346   O369    1.283   .     A
C346   O371    1.286   .     A
C347   C849    1.420   1_554 S
C347   O867    1.380   1_554 S
C349   O373    1.383   .     S
C350   H363    1.076   .     S
C350   C839    1.388   1_554 S
C350   C846    1.415   1_554 S
C351   C352    1.421   .     A
C351   C845    1.415   .     S
C351   C848    1.428   .     S
C352   C356    1.407   .     A
C353   C846    1.428   1_554 S
C353   C849    1.429   1_554 S
C354   C355    1.399   .     A
C354   C842    1.420   .     S
C354   C848    1.429   .     S
C355   H361    1.082   .     S
C355   C356    1.382   .     A
C356   H365    1.081   .     S
H358   O373    0.992   .     S
H359   C394    1.086   .     S
H360   C11     1.086   1_565 S
H364   C839    1.084   1_554 S
H366   O372    0.990   .     S
O367   Zn383   1.951   .     S
O367   Zn384   1.921   .     S
O367   Zn382   1.961   .     S
O367   Zn385   1.935   .     S
O368   Zn383   1.927   .     S
O369   Zn385   1.942   .     S
O370   Zn384   1.942   .     S
O371   Zn382   1.929   .     S
O372   C842    1.380   .     S
O374   Zn382   1.929   .     S
O375   Zn385   1.926   .     S
O376   Zn383   1.925   .     S
O377   Zn384   1.939   .     S
O378   Zn385   1.934   .     S
O379   Zn382   1.919   .     S
O380   Zn383   1.934   .     S
O381   Zn384   1.932   .     S
C388   C394    1.439   .     S
C388   O433    1.273   .     A
C388   O431    1.274   .     A
C389   C403    1.389   .     A
C389   H417    1.076   .     S
C389   C408    1.411   .     A
C390   C402    1.389   .     A
C390   C403    1.394   .     A
C390   H412    1.084   .     S
C391   O432    1.278   .     A
C391   O434    1.277   .     A
C391   C393    1.458   .     S
C392   C407    1.420   .     A
C392   C404    1.413   .     A
C392   C401    1.481   .     S
C393   Br442   1.929   .     S
C393   C449    1.339   .     S
C395   C398    1.455   .     S
C395   Br56    1.930   1_565 S
C395   C66     1.336   1_565 S
C396   C397    1.436   .     S
C397   O435    1.280   .     A
C397   O429    1.280   .     A
C398   O436    1.267   .     A
C398   O430    1.271   .     A
C399   C404    1.399   .     A
C399   C900    1.388   .     S
C399   H914    1.084   .     S
C400   C403    1.452   .     S
C400   O423    1.278   .     A
C400   O425    1.266   .     A
C401   O424    1.283   .     A
C401   O426    1.286   .     A
C402   C904    1.420   1_554 S
C402   O922    1.380   1_554 S
C404   O428    1.383   .     S
C405   H418    1.076   .     S
C405   C894    1.388   1_554 S
C405   C901    1.415   1_554 S
C406   C407    1.421   .     A
C406   C900    1.415   .     S
C406   C903    1.428   .     S
C407   C411    1.407   .     A
C408   C901    1.428   1_554 S
C408   C904    1.429   1_554 S
C409   C410    1.399   .     A
C409   C897    1.420   .     S
C409   C903    1.429   .     S
C410   H416    1.082   .     S
C410   C411    1.382   .     A
C411   H420    1.081   .     S
H413   O428    0.992   .     S
H414   C449    1.086   .     S
H415   C66     1.086   1_565 S
H419   C894    1.084   1_554 S
H421   O427    0.990   .     S
O422   Zn438   1.951   .     S
O422   Zn439   1.921   .     S
O422   Zn437   1.961   .     S
O422   Zn440   1.935   .     S
O423   Zn438   1.927   .     S
O424   Zn440   1.942   .     S
O425   Zn439   1.942   .     S
O426   Zn437   1.929   .     S
O427   C897    1.380   .     S
O429   Zn437   1.929   .     S
O430   Zn440   1.926   .     S
O431   Zn438   1.925   .     S
O432   Zn439   1.939   .     S
O433   Zn440   1.934   .     S
O434   Zn437   1.919   .     S
O435   Zn438   1.934   .     S
O436   Zn439   1.932   .     S
C443   C449    1.439   .     S
C443   O488    1.273   .     A
C443   O486    1.274   .     A
C444   C458    1.389   .     A
C444   H472    1.076   .     S
C444   C463    1.411   .     A
C445   C457    1.389   .     A
C445   C458    1.394   .     A
C445   H467    1.084   .     S
C446   O487    1.278   .     A
C446   O489    1.277   .     A
C446   C448    1.458   .     S
C447   C462    1.420   .     A
C447   C459    1.413   .     A
C447   C456    1.481   .     S
C448   Br332   1.929   1_655 S
C448   C339    1.339   1_655 S
C450   C453    1.455   .     S
C450   Br111   1.930   1_565 S
C450   C121    1.336   1_565 S
C451   C452    1.436   .     S
C452   O490    1.280   .     A
C452   O484    1.280   .     A
C453   O491    1.267   .     A
C453   O485    1.271   .     A
C454   C459    1.399   .     A
C454   C955    1.388   .     S
C454   H969    1.084   .     S
C455   C458    1.452   .     S
C455   O478    1.278   .     A
C455   O480    1.266   .     A
C456   O479    1.283   .     A
C456   O481    1.286   .     A
C457   C959    1.420   1_554 S
C457   O977    1.380   1_554 S
C459   O483    1.383   .     S
C460   H473    1.076   .     S
C460   C949    1.388   1_554 S
C460   C956    1.415   1_554 S
C461   C462    1.421   .     A
C461   C955    1.415   .     S
C461   C958    1.428   .     S
C462   C466    1.407   .     A
C463   C956    1.428   1_554 S
C463   C959    1.429   1_554 S
C464   C465    1.399   .     A
C464   C952    1.420   .     S
C464   C958    1.429   .     S
C465   H471    1.082   .     S
C465   C466    1.382   .     A
C466   H475    1.081   .     S
H468   O483    0.992   .     S
H469   C339    1.086   1_655 S
H470   C121    1.086   1_565 S
H474   C949    1.084   1_554 S
H476   O482    0.990   .     S
O477   Zn493   1.951   .     S
O477   Zn494   1.921   .     S
O477   Zn492   1.961   .     S
O477   Zn495   1.935   .     S
O478   Zn493   1.927   .     S
O479   Zn495   1.942   .     S
O480   Zn494   1.942   .     S
O481   Zn492   1.929   .     S
O482   C952    1.380   .     S
O484   Zn492   1.929   .     S
O485   Zn495   1.926   .     S
O486   Zn493   1.925   .     S
O487   Zn494   1.939   .     S
O488   Zn495   1.934   .     S
O489   Zn492   1.919   .     S
O490   Zn493   1.934   .     S
O491   Zn494   1.932   .     S
Br496  C835    1.930   1_545 S
Br497  C613    1.929   1_455 S
C498   C504    1.439   .     S
C498   O543    1.273   .     A
C498   O541    1.274   .     A
C499   C513    1.389   .     A
C499   H527    1.076   .     S
C499   C518    1.411   .     A
C500   C512    1.389   .     A
C500   C513    1.394   .     A
C500   H522    1.084   .     S
C501   O542    1.278   .     A
C501   O544    1.277   .     A
C501   C503    1.458   .     S
C502   C517    1.420   .     A
C502   C514    1.413   .     A
C502   C511    1.481   .     S
C503   Br552   1.929   .     S
C503   C559    1.339   .     S
C504   C613    1.339   1_455 S
C504   H634    1.086   1_455 S
C505   C508    1.455   .     S
C505   Br661   1.930   .     S
C505   C671    1.336   .     S
C506   C507    1.436   .     S
C506   C835    1.336   1_545 S
C506   H855    1.086   1_545 S
C507   O545    1.280   .     A
C507   O539    1.280   .     A
C508   O546    1.267   .     A
C508   O540    1.271   .     A
C509   C514    1.399   .     A
C509   C20     1.388   1_556 S
C509   H34     1.084   1_556 S
C510   C513    1.452   .     S
C510   O533    1.278   .     A
C510   O535    1.266   .     A
C511   O534    1.283   .     A
C511   O536    1.286   .     A
C514   O538    1.383   .     S
C515   H528    1.076   .     S
C516   C517    1.421   .     A
C516   C20     1.415   1_556 S
C516   C23     1.428   1_556 S
C517   C521    1.407   .     A
C519   C520    1.399   .     A
C519   C17     1.420   1_556 S
C519   C23     1.429   1_556 S
C520   H526    1.082   .     S
C520   C521    1.382   .     A
C521   H530    1.081   .     S
H523   O538    0.992   .     S
H524   C559    1.086   .     S
H525   C671    1.086   .     S
H531   O537    0.990   .     S
O532   Zn548   1.951   .     S
O532   Zn549   1.921   .     S
O532   Zn547   1.961   .     S
O532   Zn550   1.935   .     S
O533   Zn548   1.927   .     S
O534   Zn550   1.942   .     S
O535   Zn549   1.942   .     S
O536   Zn547   1.929   .     S
O537   C17     1.380   1_556 S
O539   Zn547   1.929   .     S
O540   Zn550   1.926   .     S
O541   Zn548   1.925   .     S
O542   Zn549   1.939   .     S
O543   Zn550   1.934   .     S
O544   Zn547   1.919   .     S
O545   Zn548   1.934   .     S
O546   Zn549   1.932   .     S
Br551  C890    1.930   1_545 S
C553   C559    1.439   .     S
C553   O598    1.273   .     A
C553   O596    1.274   .     A
C554   C568    1.389   .     A
C554   H582    1.076   .     S
C554   C573    1.411   .     A
C555   C567    1.389   .     A
C555   C568    1.394   .     A
C555   H577    1.084   .     S
C556   O597    1.278   .     A
C556   O599    1.277   .     A
C556   C558    1.458   .     S
C557   C572    1.420   .     A
C557   C569    1.413   .     A
C557   C566    1.481   .     S
C558   Br607   1.929   .     S
C558   C614    1.339   .     S
C560   C563    1.455   .     S
C560   Br716   1.930   .     S
C560   C726    1.336   .     S
C561   C562    1.436   .     S
C561   C890    1.336   1_545 S
C561   H910    1.086   1_545 S
C562   O600    1.280   .     A
C562   O594    1.280   .     A
C563   O601    1.267   .     A
C563   O595    1.271   .     A
C564   C569    1.399   .     A
C564   C75     1.388   1_556 S
C564   H89     1.084   1_556 S
C565   C568    1.452   .     S
C565   O588    1.278   .     A
C565   O590    1.266   .     A
C566   O589    1.283   .     A
C566   O591    1.286   .     A
C569   O593    1.383   .     S
C570   H583    1.076   .     S
C571   C572    1.421   .     A
C571   C75     1.415   1_556 S
C571   C78     1.428   1_556 S
C572   C576    1.407   .     A
C574   C575    1.399   .     A
C574   C72     1.420   1_556 S
C574   C78     1.429   1_556 S
C575   H581    1.082   .     S
C575   C576    1.382   .     A
C576   H585    1.081   .     S
H578   O593    0.992   .     S
H579   C614    1.086   .     S
H580   C726    1.086   .     S
H586   O592    0.990   .     S
O587   Zn603   1.951   .     S
O587   Zn604   1.921   .     S
O587   Zn602   1.961   .     S
O587   Zn605   1.935   .     S
O588   Zn603   1.927   .     S
O589   Zn605   1.942   .     S
O590   Zn604   1.942   .     S
O591   Zn602   1.929   .     S
O592   C72     1.380   1_556 S
O594   Zn602   1.929   .     S
O595   Zn605   1.926   .     S
O596   Zn603   1.925   .     S
O597   Zn604   1.939   .     S
O598   Zn605   1.934   .     S
O599   Zn602   1.919   .     S
O600   Zn603   1.934   .     S
O601   Zn604   1.932   .     S
Br606  C945    1.930   1_545 S
C608   C614    1.439   .     S
C608   O653    1.273   .     A
C608   O651    1.274   .     A
C609   C623    1.389   .     A
C609   H637    1.076   .     S
C609   C628    1.411   .     A
C610   C622    1.389   .     A
C610   C623    1.394   .     A
C610   H632    1.084   .     S
C611   O652    1.278   .     A
C611   O654    1.277   .     A
C611   C613    1.458   .     S
C612   C627    1.420   .     A
C612   C624    1.413   .     A
C612   C621    1.481   .     S
C613   Br497   1.929   1_655 S
C613   C504    1.339   1_655 S
C615   C618    1.455   .     S
C615   Br771   1.930   .     S
C615   C781    1.336   .     S
C616   C617    1.436   .     S
C616   C945    1.336   1_545 S
C616   H965    1.086   1_545 S
C617   O655    1.280   .     A
C617   O649    1.280   .     A
C618   O656    1.267   .     A
C618   O650    1.271   .     A
C619   C624    1.399   .     A
C619   C130    1.388   1_556 S
C619   H144    1.084   1_556 S
C620   C623    1.452   .     S
C620   O643    1.278   .     A
C620   O645    1.266   .     A
C621   O644    1.283   .     A
C621   O646    1.286   .     A
C624   O648    1.383   .     S
C625   H638    1.076   .     S
C626   C627    1.421   .     A
C626   C130    1.415   1_556 S
C626   C133    1.428   1_556 S
C627   C631    1.407   .     A
C629   C630    1.399   .     A
C629   C127    1.420   1_556 S
C629   C133    1.429   1_556 S
C630   H636    1.082   .     S
C630   C631    1.382   .     A
C631   H640    1.081   .     S
H633   O648    0.992   .     S
H634   C504    1.086   1_655 S
H635   C781    1.086   .     S
H641   O647    0.990   .     S
O642   Zn658   1.951   .     S
O642   Zn659   1.921   .     S
O642   Zn657   1.961   .     S
O642   Zn660   1.935   .     S
O643   Zn658   1.927   .     S
O644   Zn660   1.942   .     S
O645   Zn659   1.942   .     S
O646   Zn657   1.929   .     S
O647   C127    1.380   1_556 S
O649   Zn657   1.929   .     S
O650   Zn660   1.926   .     S
O651   Zn658   1.925   .     S
O652   Zn659   1.939   .     S
O653   Zn660   1.934   .     S
O654   Zn657   1.919   .     S
O655   Zn658   1.934   .     S
O656   Zn659   1.932   .     S
Br662  C778    1.929   1_455 S
C663   C669    1.439   .     S
C663   O708    1.273   .     A
C663   O706    1.274   .     A
C664   C678    1.389   .     A
C664   H692    1.076   .     S
C664   C683    1.411   .     A
C665   C677    1.389   .     A
C665   C678    1.394   .     A
C665   H687    1.084   .     S
C666   O707    1.278   .     A
C666   O709    1.277   .     A
C666   C668    1.458   .     S
C667   C682    1.420   .     A
C667   C679    1.413   .     A
C667   C676    1.481   .     S
C668   Br717   1.929   .     S
C668   C724    1.339   .     S
C669   C778    1.339   1_455 S
C669   H799    1.086   1_455 S
C670   C673    1.455   .     S
C670   Br826   1.930   .     S
C670   C836    1.336   .     S
C671   C672    1.436   .     S
C672   O710    1.280   .     A
C672   O704    1.280   .     A
C673   O711    1.267   .     A
C673   O705    1.271   .     A
C674   C679    1.399   .     A
C674   C185    1.388   1_556 S
C674   H199    1.084   1_556 S
C675   C678    1.452   .     S
C675   O698    1.278   .     A
C675   O700    1.266   .     A
C676   O699    1.283   .     A
C676   O701    1.286   .     A
C679   O703    1.383   .     S
C680   H693    1.076   .     S
C681   C682    1.421   .     A
C681   C185    1.415   1_556 S
C681   C188    1.428   1_556 S
C682   C686    1.407   .     A
C684   C685    1.399   .     A
C684   C182    1.420   1_556 S
C684   C188    1.429   1_556 S
C685   H691    1.082   .     S
C685   C686    1.382   .     A
C686   H695    1.081   .     S
H688   O703    0.992   .     S
H689   C724    1.086   .     S
H690   C836    1.086   .     S
H696   O702    0.990   .     S
O697   Zn713   1.951   .     S
O697   Zn714   1.921   .     S
O697   Zn712   1.961   .     S
O697   Zn715   1.935   .     S
O698   Zn713   1.927   .     S
O699   Zn715   1.942   .     S
O700   Zn714   1.942   .     S
O701   Zn712   1.929   .     S
O702   C182    1.380   1_556 S
O704   Zn712   1.929   .     S
O705   Zn715   1.926   .     S
O706   Zn713   1.925   .     S
O707   Zn714   1.939   .     S
O708   Zn715   1.934   .     S
O709   Zn712   1.919   .     S
O710   Zn713   1.934   .     S
O711   Zn714   1.932   .     S
C718   C724    1.439   .     S
C718   O763    1.273   .     A
C718   O761    1.274   .     A
C719   C733    1.389   .     A
C719   H747    1.076   .     S
C719   C738    1.411   .     A
C720   C732    1.389   .     A
C720   C733    1.394   .     A
C720   H742    1.084   .     S
C721   O762    1.278   .     A
C721   O764    1.277   .     A
C721   C723    1.458   .     S
C722   C737    1.420   .     A
C722   C734    1.413   .     A
C722   C731    1.481   .     S
C723   Br772   1.929   .     S
C723   C779    1.339   .     S
C725   C728    1.455   .     S
C725   Br881   1.930   .     S
C725   C891    1.336   .     S
C726   C727    1.436   .     S
C727   O765    1.280   .     A
C727   O759    1.280   .     A
C728   O766    1.267   .     A
C728   O760    1.271   .     A
C729   C734    1.399   .     A
C729   C240    1.388   1_556 S
C729   H254    1.084   1_556 S
C730   C733    1.452   .     S
C730   O753    1.278   .     A
C730   O755    1.266   .     A
C731   O754    1.283   .     A
C731   O756    1.286   .     A
C734   O758    1.383   .     S
C735   H748    1.076   .     S
C736   C737    1.421   .     A
C736   C240    1.415   1_556 S
C736   C243    1.428   1_556 S
C737   C741    1.407   .     A
C739   C740    1.399   .     A
C739   C237    1.420   1_556 S
C739   C243    1.429   1_556 S
C740   H746    1.082   .     S
C740   C741    1.382   .     A
C741   H750    1.081   .     S
H743   O758    0.992   .     S
H744   C779    1.086   .     S
H745   C891    1.086   .     S
H751   O757    0.990   .     S
O752   Zn768   1.951   .     S
O752   Zn769   1.921   .     S
O752   Zn767   1.961   .     S
O752   Zn770   1.935   .     S
O753   Zn768   1.927   .     S
O754   Zn770   1.942   .     S
O755   Zn769   1.942   .     S
O756   Zn767   1.929   .     S
O757   C237    1.380   1_556 S
O759   Zn767   1.929   .     S
O760   Zn770   1.926   .     S
O761   Zn768   1.925   .     S
O762   Zn769   1.939   .     S
O763   Zn770   1.934   .     S
O764   Zn767   1.919   .     S
O765   Zn768   1.934   .     S
O766   Zn769   1.932   .     S
C773   C779    1.439   .     S
C773   O818    1.273   .     A
C773   O816    1.274   .     A
C774   C788    1.389   .     A
C774   H802    1.076   .     S
C774   C793    1.411   .     A
C775   C787    1.389   .     A
C775   C788    1.394   .     A
C775   H797    1.084   .     S
C776   O817    1.278   .     A
C776   O819    1.277   .     A
C776   C778    1.458   .     S
C777   C792    1.420   .     A
C777   C789    1.413   .     A
C777   C786    1.481   .     S
C778   Br662   1.929   1_655 S
C778   C669    1.339   1_655 S
C780   C783    1.455   .     S
C780   Br936   1.930   .     S
C780   C946    1.336   .     S
C781   C782    1.436   .     S
C782   O820    1.280   .     A
C782   O814    1.280   .     A
C783   O821    1.267   .     A
C783   O815    1.271   .     A
C784   C789    1.399   .     A
C784   C295    1.388   1_556 S
C784   H309    1.084   1_556 S
C785   C788    1.452   .     S
C785   O808    1.278   .     A
C785   O810    1.266   .     A
C786   O809    1.283   .     A
C786   O811    1.286   .     A
C789   O813    1.383   .     S
C790   H803    1.076   .     S
C791   C792    1.421   .     A
C791   C295    1.415   1_556 S
C791   C298    1.428   1_556 S
C792   C796    1.407   .     A
C794   C795    1.399   .     A
C794   C292    1.420   1_556 S
C794   C298    1.429   1_556 S
C795   H801    1.082   .     S
C795   C796    1.382   .     A
C796   H805    1.081   .     S
H798   O813    0.992   .     S
H799   C669    1.086   1_655 S
H800   C946    1.086   .     S
H806   O812    0.990   .     S
O807   Zn823   1.951   .     S
O807   Zn824   1.921   .     S
O807   Zn822   1.961   .     S
O807   Zn825   1.935   .     S
O808   Zn823   1.927   .     S
O809   Zn825   1.942   .     S
O810   Zn824   1.942   .     S
O811   Zn822   1.929   .     S
O812   C292    1.380   1_556 S
O814   Zn822   1.929   .     S
O815   Zn825   1.926   .     S
O816   Zn823   1.925   .     S
O817   Zn824   1.939   .     S
O818   Zn825   1.934   .     S
O819   Zn822   1.919   .     S
O820   Zn823   1.934   .     S
O821   Zn824   1.932   .     S
Br827  C943    1.929   1_455 S
C828   C834    1.439   .     S
C828   O873    1.273   .     A
C828   O871    1.274   .     A
C829   C843    1.389   .     A
C829   H857    1.076   .     S
C829   C848    1.411   .     A
C830   C842    1.389   .     A
C830   C843    1.394   .     A
C830   H852    1.084   .     S
C831   O872    1.278   .     A
C831   O874    1.277   .     A
C831   C833    1.458   .     S
C832   C847    1.420   .     A
C832   C844    1.413   .     A
C832   C841    1.481   .     S
C833   Br882   1.929   .     S
C833   C889    1.339   .     S
C834   C943    1.339   1_455 S
C834   H964    1.086   1_455 S
C835   C838    1.455   .     S
C835   Br496   1.930   1_565 S
C835   C506    1.336   1_565 S
C836   C837    1.436   .     S
C837   O875    1.280   .     A
C837   O869    1.280   .     A
C838   O876    1.267   .     A
C838   O870    1.271   .     A
C839   C844    1.399   .     A
C839   C350    1.388   1_556 S
C839   H364    1.084   1_556 S
C840   C843    1.452   .     S
C840   O863    1.278   .     A
C840   O865    1.266   .     A
C841   O864    1.283   .     A
C841   O866    1.286   .     A
C844   O868    1.383   .     S
C845   H858    1.076   .     S
C846   C847    1.421   .     A
C846   C350    1.415   1_556 S
C846   C353    1.428   1_556 S
C847   C851    1.407   .     A
C849   C850    1.399   .     A
C849   C347    1.420   1_556 S
C849   C353    1.429   1_556 S
C850   H856    1.082   .     S
C850   C851    1.382   .     A
C851   H860    1.081   .     S
H853   O868    0.992   .     S
H854   C889    1.086   .     S
H855   C506    1.086   1_565 S
H861   O867    0.990   .     S
O862   Zn878   1.951   .     S
O862   Zn879   1.921   .     S
O862   Zn877   1.961   .     S
O862   Zn880   1.935   .     S
O863   Zn878   1.927   .     S
O864   Zn880   1.942   .     S
O865   Zn879   1.942   .     S
O866   Zn877   1.929   .     S
O867   C347    1.380   1_556 S
O869   Zn877   1.929   .     S
O870   Zn880   1.926   .     S
O871   Zn878   1.925   .     S
O872   Zn879   1.939   .     S
O873   Zn880   1.934   .     S
O874   Zn877   1.919   .     S
O875   Zn878   1.934   .     S
O876   Zn879   1.932   .     S
C883   C889    1.439   .     S
C883   O928    1.273   .     A
C883   O926    1.274   .     A
C884   C898    1.389   .     A
C884   H912    1.076   .     S
C884   C903    1.411   .     A
C885   C897    1.389   .     A
C885   C898    1.394   .     A
C885   H907    1.084   .     S
C886   O927    1.278   .     A
C886   O929    1.277   .     A
C886   C888    1.458   .     S
C887   C902    1.420   .     A
C887   C899    1.413   .     A
C887   C896    1.481   .     S
C888   Br937   1.929   .     S
C888   C944    1.339   .     S
C890   C893    1.455   .     S
C890   Br551   1.930   1_565 S
C890   C561    1.336   1_565 S
C891   C892    1.436   .     S
C892   O930    1.280   .     A
C892   O924    1.280   .     A
C893   O931    1.267   .     A
C893   O925    1.271   .     A
C894   C899    1.399   .     A
C894   C405    1.388   1_556 S
C894   H419    1.084   1_556 S
C895   C898    1.452   .     S
C895   O918    1.278   .     A
C895   O920    1.266   .     A
C896   O919    1.283   .     A
C896   O921    1.286   .     A
C899   O923    1.383   .     S
C900   H913    1.076   .     S
C901   C902    1.421   .     A
C901   C405    1.415   1_556 S
C901   C408    1.428   1_556 S
C902   C906    1.407   .     A
C904   C905    1.399   .     A
C904   C402    1.420   1_556 S
C904   C408    1.429   1_556 S
C905   H911    1.082   .     S
C905   C906    1.382   .     A
C906   H915    1.081   .     S
H908   O923    0.992   .     S
H909   C944    1.086   .     S
H910   C561    1.086   1_565 S
H916   O922    0.990   .     S
O917   Zn933   1.951   .     S
O917   Zn934   1.921   .     S
O917   Zn932   1.961   .     S
O917   Zn935   1.935   .     S
O918   Zn933   1.927   .     S
O919   Zn935   1.942   .     S
O920   Zn934   1.942   .     S
O921   Zn932   1.929   .     S
O922   C402    1.380   1_556 S
O924   Zn932   1.929   .     S
O925   Zn935   1.926   .     S
O926   Zn933   1.925   .     S
O927   Zn934   1.939   .     S
O928   Zn935   1.934   .     S
O929   Zn932   1.919   .     S
O930   Zn933   1.934   .     S
O931   Zn934   1.932   .     S
C938   C944    1.439   .     S
C938   O983    1.273   .     A
C938   O981    1.274   .     A
C939   C953    1.389   .     A
C939   H967    1.076   .     S
C939   C958    1.411   .     A
C940   C952    1.389   .     A
C940   C953    1.394   .     A
C940   H962    1.084   .     S
C941   O982    1.278   .     A
C941   O984    1.277   .     A
C941   C943    1.458   .     S
C942   C957    1.420   .     A
C942   C954    1.413   .     A
C942   C951    1.481   .     S
C943   Br827   1.929   1_655 S
C943   C834    1.339   1_655 S
C945   C948    1.455   .     S
C945   Br606   1.930   1_565 S
C945   C616    1.336   1_565 S
C946   C947    1.436   .     S
C947   O985    1.280   .     A
C947   O979    1.280   .     A
C948   O986    1.267   .     A
C948   O980    1.271   .     A
C949   C954    1.399   .     A
C949   C460    1.388   1_556 S
C949   H474    1.084   1_556 S
C950   C953    1.452   .     S
C950   O973    1.278   .     A
C950   O975    1.266   .     A
C951   O974    1.283   .     A
C951   O976    1.286   .     A
C954   O978    1.383   .     S
C955   H968    1.076   .     S
C956   C957    1.421   .     A
C956   C460    1.415   1_556 S
C956   C463    1.428   1_556 S
C957   C961    1.407   .     A
C959   C960    1.399   .     A
C959   C457    1.420   1_556 S
C959   C463    1.429   1_556 S
C960   H966    1.082   .     S
C960   C961    1.382   .     A
C961   H970    1.081   .     S
H963   O978    0.992   .     S
H964   C834    1.086   1_655 S
H965   C616    1.086   1_565 S
H971   O977    0.990   .     S
O972   Zn988   1.951   .     S
O972   Zn989   1.921   .     S
O972   Zn987   1.961   .     S
O972   Zn990   1.935   .     S
O973   Zn988   1.927   .     S
O974   Zn990   1.942   .     S
O975   Zn989   1.942   .     S
O976   Zn987   1.929   .     S
O977   C457    1.380   1_556 S
O979   Zn987   1.929   .     S
O980   Zn990   1.926   .     S
O981   Zn988   1.925   .     S
O982   Zn989   1.939   .     S
O983   Zn990   1.934   .     S
O984   Zn987   1.919   .     S
O985   Zn988   1.934   .     S
O986   Zn989   1.932   .     S
