data_str_m1_o10_o18_pcu_sym.3
_audit_creation_date              2020-01-03
_audit_creation_method            'Materials Studio'
_symmetry_space_group_name_H-M    'P1'
_symmetry_Int_Tables_number       1
_symmetry_cell_setting            triclinic
loop_
_symmetry_equiv_pos_as_xyz
  x,y,z
_cell_length_a                    32.6366
_cell_length_b                    32.5272
_cell_length_c                    35.6441
_cell_angle_alpha                 98.7842
_cell_angle_beta                  73.2953
_cell_angle_gamma                 98.4426
loop_
_atom_site_label
_atom_site_type_symbol
_atom_site_fract_x
_atom_site_fract_y
_atom_site_fract_z
_atom_site_U_iso_or_equiv
_atom_site_adp_type
_atom_site_occupancy
C1     C     0.05279   0.16032   0.25821   0.00000  Uiso   1.00
C2     C     0.10533   0.22365   0.42049   0.00000  Uiso   1.00
C3     C     0.15451   0.17499   0.41976   0.00000  Uiso   1.00
C4     C     0.14172   0.17727   0.46108   0.00000  Uiso   1.00
C5     C     0.11265   0.20686   0.48248   0.00000  Uiso   1.00
C6     C     0.15949   0.15291   0.48148   0.00000  Uiso   1.00
C7     C     0.15473   0.16430   0.02253   0.00000  Uiso   1.00
C8     C     0.12546   0.19333   0.04300   0.00000  Uiso   1.00
C9     C     0.10273   0.21240   0.02395   0.00000  Uiso   1.00
C10    C     0.18078   0.11688   0.46280   0.00000  Uiso   1.00
C11    C     0.20557   0.10021   0.48166   0.00000  Uiso   1.00
C12    C     0.28082   0.17334   0.24152   0.00000  Uiso   1.00
C13    C     0.20466   0.11379   0.02089   0.00000  Uiso   1.00
C14    C     0.17817   0.14521   0.04214   0.00000  Uiso   1.00
C15    C     0.22867   0.09495   0.03954   0.00000  Uiso   1.00
C16    C     0.22098   0.10260   0.08093   0.00000  Uiso   1.00
C17    C     0.17651   0.15668   0.08225   0.00000  Uiso   1.00
C18    C     0.32634   0.17524   0.23882   0.00000  Uiso   1.00
C19    C     0.00750   0.15678   0.26317   0.00000  Uiso   1.00
C20    C     0.18144   0.32276   0.24128   0.00000  Uiso   1.00
C21    C     0.14927   0.01218   0.26251   0.00000  Uiso   1.00
C22    C     0.15567   0.05631   0.25888   0.00000  Uiso   1.00
C23    C     0.17677   0.27772   0.24186   0.00000  Uiso   1.00
C24    C     0.18832   0.14469   0.14407   0.00000  Uiso   1.00
C25    C     0.14560   0.18806   0.35621   0.00000  Uiso   1.00
C26    C     0.13491   0.19581   0.39951   0.00000  Uiso   1.00
C27    C     0.19648   0.13501   0.10149   0.00000  Uiso   1.00
C28    C     0.09417   0.23018   0.46198   0.00000  Uiso   1.00
H29    H     0.01574   0.19225   0.21609   0.00000  Uiso   1.00
H30    H     0.15926   0.18187   0.09995   0.00000  Uiso   1.00
H31    H     0.22415   0.07495   0.46567   0.00000  Uiso   1.00
H32    H     0.09242   0.24161   0.40428   0.00000  Uiso   1.00
H33    H     0.18155   0.15885   0.40252   0.00000  Uiso   1.00
H34    H     0.11788   0.20112   0.07448   0.00000  Uiso   1.00
O35    O     0.16667   0.16667   0.25000   0.00000  Uiso   1.00
O36    O     0.17849   0.08101   0.27820   0.00000  Uiso   1.00
O37    O     0.14581   0.26136   0.26767   0.00000  Uiso   1.00
O38    O     0.07452   0.13251   0.23607   0.00000  Uiso   1.00
O39    O     0.26785   0.19179   0.21805   0.00000  Uiso   1.00
O40    O     0.06990   0.18960   0.27820   0.00000  Uiso   1.00
O41    O     0.25440   0.15277   0.26767   0.00000  Uiso   1.00
O42    O     0.13800   0.06903   0.23607   0.00000  Uiso   1.00
O43    O     0.20437   0.25527   0.21805   0.00000  Uiso   1.00
O44    O     0.15693   0.12393   0.16625   0.00000  Uiso   1.00
O45    O     0.12687   0.20646   0.33749   0.00000  Uiso   1.00
O46    O     0.21088   0.17493   0.15877   0.00000  Uiso   1.00
O47    O     0.17198   0.16135   0.33749   0.00000  Uiso   1.00
Zn48   Zn    0.19244   0.14090   0.28277   0.00000  Uiso   1.00
Zn49   Zn    0.13459   0.12378   0.22257   0.00000  Uiso   1.00
Zn50   Zn    0.21166   0.19664   0.21188   0.00000  Uiso   1.00
Zn51   Zn    0.12798   0.20535   0.28277   0.00000  Uiso   1.00
O52    O     0.07298   0.23923   0.04599   0.00000  Uiso   1.00
C53    C     0.03859   0.21767   0.07259   0.00000  Uiso   1.00
H54    H     0.03997   0.22988   0.10312   0.00000  Uiso   1.00
H55    H     0.03927   0.18300   0.06903   0.00000  Uiso   1.00
C56    C     0.32941   0.22613   0.06695   0.00000  Uiso   1.00
H57    H     0.32816   0.26045   0.06957   0.00000  Uiso   1.00
H58    H     0.32728   0.21210   0.03703   0.00000  Uiso   1.00
C59    C     0.29106   0.20729   0.09739   0.00000  Uiso   1.00
H60    H     0.29133   0.17287   0.09492   0.00000  Uiso   1.00
H61    H     0.26083   0.21382   0.09215   0.00000  Uiso   1.00
H62    H     0.29190   0.22132   0.12763   0.00000  Uiso   1.00
O63    O     0.25677   0.06646   0.01765   0.00000  Uiso   1.00
C64    C     0.29988   0.08361   0.01486   0.00000  Uiso   1.00
H65    H     0.31932   0.05712   0.01069   0.00000  Uiso   1.00
H66    H     0.30415   0.10362   0.04210   0.00000  Uiso   1.00
C67    C     0.31765   0.10825   0.47918   0.00000  Uiso   1.00
H68    H     0.31473   0.08760   0.45198   0.00000  Uiso   1.00
H69    H     0.29875   0.13506   0.48287   0.00000  Uiso   1.00
C70    C     0.03144   0.12502   0.47469   0.00000  Uiso   1.00
H71    H     0.03479   0.14641   0.00129   0.00000  Uiso   1.00
H72    H     0.04347   0.14267   0.44865   0.00000  Uiso   1.00
H73    H     0.05132   0.09888   0.47052   0.00000  Uiso   1.00
Br74   Br    0.30736   0.12545   0.30582   0.00000  Uiso   1.00
Br75   Br    0.23571   0.01464   0.21046   0.00000  Uiso   1.00
O76    O     0.10958   0.32571   0.28286   0.00000  Uiso   1.00
C77    C     0.08036   0.01987   0.30756   0.00000  Uiso   1.00
H78    H     0.04809   0.00170   0.31520   0.00000  Uiso   1.00
H79    H     0.07627   0.04563   0.29220   0.00000  Uiso   1.00
C80    C     0.09225   0.03614   0.34626   0.00000  Uiso   1.00
H81    H     0.08589   0.01010   0.36471   0.00000  Uiso   1.00
H82    H     0.12695   0.04773   0.34045   0.00000  Uiso   1.00
C83    C     0.06613   0.07169   0.36903   0.00000  Uiso   1.00
H84    H     0.07336   0.09868   0.35158   0.00000  Uiso   1.00
H85    H     0.07475   0.08219   0.39713   0.00000  Uiso   1.00
H86    H     0.03114   0.06103   0.37573   0.00000  Uiso   1.00
O87    O     0.24046   0.08158   0.10109   0.00000  Uiso   1.00
C88    C     0.22404   0.03867   0.10026   0.00000  Uiso   1.00
H89    H     0.24849   0.02147   0.10553   0.00000  Uiso   1.00
H90    H     0.21896   0.02436   0.07132   0.00000  Uiso   1.00
C91    C     0.18210   0.03203   0.13289   0.00000  Uiso   1.00
H92    H     0.18705   0.04721   0.16156   0.00000  Uiso   1.00
H93    H     0.15643   0.04662   0.12661   0.00000  Uiso   1.00
C94    C     0.16738   0.31891   0.13580   0.00000  Uiso   1.00
H95    H     0.16099   0.30334   0.10774   0.00000  Uiso   1.00
H96    H     0.13730   0.31527   0.16002   0.00000  Uiso   1.00
H97    H     0.19232   0.30338   0.14224   0.00000  Uiso   1.00
O98    O     0.07047   0.26282   0.48277   0.00000  Uiso   1.00
C99    C     0.03407   0.26619   0.46974   0.00000  Uiso   1.00
H100   H     0.00581   0.26723   0.49600   0.00000  Uiso   1.00
H101   H     0.02571   0.23904   0.44908   0.00000  Uiso   1.00
C102   C     0.04015   0.30746   0.45208   0.00000  Uiso   1.00
H103   H     0.04607   0.00062   0.47427   0.00000  Uiso   1.00
H104   H     0.06856   0.30798   0.42602   0.00000  Uiso   1.00
C105   C     0.00062   0.31364   0.43975   0.00000  Uiso   1.00
H106   H     0.32817   0.28821   0.41664   0.00000  Uiso   1.00
H107   H     0.00592   0.01072   0.42766   0.00000  Uiso   1.00
H108   H     0.30511   0.31387   0.46555   0.00000  Uiso   1.00
O109   O     0.17781   0.09807   0.42586   0.00000  Uiso   1.00
C110   C     0.15934   0.05582   0.42669   0.00000  Uiso   1.00
H111   H     0.12876   0.05312   0.41827   0.00000  Uiso   1.00
H112   H     0.15096   0.04420   0.45616   0.00000  Uiso   1.00
C113   C     0.19003   0.02790   0.39636   0.00000  Uiso   1.00
H114   H     0.19696   0.03861   0.36677   0.00000  Uiso   1.00
H115   H     0.22086   0.03051   0.40438   0.00000  Uiso   1.00
C116   C     0.17104   0.31547   0.39427   0.00000  Uiso   1.00
H117   H     0.16287   0.30428   0.42373   0.00000  Uiso   1.00
H118   H     0.19488   0.29598   0.37326   0.00000  Uiso   1.00
H119   H     0.14174   0.31167   0.38369   0.00000  Uiso   1.00
C120   C     0.38612   0.16032   0.25821   0.00000  Uiso   1.00
C121   C     0.43866   0.22365   0.42049   0.00000  Uiso   1.00
C122   C     0.48785   0.17499   0.41976   0.00000  Uiso   1.00
C123   C     0.47505   0.17727   0.46108   0.00000  Uiso   1.00
C124   C     0.44599   0.20686   0.48248   0.00000  Uiso   1.00
C125   C     0.49282   0.15291   0.48148   0.00000  Uiso   1.00
C126   C     0.48806   0.16430   0.02253   0.00000  Uiso   1.00
C127   C     0.45880   0.19333   0.04300   0.00000  Uiso   1.00
C128   C     0.43606   0.21240   0.02395   0.00000  Uiso   1.00
C129   C     0.51411   0.11688   0.46280   0.00000  Uiso   1.00
C130   C     0.53890   0.10021   0.48166   0.00000  Uiso   1.00
C131   C     0.61416   0.17334   0.24152   0.00000  Uiso   1.00
C132   C     0.53799   0.11379   0.02089   0.00000  Uiso   1.00
C133   C     0.51151   0.14521   0.04214   0.00000  Uiso   1.00
C134   C     0.56201   0.09495   0.03954   0.00000  Uiso   1.00
C135   C     0.55432   0.10260   0.08093   0.00000  Uiso   1.00
C136   C     0.50984   0.15668   0.08225   0.00000  Uiso   1.00
C137   C     0.65967   0.17524   0.23882   0.00000  Uiso   1.00
C138   C     0.34084   0.15678   0.26317   0.00000  Uiso   1.00
C139   C     0.51477   0.32276   0.24128   0.00000  Uiso   1.00
C140   C     0.48260   0.01218   0.26251   0.00000  Uiso   1.00
C141   C     0.48900   0.05631   0.25888   0.00000  Uiso   1.00
C142   C     0.51011   0.27772   0.24186   0.00000  Uiso   1.00
C143   C     0.52166   0.14469   0.14407   0.00000  Uiso   1.00
C144   C     0.47894   0.18806   0.35621   0.00000  Uiso   1.00
C145   C     0.46824   0.19581   0.39951   0.00000  Uiso   1.00
C146   C     0.52981   0.13501   0.10149   0.00000  Uiso   1.00
C147   C     0.42750   0.23018   0.46198   0.00000  Uiso   1.00
H148   H     0.34908   0.19225   0.21609   0.00000  Uiso   1.00
H149   H     0.49260   0.18187   0.09995   0.00000  Uiso   1.00
H150   H     0.55749   0.07495   0.46567   0.00000  Uiso   1.00
H151   H     0.42575   0.24161   0.40428   0.00000  Uiso   1.00
H152   H     0.51488   0.15885   0.40252   0.00000  Uiso   1.00
H153   H     0.45121   0.20112   0.07448   0.00000  Uiso   1.00
O154   O     0.50000   0.16667   0.25000   0.00000  Uiso   1.00
O155   O     0.51182   0.08101   0.27820   0.00000  Uiso   1.00
O156   O     0.47914   0.26136   0.26767   0.00000  Uiso   1.00
O157   O     0.40785   0.13251   0.23607   0.00000  Uiso   1.00
O158   O     0.60119   0.19179   0.21805   0.00000  Uiso   1.00
O159   O     0.40323   0.18960   0.27820   0.00000  Uiso   1.00
O160   O     0.58773   0.15277   0.26767   0.00000  Uiso   1.00
O161   O     0.47133   0.06903   0.23607   0.00000  Uiso   1.00
O162   O     0.53771   0.25527   0.21805   0.00000  Uiso   1.00
O163   O     0.49027   0.12393   0.16625   0.00000  Uiso   1.00
O164   O     0.46020   0.20646   0.33749   0.00000  Uiso   1.00
O165   O     0.54421   0.17493   0.15877   0.00000  Uiso   1.00
O166   O     0.50532   0.16135   0.33749   0.00000  Uiso   1.00
Zn167  Zn    0.52577   0.14090   0.28277   0.00000  Uiso   1.00
Zn168  Zn    0.46792   0.12378   0.22257   0.00000  Uiso   1.00
Zn169  Zn    0.54500   0.19664   0.21188   0.00000  Uiso   1.00
Zn170  Zn    0.46131   0.20535   0.28277   0.00000  Uiso   1.00
O171   O     0.40631   0.23923   0.04599   0.00000  Uiso   1.00
C172   C     0.37193   0.21767   0.07259   0.00000  Uiso   1.00
H173   H     0.37330   0.22988   0.10312   0.00000  Uiso   1.00
H174   H     0.37261   0.18300   0.06903   0.00000  Uiso   1.00
C175   C     0.66275   0.22613   0.06695   0.00000  Uiso   1.00
H176   H     0.66149   0.26045   0.06957   0.00000  Uiso   1.00
H177   H     0.66061   0.21210   0.03703   0.00000  Uiso   1.00
C178   C     0.62439   0.20729   0.09739   0.00000  Uiso   1.00
H179   H     0.62466   0.17287   0.09492   0.00000  Uiso   1.00
H180   H     0.59416   0.21382   0.09215   0.00000  Uiso   1.00
H181   H     0.62524   0.22132   0.12763   0.00000  Uiso   1.00
O182   O     0.59010   0.06646   0.01765   0.00000  Uiso   1.00
C183   C     0.63322   0.08361   0.01486   0.00000  Uiso   1.00
H184   H     0.65265   0.05712   0.01069   0.00000  Uiso   1.00
H185   H     0.63748   0.10362   0.04210   0.00000  Uiso   1.00
C186   C     0.65099   0.10825   0.47918   0.00000  Uiso   1.00
H187   H     0.64806   0.08760   0.45198   0.00000  Uiso   1.00
H188   H     0.63208   0.13506   0.48287   0.00000  Uiso   1.00
C189   C     0.36477   0.12502   0.47469   0.00000  Uiso   1.00
H190   H     0.36812   0.14641   0.00129   0.00000  Uiso   1.00
H191   H     0.37680   0.14267   0.44865   0.00000  Uiso   1.00
H192   H     0.38466   0.09888   0.47052   0.00000  Uiso   1.00
Br193  Br    0.64069   0.12545   0.30582   0.00000  Uiso   1.00
Br194  Br    0.56904   0.01464   0.21046   0.00000  Uiso   1.00
O195   O     0.44292   0.32571   0.28286   0.00000  Uiso   1.00
C196   C     0.41369   0.01987   0.30756   0.00000  Uiso   1.00
H197   H     0.38142   0.00170   0.31520   0.00000  Uiso   1.00
H198   H     0.40960   0.04563   0.29220   0.00000  Uiso   1.00
C199   C     0.42559   0.03614   0.34626   0.00000  Uiso   1.00
H200   H     0.41922   0.01010   0.36471   0.00000  Uiso   1.00
H201   H     0.46028   0.04773   0.34045   0.00000  Uiso   1.00
C202   C     0.39946   0.07169   0.36903   0.00000  Uiso   1.00
H203   H     0.40669   0.09868   0.35158   0.00000  Uiso   1.00
H204   H     0.40809   0.08219   0.39713   0.00000  Uiso   1.00
H205   H     0.36447   0.06103   0.37573   0.00000  Uiso   1.00
O206   O     0.57379   0.08158   0.10109   0.00000  Uiso   1.00
C207   C     0.55737   0.03867   0.10026   0.00000  Uiso   1.00
H208   H     0.58183   0.02147   0.10553   0.00000  Uiso   1.00
H209   H     0.55229   0.02436   0.07132   0.00000  Uiso   1.00
C210   C     0.51543   0.03203   0.13289   0.00000  Uiso   1.00
H211   H     0.52038   0.04721   0.16156   0.00000  Uiso   1.00
H212   H     0.48976   0.04662   0.12661   0.00000  Uiso   1.00
C213   C     0.50071   0.31891   0.13580   0.00000  Uiso   1.00
H214   H     0.49432   0.30334   0.10774   0.00000  Uiso   1.00
H215   H     0.47063   0.31527   0.16002   0.00000  Uiso   1.00
H216   H     0.52565   0.30338   0.14224   0.00000  Uiso   1.00
O217   O     0.40381   0.26282   0.48277   0.00000  Uiso   1.00
C218   C     0.36741   0.26619   0.46974   0.00000  Uiso   1.00
H219   H     0.33915   0.26723   0.49600   0.00000  Uiso   1.00
H220   H     0.35905   0.23904   0.44908   0.00000  Uiso   1.00
C221   C     0.37348   0.30746   0.45208   0.00000  Uiso   1.00
H222   H     0.37941   0.00062   0.47427   0.00000  Uiso   1.00
H223   H     0.40189   0.30798   0.42602   0.00000  Uiso   1.00
C224   C     0.33395   0.31364   0.43975   0.00000  Uiso   1.00
H225   H     0.66151   0.28821   0.41664   0.00000  Uiso   1.00
H226   H     0.33925   0.01072   0.42766   0.00000  Uiso   1.00
H227   H     0.63845   0.31387   0.46555   0.00000  Uiso   1.00
O228   O     0.51114   0.09807   0.42586   0.00000  Uiso   1.00
C229   C     0.49267   0.05582   0.42669   0.00000  Uiso   1.00
H230   H     0.46210   0.05312   0.41827   0.00000  Uiso   1.00
H231   H     0.48429   0.04420   0.45616   0.00000  Uiso   1.00
C232   C     0.52336   0.02790   0.39636   0.00000  Uiso   1.00
H233   H     0.53029   0.03861   0.36677   0.00000  Uiso   1.00
H234   H     0.55419   0.03051   0.40438   0.00000  Uiso   1.00
C235   C     0.50438   0.31547   0.39427   0.00000  Uiso   1.00
H236   H     0.49620   0.30428   0.42373   0.00000  Uiso   1.00
H237   H     0.52822   0.29598   0.37326   0.00000  Uiso   1.00
H238   H     0.47507   0.31167   0.38369   0.00000  Uiso   1.00
C239   C     0.71946   0.16032   0.25821   0.00000  Uiso   1.00
C240   C     0.77200   0.22365   0.42049   0.00000  Uiso   1.00
C241   C     0.82118   0.17499   0.41976   0.00000  Uiso   1.00
C242   C     0.80838   0.17727   0.46108   0.00000  Uiso   1.00
C243   C     0.77932   0.20686   0.48248   0.00000  Uiso   1.00
C244   C     0.82616   0.15291   0.48148   0.00000  Uiso   1.00
C245   C     0.82139   0.16430   0.02253   0.00000  Uiso   1.00
C246   C     0.79213   0.19333   0.04300   0.00000  Uiso   1.00
C247   C     0.76939   0.21240   0.02395   0.00000  Uiso   1.00
C248   C     0.84745   0.11688   0.46280   0.00000  Uiso   1.00
C249   C     0.87224   0.10021   0.48166   0.00000  Uiso   1.00
C250   C     0.94749   0.17334   0.24152   0.00000  Uiso   1.00
C251   C     0.87133   0.11379   0.02089   0.00000  Uiso   1.00
C252   C     0.84484   0.14521   0.04214   0.00000  Uiso   1.00
C253   C     0.89534   0.09495   0.03954   0.00000  Uiso   1.00
C254   C     0.88765   0.10260   0.08093   0.00000  Uiso   1.00
C255   C     0.84317   0.15668   0.08225   0.00000  Uiso   1.00
C256   C     0.99300   0.17524   0.23882   0.00000  Uiso   1.00
C257   C     0.67417   0.15678   0.26317   0.00000  Uiso   1.00
C258   C     0.84810   0.32276   0.24128   0.00000  Uiso   1.00
C259   C     0.81593   0.01218   0.26251   0.00000  Uiso   1.00
C260   C     0.82234   0.05631   0.25888   0.00000  Uiso   1.00
C261   C     0.84344   0.27772   0.24186   0.00000  Uiso   1.00
C262   C     0.85499   0.14469   0.14407   0.00000  Uiso   1.00
C263   C     0.81227   0.18806   0.35621   0.00000  Uiso   1.00
C264   C     0.80158   0.19581   0.39951   0.00000  Uiso   1.00
C265   C     0.86314   0.13501   0.10149   0.00000  Uiso   1.00
C266   C     0.76083   0.23018   0.46198   0.00000  Uiso   1.00
H267   H     0.68241   0.19225   0.21609   0.00000  Uiso   1.00
H268   H     0.82593   0.18187   0.09995   0.00000  Uiso   1.00
H269   H     0.89082   0.07495   0.46567   0.00000  Uiso   1.00
H270   H     0.75909   0.24161   0.40428   0.00000  Uiso   1.00
H271   H     0.84822   0.15885   0.40252   0.00000  Uiso   1.00
H272   H     0.78454   0.20112   0.07448   0.00000  Uiso   1.00
O273   O     0.83333   0.16667   0.25000   0.00000  Uiso   1.00
O274   O     0.84515   0.08101   0.27820   0.00000  Uiso   1.00
O275   O     0.81247   0.26136   0.26767   0.00000  Uiso   1.00
O276   O     0.74119   0.13251   0.23607   0.00000  Uiso   1.00
O277   O     0.93452   0.19179   0.21805   0.00000  Uiso   1.00
O278   O     0.73656   0.18960   0.27820   0.00000  Uiso   1.00
O279   O     0.92106   0.15277   0.26767   0.00000  Uiso   1.00
O280   O     0.80467   0.06903   0.23607   0.00000  Uiso   1.00
O281   O     0.87104   0.25527   0.21805   0.00000  Uiso   1.00
O282   O     0.82360   0.12393   0.16625   0.00000  Uiso   1.00
O283   O     0.79354   0.20646   0.33749   0.00000  Uiso   1.00
O284   O     0.87755   0.17493   0.15877   0.00000  Uiso   1.00
O285   O     0.83865   0.16135   0.33749   0.00000  Uiso   1.00
Zn286  Zn    0.85910   0.14090   0.28277   0.00000  Uiso   1.00
Zn287  Zn    0.80125   0.12378   0.22257   0.00000  Uiso   1.00
Zn288  Zn    0.87833   0.19664   0.21188   0.00000  Uiso   1.00
Zn289  Zn    0.79465   0.20535   0.28277   0.00000  Uiso   1.00
O290   O     0.73965   0.23923   0.04599   0.00000  Uiso   1.00
C291   C     0.70526   0.21767   0.07259   0.00000  Uiso   1.00
H292   H     0.70664   0.22988   0.10312   0.00000  Uiso   1.00
H293   H     0.70594   0.18300   0.06903   0.00000  Uiso   1.00
C294   C     0.99608   0.22613   0.06695   0.00000  Uiso   1.00
H295   H     0.99482   0.26045   0.06957   0.00000  Uiso   1.00
H296   H     0.99395   0.21210   0.03703   0.00000  Uiso   1.00
C297   C     0.95772   0.20729   0.09739   0.00000  Uiso   1.00
H298   H     0.95800   0.17287   0.09492   0.00000  Uiso   1.00
H299   H     0.92750   0.21382   0.09215   0.00000  Uiso   1.00
H300   H     0.95857   0.22132   0.12763   0.00000  Uiso   1.00
O301   O     0.92343   0.06646   0.01765   0.00000  Uiso   1.00
C302   C     0.96655   0.08361   0.01486   0.00000  Uiso   1.00
H303   H     0.98599   0.05712   0.01069   0.00000  Uiso   1.00
H304   H     0.97081   0.10362   0.04210   0.00000  Uiso   1.00
C305   C     0.98432   0.10825   0.47918   0.00000  Uiso   1.00
H306   H     0.98139   0.08760   0.45198   0.00000  Uiso   1.00
H307   H     0.96542   0.13506   0.48287   0.00000  Uiso   1.00
C308   C     0.69810   0.12502   0.47469   0.00000  Uiso   1.00
H309   H     0.70145   0.14641   0.00129   0.00000  Uiso   1.00
H310   H     0.71014   0.14267   0.44865   0.00000  Uiso   1.00
H311   H     0.71799   0.09888   0.47052   0.00000  Uiso   1.00
Br312  Br    0.97402   0.12545   0.30582   0.00000  Uiso   1.00
Br313  Br    0.90237   0.01464   0.21046   0.00000  Uiso   1.00
O314   O     0.77625   0.32571   0.28286   0.00000  Uiso   1.00
C315   C     0.74702   0.01987   0.30756   0.00000  Uiso   1.00
H316   H     0.71476   0.00170   0.31520   0.00000  Uiso   1.00
H317   H     0.74294   0.04563   0.29220   0.00000  Uiso   1.00
C318   C     0.75892   0.03614   0.34626   0.00000  Uiso   1.00
H319   H     0.75255   0.01010   0.36471   0.00000  Uiso   1.00
H320   H     0.79361   0.04773   0.34045   0.00000  Uiso   1.00
C321   C     0.73279   0.07169   0.36903   0.00000  Uiso   1.00
H322   H     0.74002   0.09868   0.35158   0.00000  Uiso   1.00
H323   H     0.74142   0.08219   0.39713   0.00000  Uiso   1.00
H324   H     0.69781   0.06103   0.37573   0.00000  Uiso   1.00
O325   O     0.90712   0.08158   0.10109   0.00000  Uiso   1.00
C326   C     0.89071   0.03867   0.10026   0.00000  Uiso   1.00
H327   H     0.91516   0.02147   0.10553   0.00000  Uiso   1.00
H328   H     0.88563   0.02436   0.07132   0.00000  Uiso   1.00
C329   C     0.84877   0.03203   0.13289   0.00000  Uiso   1.00
H330   H     0.85372   0.04721   0.16156   0.00000  Uiso   1.00
H331   H     0.82310   0.04662   0.12661   0.00000  Uiso   1.00
C332   C     0.83405   0.31891   0.13580   0.00000  Uiso   1.00
H333   H     0.82765   0.30334   0.10774   0.00000  Uiso   1.00
H334   H     0.80396   0.31527   0.16002   0.00000  Uiso   1.00
H335   H     0.85898   0.30338   0.14224   0.00000  Uiso   1.00
O336   O     0.73714   0.26282   0.48277   0.00000  Uiso   1.00
C337   C     0.70074   0.26619   0.46974   0.00000  Uiso   1.00
H338   H     0.67248   0.26723   0.49600   0.00000  Uiso   1.00
H339   H     0.69238   0.23904   0.44908   0.00000  Uiso   1.00
C340   C     0.70682   0.30746   0.45208   0.00000  Uiso   1.00
H341   H     0.71274   0.00062   0.47427   0.00000  Uiso   1.00
H342   H     0.73523   0.30798   0.42602   0.00000  Uiso   1.00
C343   C     0.66729   0.31364   0.43975   0.00000  Uiso   1.00
H344   H     0.99484   0.28821   0.41664   0.00000  Uiso   1.00
H345   H     0.67258   0.01072   0.42766   0.00000  Uiso   1.00
H346   H     0.97178   0.31387   0.46555   0.00000  Uiso   1.00
O347   O     0.84448   0.09807   0.42586   0.00000  Uiso   1.00
C348   C     0.82600   0.05582   0.42669   0.00000  Uiso   1.00
H349   H     0.79543   0.05312   0.41827   0.00000  Uiso   1.00
H350   H     0.81763   0.04420   0.45616   0.00000  Uiso   1.00
C351   C     0.85669   0.02790   0.39636   0.00000  Uiso   1.00
H352   H     0.86362   0.03861   0.36677   0.00000  Uiso   1.00
H353   H     0.88752   0.03051   0.40438   0.00000  Uiso   1.00
C354   C     0.83771   0.31547   0.39427   0.00000  Uiso   1.00
H355   H     0.82954   0.30428   0.42373   0.00000  Uiso   1.00
H356   H     0.86155   0.29598   0.37326   0.00000  Uiso   1.00
H357   H     0.80840   0.31167   0.38369   0.00000  Uiso   1.00
C358   C     0.05279   0.49365   0.25821   0.00000  Uiso   1.00
C359   C     0.10533   0.55698   0.42049   0.00000  Uiso   1.00
C360   C     0.15451   0.50832   0.41976   0.00000  Uiso   1.00
C361   C     0.14172   0.51061   0.46108   0.00000  Uiso   1.00
C362   C     0.11265   0.54019   0.48248   0.00000  Uiso   1.00
C363   C     0.15949   0.48624   0.48148   0.00000  Uiso   1.00
C364   C     0.15473   0.49763   0.02253   0.00000  Uiso   1.00
C365   C     0.12546   0.52667   0.04300   0.00000  Uiso   1.00
C366   C     0.10273   0.54573   0.02395   0.00000  Uiso   1.00
C367   C     0.18078   0.45021   0.46280   0.00000  Uiso   1.00
C368   C     0.20557   0.43354   0.48166   0.00000  Uiso   1.00
C369   C     0.28082   0.50668   0.24152   0.00000  Uiso   1.00
C370   C     0.20466   0.44712   0.02089   0.00000  Uiso   1.00
C371   C     0.17817   0.47854   0.04214   0.00000  Uiso   1.00
C372   C     0.22867   0.42828   0.03954   0.00000  Uiso   1.00
C373   C     0.22098   0.43593   0.08093   0.00000  Uiso   1.00
C374   C     0.17651   0.49001   0.08225   0.00000  Uiso   1.00
C375   C     0.32634   0.50857   0.23882   0.00000  Uiso   1.00
C376   C     0.00750   0.49011   0.26317   0.00000  Uiso   1.00
C377   C     0.18144   0.65609   0.24128   0.00000  Uiso   1.00
C378   C     0.14927   0.34551   0.26251   0.00000  Uiso   1.00
C379   C     0.15567   0.38964   0.25888   0.00000  Uiso   1.00
C380   C     0.17677   0.61106   0.24186   0.00000  Uiso   1.00
C381   C     0.18832   0.47803   0.14407   0.00000  Uiso   1.00
C382   C     0.14560   0.52140   0.35621   0.00000  Uiso   1.00
C383   C     0.13491   0.52914   0.39951   0.00000  Uiso   1.00
C384   C     0.19648   0.46834   0.10149   0.00000  Uiso   1.00
C385   C     0.09417   0.56351   0.46198   0.00000  Uiso   1.00
H386   H     0.01574   0.52559   0.21609   0.00000  Uiso   1.00
H387   H     0.15926   0.51520   0.09995   0.00000  Uiso   1.00
H388   H     0.22415   0.40828   0.46567   0.00000  Uiso   1.00
H389   H     0.09242   0.57494   0.40428   0.00000  Uiso   1.00
H390   H     0.18155   0.49218   0.40252   0.00000  Uiso   1.00
H391   H     0.11788   0.53446   0.07448   0.00000  Uiso   1.00
O392   O     0.16667   0.50000   0.25000   0.00000  Uiso   1.00
O393   O     0.17849   0.41434   0.27820   0.00000  Uiso   1.00
O394   O     0.14581   0.59469   0.26767   0.00000  Uiso   1.00
O395   O     0.07452   0.46584   0.23607   0.00000  Uiso   1.00
O396   O     0.26785   0.52512   0.21805   0.00000  Uiso   1.00
O397   O     0.06990   0.52293   0.27820   0.00000  Uiso   1.00
O398   O     0.25440   0.48610   0.26767   0.00000  Uiso   1.00
O399   O     0.13800   0.40236   0.23607   0.00000  Uiso   1.00
O400   O     0.20437   0.58860   0.21805   0.00000  Uiso   1.00
O401   O     0.15693   0.45726   0.16625   0.00000  Uiso   1.00
O402   O     0.12687   0.53979   0.33749   0.00000  Uiso   1.00
O403   O     0.21088   0.50826   0.15877   0.00000  Uiso   1.00
O404   O     0.17198   0.49468   0.33749   0.00000  Uiso   1.00
Zn405  Zn    0.19244   0.47423   0.28277   0.00000  Uiso   1.00
Zn406  Zn    0.13459   0.45711   0.22257   0.00000  Uiso   1.00
Zn407  Zn    0.21166   0.52997   0.21188   0.00000  Uiso   1.00
Zn408  Zn    0.12798   0.53868   0.28277   0.00000  Uiso   1.00
O409   O     0.07298   0.57256   0.04599   0.00000  Uiso   1.00
C410   C     0.03859   0.55100   0.07259   0.00000  Uiso   1.00
H411   H     0.03997   0.56322   0.10312   0.00000  Uiso   1.00
H412   H     0.03927   0.51633   0.06903   0.00000  Uiso   1.00
C413   C     0.32941   0.55947   0.06695   0.00000  Uiso   1.00
H414   H     0.32816   0.59379   0.06957   0.00000  Uiso   1.00
H415   H     0.32728   0.54544   0.03703   0.00000  Uiso   1.00
C416   C     0.29106   0.54063   0.09739   0.00000  Uiso   1.00
H417   H     0.29133   0.50620   0.09492   0.00000  Uiso   1.00
H418   H     0.26083   0.54715   0.09215   0.00000  Uiso   1.00
H419   H     0.29190   0.55465   0.12763   0.00000  Uiso   1.00
O420   O     0.25677   0.39979   0.01765   0.00000  Uiso   1.00
C421   C     0.29988   0.41694   0.01486   0.00000  Uiso   1.00
H422   H     0.31932   0.39045   0.01069   0.00000  Uiso   1.00
H423   H     0.30415   0.43696   0.04210   0.00000  Uiso   1.00
C424   C     0.31765   0.44158   0.47918   0.00000  Uiso   1.00
H425   H     0.31473   0.42094   0.45198   0.00000  Uiso   1.00
H426   H     0.29875   0.46839   0.48287   0.00000  Uiso   1.00
C427   C     0.03144   0.45835   0.47469   0.00000  Uiso   1.00
H428   H     0.03479   0.47974   0.00129   0.00000  Uiso   1.00
H429   H     0.04347   0.47601   0.44865   0.00000  Uiso   1.00
H430   H     0.05132   0.43222   0.47052   0.00000  Uiso   1.00
Br431  Br    0.30736   0.45878   0.30582   0.00000  Uiso   1.00
Br432  Br    0.23571   0.34797   0.21046   0.00000  Uiso   1.00
O433   O     0.10958   0.65904   0.28286   0.00000  Uiso   1.00
C434   C     0.08036   0.35320   0.30756   0.00000  Uiso   1.00
H435   H     0.04809   0.33503   0.31520   0.00000  Uiso   1.00
H436   H     0.07627   0.37896   0.29220   0.00000  Uiso   1.00
C437   C     0.09225   0.36947   0.34626   0.00000  Uiso   1.00
H438   H     0.08589   0.34343   0.36471   0.00000  Uiso   1.00
H439   H     0.12695   0.38106   0.34045   0.00000  Uiso   1.00
C440   C     0.06613   0.40502   0.36903   0.00000  Uiso   1.00
H441   H     0.07336   0.43201   0.35158   0.00000  Uiso   1.00
H442   H     0.07475   0.41553   0.39713   0.00000  Uiso   1.00
H443   H     0.03114   0.39436   0.37573   0.00000  Uiso   1.00
O444   O     0.24046   0.41491   0.10109   0.00000  Uiso   1.00
C445   C     0.22404   0.37200   0.10026   0.00000  Uiso   1.00
H446   H     0.24849   0.35481   0.10553   0.00000  Uiso   1.00
H447   H     0.21896   0.35770   0.07132   0.00000  Uiso   1.00
C448   C     0.18210   0.36536   0.13289   0.00000  Uiso   1.00
H449   H     0.18705   0.38055   0.16156   0.00000  Uiso   1.00
H450   H     0.15643   0.37995   0.12661   0.00000  Uiso   1.00
C451   C     0.16738   0.65224   0.13580   0.00000  Uiso   1.00
H452   H     0.16099   0.63668   0.10774   0.00000  Uiso   1.00
H453   H     0.13730   0.64860   0.16002   0.00000  Uiso   1.00
H454   H     0.19232   0.63672   0.14224   0.00000  Uiso   1.00
O455   O     0.07047   0.59615   0.48277   0.00000  Uiso   1.00
C456   C     0.03407   0.59952   0.46974   0.00000  Uiso   1.00
H457   H     0.00581   0.60056   0.49600   0.00000  Uiso   1.00
H458   H     0.02571   0.57237   0.44908   0.00000  Uiso   1.00
C459   C     0.04015   0.64080   0.45208   0.00000  Uiso   1.00
H460   H     0.04607   0.33396   0.47427   0.00000  Uiso   1.00
H461   H     0.06856   0.64131   0.42602   0.00000  Uiso   1.00
C462   C     0.00062   0.64697   0.43975   0.00000  Uiso   1.00
H463   H     0.32817   0.62154   0.41664   0.00000  Uiso   1.00
H464   H     0.00592   0.34405   0.42766   0.00000  Uiso   1.00
H465   H     0.30511   0.64720   0.46555   0.00000  Uiso   1.00
O466   O     0.17781   0.43140   0.42586   0.00000  Uiso   1.00
C467   C     0.15934   0.38915   0.42669   0.00000  Uiso   1.00
H468   H     0.12876   0.38645   0.41827   0.00000  Uiso   1.00
H469   H     0.15096   0.37754   0.45616   0.00000  Uiso   1.00
C470   C     0.19003   0.36123   0.39636   0.00000  Uiso   1.00
H471   H     0.19696   0.37195   0.36677   0.00000  Uiso   1.00
H472   H     0.22086   0.36385   0.40438   0.00000  Uiso   1.00
C473   C     0.17104   0.64881   0.39427   0.00000  Uiso   1.00
H474   H     0.16287   0.63762   0.42373   0.00000  Uiso   1.00
H475   H     0.19488   0.62932   0.37326   0.00000  Uiso   1.00
H476   H     0.14174   0.64500   0.38369   0.00000  Uiso   1.00
C477   C     0.38612   0.49365   0.25821   0.00000  Uiso   1.00
C478   C     0.43866   0.55698   0.42049   0.00000  Uiso   1.00
C479   C     0.48785   0.50832   0.41976   0.00000  Uiso   1.00
C480   C     0.47505   0.51061   0.46108   0.00000  Uiso   1.00
C481   C     0.44599   0.54019   0.48248   0.00000  Uiso   1.00
C482   C     0.49282   0.48624   0.48148   0.00000  Uiso   1.00
C483   C     0.48806   0.49763   0.02253   0.00000  Uiso   1.00
C484   C     0.45880   0.52667   0.04300   0.00000  Uiso   1.00
C485   C     0.43606   0.54573   0.02395   0.00000  Uiso   1.00
C486   C     0.51411   0.45021   0.46280   0.00000  Uiso   1.00
C487   C     0.53890   0.43354   0.48166   0.00000  Uiso   1.00
C488   C     0.61416   0.50668   0.24152   0.00000  Uiso   1.00
C489   C     0.53799   0.44712   0.02089   0.00000  Uiso   1.00
C490   C     0.51151   0.47854   0.04214   0.00000  Uiso   1.00
C491   C     0.56201   0.42828   0.03954   0.00000  Uiso   1.00
C492   C     0.55432   0.43593   0.08093   0.00000  Uiso   1.00
C493   C     0.50984   0.49001   0.08225   0.00000  Uiso   1.00
C494   C     0.65967   0.50857   0.23882   0.00000  Uiso   1.00
C495   C     0.34084   0.49011   0.26317   0.00000  Uiso   1.00
C496   C     0.51477   0.65609   0.24128   0.00000  Uiso   1.00
C497   C     0.48260   0.34551   0.26251   0.00000  Uiso   1.00
C498   C     0.48900   0.38964   0.25888   0.00000  Uiso   1.00
C499   C     0.51011   0.61106   0.24186   0.00000  Uiso   1.00
C500   C     0.52166   0.47803   0.14407   0.00000  Uiso   1.00
C501   C     0.47894   0.52140   0.35621   0.00000  Uiso   1.00
C502   C     0.46824   0.52914   0.39951   0.00000  Uiso   1.00
C503   C     0.52981   0.46834   0.10149   0.00000  Uiso   1.00
C504   C     0.42750   0.56351   0.46198   0.00000  Uiso   1.00
H505   H     0.34908   0.52559   0.21609   0.00000  Uiso   1.00
H506   H     0.49260   0.51520   0.09995   0.00000  Uiso   1.00
H507   H     0.55749   0.40828   0.46567   0.00000  Uiso   1.00
H508   H     0.42575   0.57494   0.40428   0.00000  Uiso   1.00
H509   H     0.51488   0.49218   0.40252   0.00000  Uiso   1.00
H510   H     0.45121   0.53446   0.07448   0.00000  Uiso   1.00
O511   O     0.50000   0.50000   0.25000   0.00000  Uiso   1.00
O512   O     0.51182   0.41434   0.27820   0.00000  Uiso   1.00
O513   O     0.47914   0.59469   0.26767   0.00000  Uiso   1.00
O514   O     0.40785   0.46584   0.23607   0.00000  Uiso   1.00
O515   O     0.60119   0.52512   0.21805   0.00000  Uiso   1.00
O516   O     0.40323   0.52293   0.27820   0.00000  Uiso   1.00
O517   O     0.58773   0.48610   0.26767   0.00000  Uiso   1.00
O518   O     0.47133   0.40236   0.23607   0.00000  Uiso   1.00
O519   O     0.53771   0.58860   0.21805   0.00000  Uiso   1.00
O520   O     0.49027   0.45726   0.16625   0.00000  Uiso   1.00
O521   O     0.46020   0.53979   0.33749   0.00000  Uiso   1.00
O522   O     0.54421   0.50826   0.15877   0.00000  Uiso   1.00
O523   O     0.50532   0.49468   0.33749   0.00000  Uiso   1.00
Zn524  Zn    0.52577   0.47423   0.28277   0.00000  Uiso   1.00
Zn525  Zn    0.46792   0.45711   0.22257   0.00000  Uiso   1.00
Zn526  Zn    0.54500   0.52997   0.21188   0.00000  Uiso   1.00
Zn527  Zn    0.46131   0.53868   0.28277   0.00000  Uiso   1.00
O528   O     0.40631   0.57256   0.04599   0.00000  Uiso   1.00
C529   C     0.37193   0.55100   0.07259   0.00000  Uiso   1.00
H530   H     0.37330   0.56322   0.10312   0.00000  Uiso   1.00
H531   H     0.37261   0.51633   0.06903   0.00000  Uiso   1.00
C532   C     0.66275   0.55947   0.06695   0.00000  Uiso   1.00
H533   H     0.66149   0.59379   0.06957   0.00000  Uiso   1.00
H534   H     0.66061   0.54544   0.03703   0.00000  Uiso   1.00
C535   C     0.62439   0.54063   0.09739   0.00000  Uiso   1.00
H536   H     0.62466   0.50620   0.09492   0.00000  Uiso   1.00
H537   H     0.59416   0.54715   0.09215   0.00000  Uiso   1.00
H538   H     0.62524   0.55465   0.12763   0.00000  Uiso   1.00
O539   O     0.59010   0.39979   0.01765   0.00000  Uiso   1.00
C540   C     0.63322   0.41694   0.01486   0.00000  Uiso   1.00
H541   H     0.65265   0.39045   0.01069   0.00000  Uiso   1.00
H542   H     0.63748   0.43696   0.04210   0.00000  Uiso   1.00
C543   C     0.65099   0.44158   0.47918   0.00000  Uiso   1.00
H544   H     0.64806   0.42094   0.45198   0.00000  Uiso   1.00
H545   H     0.63208   0.46839   0.48287   0.00000  Uiso   1.00
C546   C     0.36477   0.45835   0.47469   0.00000  Uiso   1.00
H547   H     0.36812   0.47974   0.00129   0.00000  Uiso   1.00
H548   H     0.37680   0.47601   0.44865   0.00000  Uiso   1.00
H549   H     0.38466   0.43222   0.47052   0.00000  Uiso   1.00
Br550  Br    0.64069   0.45878   0.30582   0.00000  Uiso   1.00
Br551  Br    0.56904   0.34797   0.21046   0.00000  Uiso   1.00
O552   O     0.44292   0.65904   0.28286   0.00000  Uiso   1.00
C553   C     0.41369   0.35320   0.30756   0.00000  Uiso   1.00
H554   H     0.38142   0.33503   0.31520   0.00000  Uiso   1.00
H555   H     0.40960   0.37896   0.29220   0.00000  Uiso   1.00
C556   C     0.42559   0.36947   0.34626   0.00000  Uiso   1.00
H557   H     0.41922   0.34343   0.36471   0.00000  Uiso   1.00
H558   H     0.46028   0.38106   0.34045   0.00000  Uiso   1.00
C559   C     0.39946   0.40502   0.36903   0.00000  Uiso   1.00
H560   H     0.40669   0.43201   0.35158   0.00000  Uiso   1.00
H561   H     0.40809   0.41553   0.39713   0.00000  Uiso   1.00
H562   H     0.36447   0.39436   0.37573   0.00000  Uiso   1.00
O563   O     0.57379   0.41491   0.10109   0.00000  Uiso   1.00
C564   C     0.55737   0.37200   0.10026   0.00000  Uiso   1.00
H565   H     0.58183   0.35481   0.10553   0.00000  Uiso   1.00
H566   H     0.55229   0.35770   0.07132   0.00000  Uiso   1.00
C567   C     0.51543   0.36536   0.13289   0.00000  Uiso   1.00
H568   H     0.52038   0.38055   0.16156   0.00000  Uiso   1.00
H569   H     0.48976   0.37995   0.12661   0.00000  Uiso   1.00
C570   C     0.50071   0.65224   0.13580   0.00000  Uiso   1.00
H571   H     0.49432   0.63668   0.10774   0.00000  Uiso   1.00
H572   H     0.47063   0.64860   0.16002   0.00000  Uiso   1.00
H573   H     0.52565   0.63672   0.14224   0.00000  Uiso   1.00
O574   O     0.40381   0.59615   0.48277   0.00000  Uiso   1.00
C575   C     0.36741   0.59952   0.46974   0.00000  Uiso   1.00
H576   H     0.33915   0.60056   0.49600   0.00000  Uiso   1.00
H577   H     0.35905   0.57237   0.44908   0.00000  Uiso   1.00
C578   C     0.37348   0.64080   0.45208   0.00000  Uiso   1.00
H579   H     0.37941   0.33396   0.47427   0.00000  Uiso   1.00
H580   H     0.40189   0.64131   0.42602   0.00000  Uiso   1.00
C581   C     0.33395   0.64697   0.43975   0.00000  Uiso   1.00
H582   H     0.66151   0.62154   0.41664   0.00000  Uiso   1.00
H583   H     0.33925   0.34405   0.42766   0.00000  Uiso   1.00
H584   H     0.63845   0.64720   0.46555   0.00000  Uiso   1.00
O585   O     0.51114   0.43140   0.42586   0.00000  Uiso   1.00
C586   C     0.49267   0.38915   0.42669   0.00000  Uiso   1.00
H587   H     0.46210   0.38645   0.41827   0.00000  Uiso   1.00
H588   H     0.48429   0.37754   0.45616   0.00000  Uiso   1.00
C589   C     0.52336   0.36123   0.39636   0.00000  Uiso   1.00
H590   H     0.53029   0.37195   0.36677   0.00000  Uiso   1.00
H591   H     0.55419   0.36385   0.40438   0.00000  Uiso   1.00
C592   C     0.50438   0.64881   0.39427   0.00000  Uiso   1.00
H593   H     0.49620   0.63762   0.42373   0.00000  Uiso   1.00
H594   H     0.52822   0.62932   0.37326   0.00000  Uiso   1.00
H595   H     0.47507   0.64500   0.38369   0.00000  Uiso   1.00
C596   C     0.71946   0.49365   0.25821   0.00000  Uiso   1.00
C597   C     0.77200   0.55698   0.42049   0.00000  Uiso   1.00
C598   C     0.82118   0.50832   0.41976   0.00000  Uiso   1.00
C599   C     0.80838   0.51061   0.46108   0.00000  Uiso   1.00
C600   C     0.77932   0.54019   0.48248   0.00000  Uiso   1.00
C601   C     0.82616   0.48624   0.48148   0.00000  Uiso   1.00
C602   C     0.82139   0.49763   0.02253   0.00000  Uiso   1.00
C603   C     0.79213   0.52667   0.04300   0.00000  Uiso   1.00
C604   C     0.76939   0.54573   0.02395   0.00000  Uiso   1.00
C605   C     0.84745   0.45021   0.46280   0.00000  Uiso   1.00
C606   C     0.87224   0.43354   0.48166   0.00000  Uiso   1.00
C607   C     0.94749   0.50668   0.24152   0.00000  Uiso   1.00
C608   C     0.87133   0.44712   0.02089   0.00000  Uiso   1.00
C609   C     0.84484   0.47854   0.04214   0.00000  Uiso   1.00
C610   C     0.89534   0.42828   0.03954   0.00000  Uiso   1.00
C611   C     0.88765   0.43593   0.08093   0.00000  Uiso   1.00
C612   C     0.84317   0.49001   0.08225   0.00000  Uiso   1.00
C613   C     0.99300   0.50857   0.23882   0.00000  Uiso   1.00
C614   C     0.67417   0.49011   0.26317   0.00000  Uiso   1.00
C615   C     0.84810   0.65609   0.24128   0.00000  Uiso   1.00
C616   C     0.81593   0.34551   0.26251   0.00000  Uiso   1.00
C617   C     0.82234   0.38964   0.25888   0.00000  Uiso   1.00
C618   C     0.84344   0.61106   0.24186   0.00000  Uiso   1.00
C619   C     0.85499   0.47803   0.14407   0.00000  Uiso   1.00
C620   C     0.81227   0.52140   0.35621   0.00000  Uiso   1.00
C621   C     0.80158   0.52914   0.39951   0.00000  Uiso   1.00
C622   C     0.86314   0.46834   0.10149   0.00000  Uiso   1.00
C623   C     0.76083   0.56351   0.46198   0.00000  Uiso   1.00
H624   H     0.68241   0.52559   0.21609   0.00000  Uiso   1.00
H625   H     0.82593   0.51520   0.09995   0.00000  Uiso   1.00
H626   H     0.89082   0.40828   0.46567   0.00000  Uiso   1.00
H627   H     0.75909   0.57494   0.40428   0.00000  Uiso   1.00
H628   H     0.84822   0.49218   0.40252   0.00000  Uiso   1.00
H629   H     0.78454   0.53446   0.07448   0.00000  Uiso   1.00
O630   O     0.83333   0.50000   0.25000   0.00000  Uiso   1.00
O631   O     0.84515   0.41434   0.27820   0.00000  Uiso   1.00
O632   O     0.81247   0.59469   0.26767   0.00000  Uiso   1.00
O633   O     0.74119   0.46584   0.23607   0.00000  Uiso   1.00
O634   O     0.93452   0.52512   0.21805   0.00000  Uiso   1.00
O635   O     0.73656   0.52293   0.27820   0.00000  Uiso   1.00
O636   O     0.92106   0.48610   0.26767   0.00000  Uiso   1.00
O637   O     0.80467   0.40236   0.23607   0.00000  Uiso   1.00
O638   O     0.87104   0.58860   0.21805   0.00000  Uiso   1.00
O639   O     0.82360   0.45726   0.16625   0.00000  Uiso   1.00
O640   O     0.79354   0.53979   0.33749   0.00000  Uiso   1.00
O641   O     0.87755   0.50826   0.15877   0.00000  Uiso   1.00
O642   O     0.83865   0.49468   0.33749   0.00000  Uiso   1.00
Zn643  Zn    0.85910   0.47423   0.28277   0.00000  Uiso   1.00
Zn644  Zn    0.80125   0.45711   0.22257   0.00000  Uiso   1.00
Zn645  Zn    0.87833   0.52997   0.21188   0.00000  Uiso   1.00
Zn646  Zn    0.79465   0.53868   0.28277   0.00000  Uiso   1.00
O647   O     0.73965   0.57256   0.04599   0.00000  Uiso   1.00
C648   C     0.70526   0.55100   0.07259   0.00000  Uiso   1.00
H649   H     0.70664   0.56322   0.10312   0.00000  Uiso   1.00
H650   H     0.70594   0.51633   0.06903   0.00000  Uiso   1.00
C651   C     0.99608   0.55947   0.06695   0.00000  Uiso   1.00
H652   H     0.99482   0.59379   0.06957   0.00000  Uiso   1.00
H653   H     0.99395   0.54544   0.03703   0.00000  Uiso   1.00
C654   C     0.95772   0.54063   0.09739   0.00000  Uiso   1.00
H655   H     0.95800   0.50620   0.09492   0.00000  Uiso   1.00
H656   H     0.92750   0.54715   0.09215   0.00000  Uiso   1.00
H657   H     0.95857   0.55465   0.12763   0.00000  Uiso   1.00
O658   O     0.92343   0.39979   0.01765   0.00000  Uiso   1.00
C659   C     0.96655   0.41694   0.01486   0.00000  Uiso   1.00
H660   H     0.98599   0.39045   0.01069   0.00000  Uiso   1.00
H661   H     0.97081   0.43696   0.04210   0.00000  Uiso   1.00
C662   C     0.98432   0.44158   0.47918   0.00000  Uiso   1.00
H663   H     0.98139   0.42094   0.45198   0.00000  Uiso   1.00
H664   H     0.96542   0.46839   0.48287   0.00000  Uiso   1.00
C665   C     0.69810   0.45835   0.47469   0.00000  Uiso   1.00
H666   H     0.70145   0.47974   0.00129   0.00000  Uiso   1.00
H667   H     0.71014   0.47601   0.44865   0.00000  Uiso   1.00
H668   H     0.71799   0.43222   0.47052   0.00000  Uiso   1.00
Br669  Br    0.97402   0.45878   0.30582   0.00000  Uiso   1.00
Br670  Br    0.90237   0.34797   0.21046   0.00000  Uiso   1.00
O671   O     0.77625   0.65904   0.28286   0.00000  Uiso   1.00
C672   C     0.74702   0.35320   0.30756   0.00000  Uiso   1.00
H673   H     0.71476   0.33503   0.31520   0.00000  Uiso   1.00
H674   H     0.74294   0.37896   0.29220   0.00000  Uiso   1.00
C675   C     0.75892   0.36947   0.34626   0.00000  Uiso   1.00
H676   H     0.75255   0.34343   0.36471   0.00000  Uiso   1.00
H677   H     0.79361   0.38106   0.34045   0.00000  Uiso   1.00
C678   C     0.73279   0.40502   0.36903   0.00000  Uiso   1.00
H679   H     0.74002   0.43201   0.35158   0.00000  Uiso   1.00
H680   H     0.74142   0.41553   0.39713   0.00000  Uiso   1.00
H681   H     0.69781   0.39436   0.37573   0.00000  Uiso   1.00
O682   O     0.90712   0.41491   0.10109   0.00000  Uiso   1.00
C683   C     0.89071   0.37200   0.10026   0.00000  Uiso   1.00
H684   H     0.91516   0.35481   0.10553   0.00000  Uiso   1.00
H685   H     0.88563   0.35770   0.07132   0.00000  Uiso   1.00
C686   C     0.84877   0.36536   0.13289   0.00000  Uiso   1.00
H687   H     0.85372   0.38055   0.16156   0.00000  Uiso   1.00
H688   H     0.82310   0.37995   0.12661   0.00000  Uiso   1.00
C689   C     0.83405   0.65224   0.13580   0.00000  Uiso   1.00
H690   H     0.82765   0.63668   0.10774   0.00000  Uiso   1.00
H691   H     0.80396   0.64860   0.16002   0.00000  Uiso   1.00
H692   H     0.85898   0.63672   0.14224   0.00000  Uiso   1.00
O693   O     0.73714   0.59615   0.48277   0.00000  Uiso   1.00
C694   C     0.70074   0.59952   0.46974   0.00000  Uiso   1.00
H695   H     0.67248   0.60056   0.49600   0.00000  Uiso   1.00
H696   H     0.69238   0.57237   0.44908   0.00000  Uiso   1.00
C697   C     0.70682   0.64080   0.45208   0.00000  Uiso   1.00
H698   H     0.71274   0.33396   0.47427   0.00000  Uiso   1.00
H699   H     0.73523   0.64131   0.42602   0.00000  Uiso   1.00
C700   C     0.66729   0.64697   0.43975   0.00000  Uiso   1.00
H701   H     0.99484   0.62154   0.41664   0.00000  Uiso   1.00
H702   H     0.67258   0.34405   0.42766   0.00000  Uiso   1.00
H703   H     0.97178   0.64720   0.46555   0.00000  Uiso   1.00
O704   O     0.84448   0.43140   0.42586   0.00000  Uiso   1.00
C705   C     0.82600   0.38915   0.42669   0.00000  Uiso   1.00
H706   H     0.79543   0.38645   0.41827   0.00000  Uiso   1.00
H707   H     0.81763   0.37754   0.45616   0.00000  Uiso   1.00
C708   C     0.85669   0.36123   0.39636   0.00000  Uiso   1.00
H709   H     0.86362   0.37195   0.36677   0.00000  Uiso   1.00
H710   H     0.88752   0.36385   0.40438   0.00000  Uiso   1.00
C711   C     0.83771   0.64881   0.39427   0.00000  Uiso   1.00
H712   H     0.82954   0.63762   0.42373   0.00000  Uiso   1.00
H713   H     0.86155   0.62932   0.37326   0.00000  Uiso   1.00
H714   H     0.80840   0.64500   0.38369   0.00000  Uiso   1.00
C715   C     0.05279   0.82699   0.25821   0.00000  Uiso   1.00
C716   C     0.10533   0.89032   0.42049   0.00000  Uiso   1.00
C717   C     0.15451   0.84166   0.41976   0.00000  Uiso   1.00
C718   C     0.14172   0.84394   0.46108   0.00000  Uiso   1.00
C719   C     0.11265   0.87352   0.48248   0.00000  Uiso   1.00
C720   C     0.15949   0.81957   0.48148   0.00000  Uiso   1.00
C721   C     0.15473   0.83097   0.02253   0.00000  Uiso   1.00
C722   C     0.12546   0.86000   0.04300   0.00000  Uiso   1.00
C723   C     0.10273   0.87906   0.02395   0.00000  Uiso   1.00
C724   C     0.18078   0.78354   0.46280   0.00000  Uiso   1.00
C725   C     0.20557   0.76688   0.48166   0.00000  Uiso   1.00
C726   C     0.28082   0.84001   0.24152   0.00000  Uiso   1.00
C727   C     0.20466   0.78046   0.02089   0.00000  Uiso   1.00
C728   C     0.17817   0.81187   0.04214   0.00000  Uiso   1.00
C729   C     0.22867   0.76162   0.03954   0.00000  Uiso   1.00
C730   C     0.22098   0.76927   0.08093   0.00000  Uiso   1.00
C731   C     0.17651   0.82335   0.08225   0.00000  Uiso   1.00
C732   C     0.32634   0.84190   0.23882   0.00000  Uiso   1.00
C733   C     0.00750   0.82345   0.26317   0.00000  Uiso   1.00
C734   C     0.18144   0.98943   0.24128   0.00000  Uiso   1.00
C735   C     0.14927   0.67885   0.26251   0.00000  Uiso   1.00
C736   C     0.15567   0.72297   0.25888   0.00000  Uiso   1.00
C737   C     0.17677   0.94439   0.24186   0.00000  Uiso   1.00
C738   C     0.18832   0.81136   0.14407   0.00000  Uiso   1.00
C739   C     0.14560   0.85473   0.35621   0.00000  Uiso   1.00
C740   C     0.13491   0.86248   0.39951   0.00000  Uiso   1.00
C741   C     0.19648   0.80168   0.10149   0.00000  Uiso   1.00
C742   C     0.09417   0.89684   0.46198   0.00000  Uiso   1.00
H743   H     0.01574   0.85892   0.21609   0.00000  Uiso   1.00
H744   H     0.15926   0.84854   0.09995   0.00000  Uiso   1.00
H745   H     0.22415   0.74162   0.46567   0.00000  Uiso   1.00
H746   H     0.09242   0.90827   0.40428   0.00000  Uiso   1.00
H747   H     0.18155   0.82552   0.40252   0.00000  Uiso   1.00
H748   H     0.11788   0.86779   0.07448   0.00000  Uiso   1.00
O749   O     0.16667   0.83333   0.25000   0.00000  Uiso   1.00
O750   O     0.17849   0.74768   0.27820   0.00000  Uiso   1.00
O751   O     0.14581   0.92803   0.26767   0.00000  Uiso   1.00
O752   O     0.07452   0.79917   0.23607   0.00000  Uiso   1.00
O753   O     0.26785   0.85845   0.21805   0.00000  Uiso   1.00
O754   O     0.06990   0.85627   0.27820   0.00000  Uiso   1.00
O755   O     0.25440   0.81944   0.26767   0.00000  Uiso   1.00
O756   O     0.13800   0.73570   0.23607   0.00000  Uiso   1.00
O757   O     0.20437   0.92193   0.21805   0.00000  Uiso   1.00
O758   O     0.15693   0.79060   0.16625   0.00000  Uiso   1.00
O759   O     0.12687   0.87313   0.33749   0.00000  Uiso   1.00
O760   O     0.21088   0.84159   0.15877   0.00000  Uiso   1.00
O761   O     0.17198   0.82802   0.33749   0.00000  Uiso   1.00
Zn762  Zn    0.19244   0.80756   0.28277   0.00000  Uiso   1.00
Zn763  Zn    0.13459   0.79044   0.22257   0.00000  Uiso   1.00
Zn764  Zn    0.21166   0.86331   0.21188   0.00000  Uiso   1.00
Zn765  Zn    0.12798   0.87202   0.28277   0.00000  Uiso   1.00
O766   O     0.07298   0.90589   0.04599   0.00000  Uiso   1.00
C767   C     0.03859   0.88433   0.07259   0.00000  Uiso   1.00
H768   H     0.03997   0.89655   0.10312   0.00000  Uiso   1.00
H769   H     0.03927   0.84966   0.06903   0.00000  Uiso   1.00
C770   C     0.32941   0.89280   0.06695   0.00000  Uiso   1.00
H771   H     0.32816   0.92712   0.06957   0.00000  Uiso   1.00
H772   H     0.32728   0.87877   0.03703   0.00000  Uiso   1.00
C773   C     0.29106   0.87396   0.09739   0.00000  Uiso   1.00
H774   H     0.29133   0.83954   0.09492   0.00000  Uiso   1.00
H775   H     0.26083   0.88049   0.09215   0.00000  Uiso   1.00
H776   H     0.29190   0.88799   0.12763   0.00000  Uiso   1.00
O777   O     0.25677   0.73313   0.01765   0.00000  Uiso   1.00
C778   C     0.29988   0.75027   0.01486   0.00000  Uiso   1.00
H779   H     0.31932   0.72378   0.01069   0.00000  Uiso   1.00
H780   H     0.30415   0.77029   0.04210   0.00000  Uiso   1.00
C781   C     0.31765   0.77492   0.47918   0.00000  Uiso   1.00
H782   H     0.31473   0.75427   0.45198   0.00000  Uiso   1.00
H783   H     0.29875   0.80173   0.48287   0.00000  Uiso   1.00
C784   C     0.03144   0.79169   0.47469   0.00000  Uiso   1.00
H785   H     0.03479   0.81307   0.00129   0.00000  Uiso   1.00
H786   H     0.04347   0.80934   0.44865   0.00000  Uiso   1.00
H787   H     0.05132   0.76555   0.47052   0.00000  Uiso   1.00
Br788  Br    0.30736   0.79211   0.30582   0.00000  Uiso   1.00
Br789  Br    0.23571   0.68130   0.21046   0.00000  Uiso   1.00
O790   O     0.10958   0.99237   0.28286   0.00000  Uiso   1.00
C791   C     0.08036   0.68654   0.30756   0.00000  Uiso   1.00
H792   H     0.04809   0.66836   0.31520   0.00000  Uiso   1.00
H793   H     0.07627   0.71230   0.29220   0.00000  Uiso   1.00
C794   C     0.09225   0.70281   0.34626   0.00000  Uiso   1.00
H795   H     0.08589   0.67677   0.36471   0.00000  Uiso   1.00
H796   H     0.12695   0.71439   0.34045   0.00000  Uiso   1.00
C797   C     0.06613   0.73835   0.36903   0.00000  Uiso   1.00
H798   H     0.07336   0.76534   0.35158   0.00000  Uiso   1.00
H799   H     0.07475   0.74886   0.39713   0.00000  Uiso   1.00
H800   H     0.03114   0.72769   0.37573   0.00000  Uiso   1.00
O801   O     0.24046   0.74824   0.10109   0.00000  Uiso   1.00
C802   C     0.22404   0.70534   0.10026   0.00000  Uiso   1.00
H803   H     0.24849   0.68814   0.10553   0.00000  Uiso   1.00
H804   H     0.21896   0.69103   0.07132   0.00000  Uiso   1.00
C805   C     0.18210   0.69870   0.13289   0.00000  Uiso   1.00
H806   H     0.18705   0.71388   0.16156   0.00000  Uiso   1.00
H807   H     0.15643   0.71328   0.12661   0.00000  Uiso   1.00
C808   C     0.16738   0.98557   0.13580   0.00000  Uiso   1.00
H809   H     0.16099   0.97001   0.10774   0.00000  Uiso   1.00
H810   H     0.13730   0.98194   0.16002   0.00000  Uiso   1.00
H811   H     0.19232   0.97005   0.14224   0.00000  Uiso   1.00
O812   O     0.07047   0.92949   0.48277   0.00000  Uiso   1.00
C813   C     0.03407   0.93286   0.46974   0.00000  Uiso   1.00
H814   H     0.00581   0.93389   0.49600   0.00000  Uiso   1.00
H815   H     0.02571   0.90571   0.44908   0.00000  Uiso   1.00
C816   C     0.04015   0.97413   0.45208   0.00000  Uiso   1.00
H817   H     0.04607   0.66729   0.47427   0.00000  Uiso   1.00
H818   H     0.06856   0.97465   0.42602   0.00000  Uiso   1.00
C819   C     0.00062   0.98030   0.43975   0.00000  Uiso   1.00
H820   H     0.32817   0.95487   0.41664   0.00000  Uiso   1.00
H821   H     0.00592   0.67739   0.42766   0.00000  Uiso   1.00
H822   H     0.30511   0.98053   0.46555   0.00000  Uiso   1.00
O823   O     0.17781   0.76473   0.42586   0.00000  Uiso   1.00
C824   C     0.15934   0.72249   0.42669   0.00000  Uiso   1.00
H825   H     0.12876   0.71978   0.41827   0.00000  Uiso   1.00
H826   H     0.15096   0.71087   0.45616   0.00000  Uiso   1.00
C827   C     0.19003   0.69456   0.39636   0.00000  Uiso   1.00
H828   H     0.19696   0.70528   0.36677   0.00000  Uiso   1.00
H829   H     0.22086   0.69718   0.40438   0.00000  Uiso   1.00
C830   C     0.17104   0.98214   0.39427   0.00000  Uiso   1.00
H831   H     0.16287   0.97095   0.42373   0.00000  Uiso   1.00
H832   H     0.19488   0.96265   0.37326   0.00000  Uiso   1.00
H833   H     0.14174   0.97833   0.38369   0.00000  Uiso   1.00
C834   C     0.38612   0.82699   0.25821   0.00000  Uiso   1.00
C835   C     0.43866   0.89032   0.42049   0.00000  Uiso   1.00
C836   C     0.48785   0.84166   0.41976   0.00000  Uiso   1.00
C837   C     0.47505   0.84394   0.46108   0.00000  Uiso   1.00
C838   C     0.44599   0.87352   0.48248   0.00000  Uiso   1.00
C839   C     0.49282   0.81957   0.48148   0.00000  Uiso   1.00
C840   C     0.48806   0.83097   0.02253   0.00000  Uiso   1.00
C841   C     0.45880   0.86000   0.04300   0.00000  Uiso   1.00
C842   C     0.43606   0.87906   0.02395   0.00000  Uiso   1.00
C843   C     0.51411   0.78354   0.46280   0.00000  Uiso   1.00
C844   C     0.53890   0.76688   0.48166   0.00000  Uiso   1.00
C845   C     0.61416   0.84001   0.24152   0.00000  Uiso   1.00
C846   C     0.53799   0.78046   0.02089   0.00000  Uiso   1.00
C847   C     0.51151   0.81187   0.04214   0.00000  Uiso   1.00
C848   C     0.56201   0.76162   0.03954   0.00000  Uiso   1.00
C849   C     0.55432   0.76927   0.08093   0.00000  Uiso   1.00
C850   C     0.50984   0.82335   0.08225   0.00000  Uiso   1.00
C851   C     0.65967   0.84190   0.23882   0.00000  Uiso   1.00
C852   C     0.34084   0.82345   0.26317   0.00000  Uiso   1.00
C853   C     0.51477   0.98943   0.24128   0.00000  Uiso   1.00
C854   C     0.48260   0.67885   0.26251   0.00000  Uiso   1.00
C855   C     0.48900   0.72297   0.25888   0.00000  Uiso   1.00
C856   C     0.51011   0.94439   0.24186   0.00000  Uiso   1.00
C857   C     0.52166   0.81136   0.14407   0.00000  Uiso   1.00
C858   C     0.47894   0.85473   0.35621   0.00000  Uiso   1.00
C859   C     0.46824   0.86248   0.39951   0.00000  Uiso   1.00
C860   C     0.52981   0.80168   0.10149   0.00000  Uiso   1.00
C861   C     0.42750   0.89684   0.46198   0.00000  Uiso   1.00
H862   H     0.34908   0.85892   0.21609   0.00000  Uiso   1.00
H863   H     0.49260   0.84854   0.09995   0.00000  Uiso   1.00
H864   H     0.55749   0.74162   0.46567   0.00000  Uiso   1.00
H865   H     0.42575   0.90827   0.40428   0.00000  Uiso   1.00
H866   H     0.51488   0.82552   0.40252   0.00000  Uiso   1.00
H867   H     0.45121   0.86779   0.07448   0.00000  Uiso   1.00
O868   O     0.50000   0.83333   0.25000   0.00000  Uiso   1.00
O869   O     0.51182   0.74768   0.27820   0.00000  Uiso   1.00
O870   O     0.47914   0.92803   0.26767   0.00000  Uiso   1.00
O871   O     0.40785   0.79917   0.23607   0.00000  Uiso   1.00
O872   O     0.60119   0.85845   0.21805   0.00000  Uiso   1.00
O873   O     0.40323   0.85627   0.27820   0.00000  Uiso   1.00
O874   O     0.58773   0.81944   0.26767   0.00000  Uiso   1.00
O875   O     0.47133   0.73570   0.23607   0.00000  Uiso   1.00
O876   O     0.53771   0.92193   0.21805   0.00000  Uiso   1.00
O877   O     0.49027   0.79060   0.16625   0.00000  Uiso   1.00
O878   O     0.46020   0.87313   0.33749   0.00000  Uiso   1.00
O879   O     0.54421   0.84159   0.15877   0.00000  Uiso   1.00
O880   O     0.50532   0.82802   0.33749   0.00000  Uiso   1.00
Zn881  Zn    0.52577   0.80756   0.28277   0.00000  Uiso   1.00
Zn882  Zn    0.46792   0.79044   0.22257   0.00000  Uiso   1.00
Zn883  Zn    0.54500   0.86331   0.21188   0.00000  Uiso   1.00
Zn884  Zn    0.46131   0.87202   0.28277   0.00000  Uiso   1.00
O885   O     0.40631   0.90589   0.04599   0.00000  Uiso   1.00
C886   C     0.37193   0.88433   0.07259   0.00000  Uiso   1.00
H887   H     0.37330   0.89655   0.10312   0.00000  Uiso   1.00
H888   H     0.37261   0.84966   0.06903   0.00000  Uiso   1.00
C889   C     0.66275   0.89280   0.06695   0.00000  Uiso   1.00
H890   H     0.66149   0.92712   0.06957   0.00000  Uiso   1.00
H891   H     0.66061   0.87877   0.03703   0.00000  Uiso   1.00
C892   C     0.62439   0.87396   0.09739   0.00000  Uiso   1.00
H893   H     0.62466   0.83954   0.09492   0.00000  Uiso   1.00
H894   H     0.59416   0.88049   0.09215   0.00000  Uiso   1.00
H895   H     0.62524   0.88799   0.12763   0.00000  Uiso   1.00
O896   O     0.59010   0.73313   0.01765   0.00000  Uiso   1.00
C897   C     0.63322   0.75027   0.01486   0.00000  Uiso   1.00
H898   H     0.65265   0.72378   0.01069   0.00000  Uiso   1.00
H899   H     0.63748   0.77029   0.04210   0.00000  Uiso   1.00
C900   C     0.65099   0.77492   0.47918   0.00000  Uiso   1.00
H901   H     0.64806   0.75427   0.45198   0.00000  Uiso   1.00
H902   H     0.63208   0.80173   0.48287   0.00000  Uiso   1.00
C903   C     0.36477   0.79169   0.47469   0.00000  Uiso   1.00
H904   H     0.36812   0.81307   0.00129   0.00000  Uiso   1.00
H905   H     0.37680   0.80934   0.44865   0.00000  Uiso   1.00
H906   H     0.38466   0.76555   0.47052   0.00000  Uiso   1.00
Br907  Br    0.64069   0.79211   0.30582   0.00000  Uiso   1.00
Br908  Br    0.56904   0.68130   0.21046   0.00000  Uiso   1.00
O909   O     0.44292   0.99237   0.28286   0.00000  Uiso   1.00
C910   C     0.41369   0.68654   0.30756   0.00000  Uiso   1.00
H911   H     0.38142   0.66836   0.31520   0.00000  Uiso   1.00
H912   H     0.40960   0.71230   0.29220   0.00000  Uiso   1.00
C913   C     0.42559   0.70281   0.34626   0.00000  Uiso   1.00
H914   H     0.41922   0.67677   0.36471   0.00000  Uiso   1.00
H915   H     0.46028   0.71439   0.34045   0.00000  Uiso   1.00
C916   C     0.39946   0.73835   0.36903   0.00000  Uiso   1.00
H917   H     0.40669   0.76534   0.35158   0.00000  Uiso   1.00
H918   H     0.40809   0.74886   0.39713   0.00000  Uiso   1.00
H919   H     0.36447   0.72769   0.37573   0.00000  Uiso   1.00
O920   O     0.57379   0.74824   0.10109   0.00000  Uiso   1.00
C921   C     0.55737   0.70534   0.10026   0.00000  Uiso   1.00
H922   H     0.58183   0.68814   0.10553   0.00000  Uiso   1.00
H923   H     0.55229   0.69103   0.07132   0.00000  Uiso   1.00
C924   C     0.51543   0.69870   0.13289   0.00000  Uiso   1.00
H925   H     0.52038   0.71388   0.16156   0.00000  Uiso   1.00
H926   H     0.48976   0.71328   0.12661   0.00000  Uiso   1.00
C927   C     0.50071   0.98557   0.13580   0.00000  Uiso   1.00
H928   H     0.49432   0.97001   0.10774   0.00000  Uiso   1.00
H929   H     0.47063   0.98194   0.16002   0.00000  Uiso   1.00
H930   H     0.52565   0.97005   0.14224   0.00000  Uiso   1.00
O931   O     0.40381   0.92949   0.48277   0.00000  Uiso   1.00
C932   C     0.36741   0.93286   0.46974   0.00000  Uiso   1.00
H933   H     0.33915   0.93389   0.49600   0.00000  Uiso   1.00
H934   H     0.35905   0.90571   0.44908   0.00000  Uiso   1.00
C935   C     0.37348   0.97413   0.45208   0.00000  Uiso   1.00
H936   H     0.37941   0.66729   0.47427   0.00000  Uiso   1.00
H937   H     0.40189   0.97465   0.42602   0.00000  Uiso   1.00
C938   C     0.33395   0.98030   0.43975   0.00000  Uiso   1.00
H939   H     0.66151   0.95487   0.41664   0.00000  Uiso   1.00
H940   H     0.33925   0.67739   0.42766   0.00000  Uiso   1.00
H941   H     0.63845   0.98053   0.46555   0.00000  Uiso   1.00
O942   O     0.51114   0.76473   0.42586   0.00000  Uiso   1.00
C943   C     0.49267   0.72249   0.42669   0.00000  Uiso   1.00
H944   H     0.46210   0.71978   0.41827   0.00000  Uiso   1.00
H945   H     0.48429   0.71087   0.45616   0.00000  Uiso   1.00
C946   C     0.52336   0.69456   0.39636   0.00000  Uiso   1.00
H947   H     0.53029   0.70528   0.36677   0.00000  Uiso   1.00
H948   H     0.55419   0.69718   0.40438   0.00000  Uiso   1.00
C949   C     0.50438   0.98214   0.39427   0.00000  Uiso   1.00
H950   H     0.49620   0.97095   0.42373   0.00000  Uiso   1.00
H951   H     0.52822   0.96265   0.37326   0.00000  Uiso   1.00
H952   H     0.47507   0.97833   0.38369   0.00000  Uiso   1.00
C953   C     0.71946   0.82699   0.25821   0.00000  Uiso   1.00
C954   C     0.77200   0.89032   0.42049   0.00000  Uiso   1.00
C955   C     0.82118   0.84166   0.41976   0.00000  Uiso   1.00
C956   C     0.80838   0.84394   0.46108   0.00000  Uiso   1.00
C957   C     0.77932   0.87352   0.48248   0.00000  Uiso   1.00
C958   C     0.82616   0.81957   0.48148   0.00000  Uiso   1.00
C959   C     0.82139   0.83097   0.02253   0.00000  Uiso   1.00
C960   C     0.79213   0.86000   0.04300   0.00000  Uiso   1.00
C961   C     0.76939   0.87906   0.02395   0.00000  Uiso   1.00
C962   C     0.84745   0.78354   0.46280   0.00000  Uiso   1.00
C963   C     0.87224   0.76688   0.48166   0.00000  Uiso   1.00
C964   C     0.94749   0.84001   0.24152   0.00000  Uiso   1.00
C965   C     0.87133   0.78046   0.02089   0.00000  Uiso   1.00
C966   C     0.84484   0.81187   0.04214   0.00000  Uiso   1.00
C967   C     0.89534   0.76162   0.03954   0.00000  Uiso   1.00
C968   C     0.88765   0.76927   0.08093   0.00000  Uiso   1.00
C969   C     0.84317   0.82335   0.08225   0.00000  Uiso   1.00
C970   C     0.99300   0.84190   0.23882   0.00000  Uiso   1.00
C971   C     0.67417   0.82345   0.26317   0.00000  Uiso   1.00
C972   C     0.84810   0.98943   0.24128   0.00000  Uiso   1.00
C973   C     0.81593   0.67885   0.26251   0.00000  Uiso   1.00
C974   C     0.82234   0.72297   0.25888   0.00000  Uiso   1.00
C975   C     0.84344   0.94439   0.24186   0.00000  Uiso   1.00
C976   C     0.85499   0.81136   0.14407   0.00000  Uiso   1.00
C977   C     0.81227   0.85473   0.35621   0.00000  Uiso   1.00
C978   C     0.80158   0.86248   0.39951   0.00000  Uiso   1.00
C979   C     0.86314   0.80168   0.10149   0.00000  Uiso   1.00
C980   C     0.76083   0.89684   0.46198   0.00000  Uiso   1.00
H981   H     0.68241   0.85892   0.21609   0.00000  Uiso   1.00
H982   H     0.82593   0.84854   0.09995   0.00000  Uiso   1.00
H983   H     0.89082   0.74162   0.46567   0.00000  Uiso   1.00
H984   H     0.75909   0.90827   0.40428   0.00000  Uiso   1.00
H985   H     0.84822   0.82552   0.40252   0.00000  Uiso   1.00
H986   H     0.78454   0.86779   0.07448   0.00000  Uiso   1.00
O987   O     0.83333   0.83333   0.25000   0.00000  Uiso   1.00
O988   O     0.84515   0.74768   0.27820   0.00000  Uiso   1.00
O989   O     0.81247   0.92803   0.26767   0.00000  Uiso   1.00
O990   O     0.74119   0.79917   0.23607   0.00000  Uiso   1.00
O991   O     0.93452   0.85845   0.21805   0.00000  Uiso   1.00
O992   O     0.73656   0.85627   0.27820   0.00000  Uiso   1.00
O993   O     0.92106   0.81944   0.26767   0.00000  Uiso   1.00
O994   O     0.80467   0.73570   0.23607   0.00000  Uiso   1.00
O995   O     0.87104   0.92193   0.21805   0.00000  Uiso   1.00
O996   O     0.82360   0.79060   0.16625   0.00000  Uiso   1.00
O997   O     0.79354   0.87313   0.33749   0.00000  Uiso   1.00
O998   O     0.87755   0.84159   0.15877   0.00000  Uiso   1.00
O999   O     0.83865   0.82802   0.33749   0.00000  Uiso   1.00
Zn1000 Zn    0.85910   0.80756   0.28277   0.00000  Uiso   1.00
Zn1001 Zn    0.80125   0.79044   0.22257   0.00000  Uiso   1.00
Zn1002 Zn    0.87833   0.86331   0.21188   0.00000  Uiso   1.00
Zn1003 Zn    0.79465   0.87202   0.28277   0.00000  Uiso   1.00
O1004  O     0.73965   0.90589   0.04599   0.00000  Uiso   1.00
C1005  C     0.70526   0.88433   0.07259   0.00000  Uiso   1.00
H1006  H     0.70664   0.89655   0.10312   0.00000  Uiso   1.00
H1007  H     0.70594   0.84966   0.06903   0.00000  Uiso   1.00
C1008  C     0.99608   0.89280   0.06695   0.00000  Uiso   1.00
H1009  H     0.99482   0.92712   0.06957   0.00000  Uiso   1.00
H1010  H     0.99395   0.87877   0.03703   0.00000  Uiso   1.00
C1011  C     0.95772   0.87396   0.09739   0.00000  Uiso   1.00
H1012  H     0.95800   0.83954   0.09492   0.00000  Uiso   1.00
H1013  H     0.92750   0.88049   0.09215   0.00000  Uiso   1.00
H1014  H     0.95857   0.88799   0.12763   0.00000  Uiso   1.00
O1015  O     0.92343   0.73313   0.01765   0.00000  Uiso   1.00
C1016  C     0.96655   0.75027   0.01486   0.00000  Uiso   1.00
H1017  H     0.98599   0.72378   0.01069   0.00000  Uiso   1.00
H1018  H     0.97081   0.77029   0.04210   0.00000  Uiso   1.00
C1019  C     0.98432   0.77492   0.47918   0.00000  Uiso   1.00
H1020  H     0.98139   0.75427   0.45198   0.00000  Uiso   1.00
H1021  H     0.96542   0.80173   0.48287   0.00000  Uiso   1.00
C1022  C     0.69810   0.79169   0.47469   0.00000  Uiso   1.00
H1023  H     0.70145   0.81307   0.00129   0.00000  Uiso   1.00
H1024  H     0.71014   0.80934   0.44865   0.00000  Uiso   1.00
H1025  H     0.71799   0.76555   0.47052   0.00000  Uiso   1.00
Br1026 Br    0.97402   0.79211   0.30582   0.00000  Uiso   1.00
Br1027 Br    0.90237   0.68130   0.21046   0.00000  Uiso   1.00
O1028  O     0.77625   0.99237   0.28286   0.00000  Uiso   1.00
C1029  C     0.74702   0.68654   0.30756   0.00000  Uiso   1.00
H1030  H     0.71476   0.66836   0.31520   0.00000  Uiso   1.00
H1031  H     0.74294   0.71230   0.29220   0.00000  Uiso   1.00
C1032  C     0.75892   0.70281   0.34626   0.00000  Uiso   1.00
H1033  H     0.75255   0.67677   0.36471   0.00000  Uiso   1.00
H1034  H     0.79361   0.71439   0.34045   0.00000  Uiso   1.00
C1035  C     0.73279   0.73835   0.36903   0.00000  Uiso   1.00
H1036  H     0.74002   0.76534   0.35158   0.00000  Uiso   1.00
H1037  H     0.74142   0.74886   0.39713   0.00000  Uiso   1.00
H1038  H     0.69781   0.72769   0.37573   0.00000  Uiso   1.00
O1039  O     0.90712   0.74824   0.10109   0.00000  Uiso   1.00
C1040  C     0.89071   0.70534   0.10026   0.00000  Uiso   1.00
H1041  H     0.91516   0.68814   0.10553   0.00000  Uiso   1.00
H1042  H     0.88563   0.69103   0.07132   0.00000  Uiso   1.00
C1043  C     0.84877   0.69870   0.13289   0.00000  Uiso   1.00
H1044  H     0.85372   0.71388   0.16156   0.00000  Uiso   1.00
H1045  H     0.82310   0.71328   0.12661   0.00000  Uiso   1.00
C1046  C     0.83405   0.98557   0.13580   0.00000  Uiso   1.00
H1047  H     0.82765   0.97001   0.10774   0.00000  Uiso   1.00
H1048  H     0.80396   0.98194   0.16002   0.00000  Uiso   1.00
H1049  H     0.85898   0.97005   0.14224   0.00000  Uiso   1.00
O1050  O     0.73714   0.92949   0.48277   0.00000  Uiso   1.00
C1051  C     0.70074   0.93286   0.46974   0.00000  Uiso   1.00
H1052  H     0.67248   0.93389   0.49600   0.00000  Uiso   1.00
H1053  H     0.69238   0.90571   0.44908   0.00000  Uiso   1.00
C1054  C     0.70682   0.97413   0.45208   0.00000  Uiso   1.00
H1055  H     0.71274   0.66729   0.47427   0.00000  Uiso   1.00
H1056  H     0.73523   0.97465   0.42602   0.00000  Uiso   1.00
C1057  C     0.66729   0.98030   0.43975   0.00000  Uiso   1.00
H1058  H     0.99484   0.95487   0.41664   0.00000  Uiso   1.00
H1059  H     0.67258   0.67739   0.42766   0.00000  Uiso   1.00
H1060  H     0.97178   0.98053   0.46555   0.00000  Uiso   1.00
O1061  O     0.84448   0.76473   0.42586   0.00000  Uiso   1.00
C1062  C     0.82600   0.72249   0.42669   0.00000  Uiso   1.00
H1063  H     0.79543   0.71978   0.41827   0.00000  Uiso   1.00
H1064  H     0.81763   0.71087   0.45616   0.00000  Uiso   1.00
C1065  C     0.85669   0.69456   0.39636   0.00000  Uiso   1.00
H1066  H     0.86362   0.70528   0.36677   0.00000  Uiso   1.00
H1067  H     0.88752   0.69718   0.40438   0.00000  Uiso   1.00
C1068  C     0.83771   0.98214   0.39427   0.00000  Uiso   1.00
H1069  H     0.82954   0.97095   0.42373   0.00000  Uiso   1.00
H1070  H     0.86155   0.96265   0.37326   0.00000  Uiso   1.00
H1071  H     0.80840   0.97833   0.38369   0.00000  Uiso   1.00
C1072  C     0.05279   0.16032   0.75821   0.00000  Uiso   1.00
C1073  C     0.10533   0.22365   0.92049   0.00000  Uiso   1.00
C1074  C     0.15451   0.17499   0.91976   0.00000  Uiso   1.00
C1075  C     0.14172   0.17727   0.96108   0.00000  Uiso   1.00
C1076  C     0.11265   0.20686   0.98248   0.00000  Uiso   1.00
C1077  C     0.15949   0.15291   0.98148   0.00000  Uiso   1.00
C1078  C     0.15473   0.16430   0.52253   0.00000  Uiso   1.00
C1079  C     0.12546   0.19333   0.54300   0.00000  Uiso   1.00
C1080  C     0.10273   0.21240   0.52395   0.00000  Uiso   1.00
C1081  C     0.18078   0.11688   0.96280   0.00000  Uiso   1.00
C1082  C     0.20557   0.10021   0.98166   0.00000  Uiso   1.00
C1083  C     0.28082   0.17334   0.74152   0.00000  Uiso   1.00
C1084  C     0.20466   0.11379   0.52089   0.00000  Uiso   1.00
C1085  C     0.17817   0.14521   0.54214   0.00000  Uiso   1.00
C1086  C     0.22867   0.09495   0.53954   0.00000  Uiso   1.00
C1087  C     0.22098   0.10260   0.58093   0.00000  Uiso   1.00
C1088  C     0.17651   0.15668   0.58225   0.00000  Uiso   1.00
C1089  C     0.32634   0.17524   0.73882   0.00000  Uiso   1.00
C1090  C     0.00750   0.15678   0.76317   0.00000  Uiso   1.00
C1091  C     0.18144   0.32276   0.74128   0.00000  Uiso   1.00
C1092  C     0.14927   0.01218   0.76251   0.00000  Uiso   1.00
C1093  C     0.15567   0.05631   0.75888   0.00000  Uiso   1.00
C1094  C     0.17677   0.27772   0.74186   0.00000  Uiso   1.00
C1095  C     0.18832   0.14469   0.64407   0.00000  Uiso   1.00
C1096  C     0.14560   0.18806   0.85621   0.00000  Uiso   1.00
C1097  C     0.13491   0.19581   0.89951   0.00000  Uiso   1.00
C1098  C     0.19648   0.13501   0.60149   0.00000  Uiso   1.00
C1099  C     0.09417   0.23018   0.96198   0.00000  Uiso   1.00
H1100  H     0.01574   0.19225   0.71609   0.00000  Uiso   1.00
H1101  H     0.15926   0.18187   0.59995   0.00000  Uiso   1.00
H1102  H     0.22415   0.07495   0.96567   0.00000  Uiso   1.00
H1103  H     0.09242   0.24161   0.90428   0.00000  Uiso   1.00
H1104  H     0.18155   0.15885   0.90252   0.00000  Uiso   1.00
H1105  H     0.11788   0.20112   0.57448   0.00000  Uiso   1.00
O1106  O     0.16667   0.16667   0.75000   0.00000  Uiso   1.00
O1107  O     0.17849   0.08101   0.77820   0.00000  Uiso   1.00
O1108  O     0.14581   0.26136   0.76767   0.00000  Uiso   1.00
O1109  O     0.07452   0.13251   0.73607   0.00000  Uiso   1.00
O1110  O     0.26785   0.19179   0.71805   0.00000  Uiso   1.00
O1111  O     0.06990   0.18960   0.77820   0.00000  Uiso   1.00
O1112  O     0.25440   0.15277   0.76767   0.00000  Uiso   1.00
O1113  O     0.13800   0.06903   0.73607   0.00000  Uiso   1.00
O1114  O     0.20437   0.25527   0.71805   0.00000  Uiso   1.00
O1115  O     0.15693   0.12393   0.66625   0.00000  Uiso   1.00
O1116  O     0.12687   0.20646   0.83749   0.00000  Uiso   1.00
O1117  O     0.21088   0.17493   0.65877   0.00000  Uiso   1.00
O1118  O     0.17198   0.16135   0.83749   0.00000  Uiso   1.00
Zn1119 Zn    0.19244   0.14090   0.78277   0.00000  Uiso   1.00
Zn1120 Zn    0.13459   0.12378   0.72257   0.00000  Uiso   1.00
Zn1121 Zn    0.21166   0.19664   0.71188   0.00000  Uiso   1.00
Zn1122 Zn    0.12798   0.20535   0.78277   0.00000  Uiso   1.00
O1123  O     0.07298   0.23923   0.54599   0.00000  Uiso   1.00
C1124  C     0.03859   0.21767   0.57259   0.00000  Uiso   1.00
H1125  H     0.03997   0.22988   0.60312   0.00000  Uiso   1.00
H1126  H     0.03927   0.18300   0.56903   0.00000  Uiso   1.00
C1127  C     0.32941   0.22613   0.56695   0.00000  Uiso   1.00
H1128  H     0.32816   0.26045   0.56957   0.00000  Uiso   1.00
H1129  H     0.32728   0.21210   0.53703   0.00000  Uiso   1.00
C1130  C     0.29106   0.20729   0.59739   0.00000  Uiso   1.00
H1131  H     0.29133   0.17287   0.59492   0.00000  Uiso   1.00
H1132  H     0.26083   0.21382   0.59215   0.00000  Uiso   1.00
H1133  H     0.29190   0.22132   0.62763   0.00000  Uiso   1.00
O1134  O     0.25677   0.06646   0.51765   0.00000  Uiso   1.00
C1135  C     0.29988   0.08361   0.51486   0.00000  Uiso   1.00
H1136  H     0.31932   0.05712   0.51069   0.00000  Uiso   1.00
H1137  H     0.30415   0.10362   0.54210   0.00000  Uiso   1.00
C1138  C     0.31765   0.10825   0.97918   0.00000  Uiso   1.00
H1139  H     0.31473   0.08760   0.95198   0.00000  Uiso   1.00
H1140  H     0.29875   0.13506   0.98287   0.00000  Uiso   1.00
C1141  C     0.03144   0.12502   0.97469   0.00000  Uiso   1.00
H1142  H     0.03479   0.14641   0.50129   0.00000  Uiso   1.00
H1143  H     0.04347   0.14267   0.94865   0.00000  Uiso   1.00
H1144  H     0.05132   0.09888   0.97052   0.00000  Uiso   1.00
Br1145 Br    0.30736   0.12545   0.80582   0.00000  Uiso   1.00
Br1146 Br    0.23571   0.01464   0.71046   0.00000  Uiso   1.00
O1147  O     0.10958   0.32571   0.78286   0.00000  Uiso   1.00
C1148  C     0.08036   0.01987   0.80756   0.00000  Uiso   1.00
H1149  H     0.04809   0.00170   0.81520   0.00000  Uiso   1.00
H1150  H     0.07627   0.04563   0.79220   0.00000  Uiso   1.00
C1151  C     0.09225   0.03614   0.84626   0.00000  Uiso   1.00
H1152  H     0.08589   0.01010   0.86471   0.00000  Uiso   1.00
H1153  H     0.12695   0.04773   0.84045   0.00000  Uiso   1.00
C1154  C     0.06613   0.07169   0.86903   0.00000  Uiso   1.00
H1155  H     0.07336   0.09868   0.85158   0.00000  Uiso   1.00
H1156  H     0.07475   0.08219   0.89713   0.00000  Uiso   1.00
H1157  H     0.03114   0.06103   0.87573   0.00000  Uiso   1.00
O1158  O     0.24046   0.08158   0.60109   0.00000  Uiso   1.00
C1159  C     0.22404   0.03867   0.60026   0.00000  Uiso   1.00
H1160  H     0.24849   0.02147   0.60553   0.00000  Uiso   1.00
H1161  H     0.21896   0.02436   0.57132   0.00000  Uiso   1.00
C1162  C     0.18210   0.03203   0.63289   0.00000  Uiso   1.00
H1163  H     0.18705   0.04721   0.66156   0.00000  Uiso   1.00
H1164  H     0.15643   0.04662   0.62661   0.00000  Uiso   1.00
C1165  C     0.16738   0.31891   0.63580   0.00000  Uiso   1.00
H1166  H     0.16099   0.30334   0.60774   0.00000  Uiso   1.00
H1167  H     0.13730   0.31527   0.66002   0.00000  Uiso   1.00
H1168  H     0.19232   0.30338   0.64224   0.00000  Uiso   1.00
O1169  O     0.07047   0.26282   0.98277   0.00000  Uiso   1.00
C1170  C     0.03407   0.26619   0.96974   0.00000  Uiso   1.00
H1171  H     0.00581   0.26723   0.99600   0.00000  Uiso   1.00
H1172  H     0.02571   0.23904   0.94908   0.00000  Uiso   1.00
C1173  C     0.04015   0.30746   0.95208   0.00000  Uiso   1.00
H1174  H     0.04607   0.00062   0.97427   0.00000  Uiso   1.00
H1175  H     0.06856   0.30798   0.92602   0.00000  Uiso   1.00
C1176  C     0.00062   0.31364   0.93975   0.00000  Uiso   1.00
H1177  H     0.32817   0.28821   0.91664   0.00000  Uiso   1.00
H1178  H     0.00592   0.01072   0.92766   0.00000  Uiso   1.00
H1179  H     0.30511   0.31387   0.96555   0.00000  Uiso   1.00
O1180  O     0.17781   0.09807   0.92586   0.00000  Uiso   1.00
C1181  C     0.15934   0.05582   0.92669   0.00000  Uiso   1.00
H1182  H     0.12876   0.05312   0.91827   0.00000  Uiso   1.00
H1183  H     0.15096   0.04420   0.95616   0.00000  Uiso   1.00
C1184  C     0.19003   0.02790   0.89636   0.00000  Uiso   1.00
H1185  H     0.19696   0.03861   0.86677   0.00000  Uiso   1.00
H1186  H     0.22086   0.03051   0.90438   0.00000  Uiso   1.00
C1187  C     0.17104   0.31547   0.89427   0.00000  Uiso   1.00
H1188  H     0.16287   0.30428   0.92373   0.00000  Uiso   1.00
H1189  H     0.19488   0.29598   0.87326   0.00000  Uiso   1.00
H1190  H     0.14174   0.31167   0.88369   0.00000  Uiso   1.00
C1191  C     0.38612   0.16032   0.75821   0.00000  Uiso   1.00
C1192  C     0.43866   0.22365   0.92049   0.00000  Uiso   1.00
C1193  C     0.48785   0.17499   0.91976   0.00000  Uiso   1.00
C1194  C     0.47505   0.17727   0.96108   0.00000  Uiso   1.00
C1195  C     0.44599   0.20686   0.98248   0.00000  Uiso   1.00
C1196  C     0.49282   0.15291   0.98148   0.00000  Uiso   1.00
C1197  C     0.48806   0.16430   0.52253   0.00000  Uiso   1.00
C1198  C     0.45880   0.19333   0.54300   0.00000  Uiso   1.00
C1199  C     0.43606   0.21240   0.52395   0.00000  Uiso   1.00
C1200  C     0.51411   0.11688   0.96280   0.00000  Uiso   1.00
C1201  C     0.53890   0.10021   0.98166   0.00000  Uiso   1.00
C1202  C     0.61416   0.17334   0.74152   0.00000  Uiso   1.00
C1203  C     0.53799   0.11379   0.52089   0.00000  Uiso   1.00
C1204  C     0.51151   0.14521   0.54214   0.00000  Uiso   1.00
C1205  C     0.56201   0.09495   0.53954   0.00000  Uiso   1.00
C1206  C     0.55432   0.10260   0.58093   0.00000  Uiso   1.00
C1207  C     0.50984   0.15668   0.58225   0.00000  Uiso   1.00
C1208  C     0.65967   0.17524   0.73882   0.00000  Uiso   1.00
C1209  C     0.34084   0.15678   0.76317   0.00000  Uiso   1.00
C1210  C     0.51477   0.32276   0.74128   0.00000  Uiso   1.00
C1211  C     0.48260   0.01218   0.76251   0.00000  Uiso   1.00
C1212  C     0.48900   0.05631   0.75888   0.00000  Uiso   1.00
C1213  C     0.51011   0.27772   0.74186   0.00000  Uiso   1.00
C1214  C     0.52166   0.14469   0.64407   0.00000  Uiso   1.00
C1215  C     0.47894   0.18806   0.85621   0.00000  Uiso   1.00
C1216  C     0.46824   0.19581   0.89951   0.00000  Uiso   1.00
C1217  C     0.52981   0.13501   0.60149   0.00000  Uiso   1.00
C1218  C     0.42750   0.23018   0.96198   0.00000  Uiso   1.00
H1219  H     0.34908   0.19225   0.71609   0.00000  Uiso   1.00
H1220  H     0.49260   0.18187   0.59995   0.00000  Uiso   1.00
H1221  H     0.55749   0.07495   0.96567   0.00000  Uiso   1.00
H1222  H     0.42575   0.24161   0.90428   0.00000  Uiso   1.00
H1223  H     0.51488   0.15885   0.90252   0.00000  Uiso   1.00
H1224  H     0.45121   0.20112   0.57448   0.00000  Uiso   1.00
O1225  O     0.50000   0.16667   0.75000   0.00000  Uiso   1.00
O1226  O     0.51182   0.08101   0.77820   0.00000  Uiso   1.00
O1227  O     0.47914   0.26136   0.76767   0.00000  Uiso   1.00
O1228  O     0.40785   0.13251   0.73607   0.00000  Uiso   1.00
O1229  O     0.60119   0.19179   0.71805   0.00000  Uiso   1.00
O1230  O     0.40323   0.18960   0.77820   0.00000  Uiso   1.00
O1231  O     0.58773   0.15277   0.76767   0.00000  Uiso   1.00
O1232  O     0.47133   0.06903   0.73607   0.00000  Uiso   1.00
O1233  O     0.53771   0.25527   0.71805   0.00000  Uiso   1.00
O1234  O     0.49027   0.12393   0.66625   0.00000  Uiso   1.00
O1235  O     0.46020   0.20646   0.83749   0.00000  Uiso   1.00
O1236  O     0.54421   0.17493   0.65877   0.00000  Uiso   1.00
O1237  O     0.50532   0.16135   0.83749   0.00000  Uiso   1.00
Zn1238 Zn    0.52577   0.14090   0.78277   0.00000  Uiso   1.00
Zn1239 Zn    0.46792   0.12378   0.72257   0.00000  Uiso   1.00
Zn1240 Zn    0.54500   0.19664   0.71188   0.00000  Uiso   1.00
Zn1241 Zn    0.46131   0.20535   0.78277   0.00000  Uiso   1.00
O1242  O     0.40631   0.23923   0.54599   0.00000  Uiso   1.00
C1243  C     0.37193   0.21767   0.57259   0.00000  Uiso   1.00
H1244  H     0.37330   0.22988   0.60312   0.00000  Uiso   1.00
H1245  H     0.37261   0.18300   0.56903   0.00000  Uiso   1.00
C1246  C     0.66275   0.22613   0.56695   0.00000  Uiso   1.00
H1247  H     0.66149   0.26045   0.56957   0.00000  Uiso   1.00
H1248  H     0.66061   0.21210   0.53703   0.00000  Uiso   1.00
C1249  C     0.62439   0.20729   0.59739   0.00000  Uiso   1.00
H1250  H     0.62466   0.17287   0.59492   0.00000  Uiso   1.00
H1251  H     0.59416   0.21382   0.59215   0.00000  Uiso   1.00
H1252  H     0.62524   0.22132   0.62763   0.00000  Uiso   1.00
O1253  O     0.59010   0.06646   0.51765   0.00000  Uiso   1.00
C1254  C     0.63322   0.08361   0.51486   0.00000  Uiso   1.00
H1255  H     0.65265   0.05712   0.51069   0.00000  Uiso   1.00
H1256  H     0.63748   0.10362   0.54210   0.00000  Uiso   1.00
C1257  C     0.65099   0.10825   0.97918   0.00000  Uiso   1.00
H1258  H     0.64806   0.08760   0.95198   0.00000  Uiso   1.00
H1259  H     0.63208   0.13506   0.98287   0.00000  Uiso   1.00
C1260  C     0.36477   0.12502   0.97469   0.00000  Uiso   1.00
H1261  H     0.36812   0.14641   0.50129   0.00000  Uiso   1.00
H1262  H     0.37680   0.14267   0.94865   0.00000  Uiso   1.00
H1263  H     0.38466   0.09888   0.97052   0.00000  Uiso   1.00
Br1264 Br    0.64069   0.12545   0.80582   0.00000  Uiso   1.00
Br1265 Br    0.56904   0.01464   0.71046   0.00000  Uiso   1.00
O1266  O     0.44292   0.32571   0.78286   0.00000  Uiso   1.00
C1267  C     0.41369   0.01987   0.80756   0.00000  Uiso   1.00
H1268  H     0.38142   0.00170   0.81520   0.00000  Uiso   1.00
H1269  H     0.40960   0.04563   0.79220   0.00000  Uiso   1.00
C1270  C     0.42559   0.03614   0.84626   0.00000  Uiso   1.00
H1271  H     0.41922   0.01010   0.86471   0.00000  Uiso   1.00
H1272  H     0.46028   0.04773   0.84045   0.00000  Uiso   1.00
C1273  C     0.39946   0.07169   0.86903   0.00000  Uiso   1.00
H1274  H     0.40669   0.09868   0.85158   0.00000  Uiso   1.00
H1275  H     0.40809   0.08219   0.89713   0.00000  Uiso   1.00
H1276  H     0.36447   0.06103   0.87573   0.00000  Uiso   1.00
O1277  O     0.57379   0.08158   0.60109   0.00000  Uiso   1.00
C1278  C     0.55737   0.03867   0.60026   0.00000  Uiso   1.00
H1279  H     0.58183   0.02147   0.60553   0.00000  Uiso   1.00
H1280  H     0.55229   0.02436   0.57132   0.00000  Uiso   1.00
C1281  C     0.51543   0.03203   0.63289   0.00000  Uiso   1.00
H1282  H     0.52038   0.04721   0.66156   0.00000  Uiso   1.00
H1283  H     0.48976   0.04662   0.62661   0.00000  Uiso   1.00
C1284  C     0.50071   0.31891   0.63580   0.00000  Uiso   1.00
H1285  H     0.49432   0.30334   0.60774   0.00000  Uiso   1.00
H1286  H     0.47063   0.31527   0.66002   0.00000  Uiso   1.00
H1287  H     0.52565   0.30338   0.64224   0.00000  Uiso   1.00
O1288  O     0.40381   0.26282   0.98277   0.00000  Uiso   1.00
C1289  C     0.36741   0.26619   0.96974   0.00000  Uiso   1.00
H1290  H     0.33915   0.26723   0.99600   0.00000  Uiso   1.00
H1291  H     0.35905   0.23904   0.94908   0.00000  Uiso   1.00
C1292  C     0.37348   0.30746   0.95208   0.00000  Uiso   1.00
H1293  H     0.37941   0.00062   0.97427   0.00000  Uiso   1.00
H1294  H     0.40189   0.30798   0.92602   0.00000  Uiso   1.00
C1295  C     0.33395   0.31364   0.93975   0.00000  Uiso   1.00
H1296  H     0.66151   0.28821   0.91664   0.00000  Uiso   1.00
H1297  H     0.33925   0.01072   0.92766   0.00000  Uiso   1.00
H1298  H     0.63845   0.31387   0.96555   0.00000  Uiso   1.00
O1299  O     0.51114   0.09807   0.92586   0.00000  Uiso   1.00
C1300  C     0.49267   0.05582   0.92669   0.00000  Uiso   1.00
H1301  H     0.46210   0.05312   0.91827   0.00000  Uiso   1.00
H1302  H     0.48429   0.04420   0.95616   0.00000  Uiso   1.00
C1303  C     0.52336   0.02790   0.89636   0.00000  Uiso   1.00
H1304  H     0.53029   0.03861   0.86677   0.00000  Uiso   1.00
H1305  H     0.55419   0.03051   0.90438   0.00000  Uiso   1.00
C1306  C     0.50438   0.31547   0.89427   0.00000  Uiso   1.00
H1307  H     0.49620   0.30428   0.92373   0.00000  Uiso   1.00
H1308  H     0.52822   0.29598   0.87326   0.00000  Uiso   1.00
H1309  H     0.47507   0.31167   0.88369   0.00000  Uiso   1.00
C1310  C     0.71946   0.16032   0.75821   0.00000  Uiso   1.00
C1311  C     0.77200   0.22365   0.92049   0.00000  Uiso   1.00
C1312  C     0.82118   0.17499   0.91976   0.00000  Uiso   1.00
C1313  C     0.80838   0.17727   0.96108   0.00000  Uiso   1.00
C1314  C     0.77932   0.20686   0.98248   0.00000  Uiso   1.00
C1315  C     0.82616   0.15291   0.98148   0.00000  Uiso   1.00
C1316  C     0.82139   0.16430   0.52253   0.00000  Uiso   1.00
C1317  C     0.79213   0.19333   0.54300   0.00000  Uiso   1.00
C1318  C     0.76939   0.21240   0.52395   0.00000  Uiso   1.00
C1319  C     0.84745   0.11688   0.96280   0.00000  Uiso   1.00
C1320  C     0.87224   0.10021   0.98166   0.00000  Uiso   1.00
C1321  C     0.94749   0.17334   0.74152   0.00000  Uiso   1.00
C1322  C     0.87133   0.11379   0.52089   0.00000  Uiso   1.00
C1323  C     0.84484   0.14521   0.54214   0.00000  Uiso   1.00
C1324  C     0.89534   0.09495   0.53954   0.00000  Uiso   1.00
C1325  C     0.88765   0.10260   0.58093   0.00000  Uiso   1.00
C1326  C     0.84317   0.15668   0.58225   0.00000  Uiso   1.00
C1327  C     0.99300   0.17524   0.73882   0.00000  Uiso   1.00
C1328  C     0.67417   0.15678   0.76317   0.00000  Uiso   1.00
C1329  C     0.84810   0.32276   0.74128   0.00000  Uiso   1.00
C1330  C     0.81593   0.01218   0.76251   0.00000  Uiso   1.00
C1331  C     0.82234   0.05631   0.75888   0.00000  Uiso   1.00
C1332  C     0.84344   0.27772   0.74186   0.00000  Uiso   1.00
C1333  C     0.85499   0.14469   0.64407   0.00000  Uiso   1.00
C1334  C     0.81227   0.18806   0.85621   0.00000  Uiso   1.00
C1335  C     0.80158   0.19581   0.89951   0.00000  Uiso   1.00
C1336  C     0.86314   0.13501   0.60149   0.00000  Uiso   1.00
C1337  C     0.76083   0.23018   0.96198   0.00000  Uiso   1.00
H1338  H     0.68241   0.19225   0.71609   0.00000  Uiso   1.00
H1339  H     0.82593   0.18187   0.59995   0.00000  Uiso   1.00
H1340  H     0.89082   0.07495   0.96567   0.00000  Uiso   1.00
H1341  H     0.75909   0.24161   0.90428   0.00000  Uiso   1.00
H1342  H     0.84822   0.15885   0.90252   0.00000  Uiso   1.00
H1343  H     0.78454   0.20112   0.57448   0.00000  Uiso   1.00
O1344  O     0.83333   0.16667   0.75000   0.00000  Uiso   1.00
O1345  O     0.84515   0.08101   0.77820   0.00000  Uiso   1.00
O1346  O     0.81247   0.26136   0.76767   0.00000  Uiso   1.00
O1347  O     0.74119   0.13251   0.73607   0.00000  Uiso   1.00
O1348  O     0.93452   0.19179   0.71805   0.00000  Uiso   1.00
O1349  O     0.73656   0.18960   0.77820   0.00000  Uiso   1.00
O1350  O     0.92106   0.15277   0.76767   0.00000  Uiso   1.00
O1351  O     0.80467   0.06903   0.73607   0.00000  Uiso   1.00
O1352  O     0.87104   0.25527   0.71805   0.00000  Uiso   1.00
O1353  O     0.82360   0.12393   0.66625   0.00000  Uiso   1.00
O1354  O     0.79354   0.20646   0.83749   0.00000  Uiso   1.00
O1355  O     0.87755   0.17493   0.65877   0.00000  Uiso   1.00
O1356  O     0.83865   0.16135   0.83749   0.00000  Uiso   1.00
Zn1357 Zn    0.85910   0.14090   0.78277   0.00000  Uiso   1.00
Zn1358 Zn    0.80125   0.12378   0.72257   0.00000  Uiso   1.00
Zn1359 Zn    0.87833   0.19664   0.71188   0.00000  Uiso   1.00
Zn1360 Zn    0.79465   0.20535   0.78277   0.00000  Uiso   1.00
O1361  O     0.73965   0.23923   0.54599   0.00000  Uiso   1.00
C1362  C     0.70526   0.21767   0.57259   0.00000  Uiso   1.00
H1363  H     0.70664   0.22988   0.60312   0.00000  Uiso   1.00
H1364  H     0.70594   0.18300   0.56903   0.00000  Uiso   1.00
C1365  C     0.99608   0.22613   0.56695   0.00000  Uiso   1.00
H1366  H     0.99482   0.26045   0.56957   0.00000  Uiso   1.00
H1367  H     0.99395   0.21210   0.53703   0.00000  Uiso   1.00
C1368  C     0.95772   0.20729   0.59739   0.00000  Uiso   1.00
H1369  H     0.95800   0.17287   0.59492   0.00000  Uiso   1.00
H1370  H     0.92750   0.21382   0.59215   0.00000  Uiso   1.00
H1371  H     0.95857   0.22132   0.62763   0.00000  Uiso   1.00
O1372  O     0.92343   0.06646   0.51765   0.00000  Uiso   1.00
C1373  C     0.96655   0.08361   0.51486   0.00000  Uiso   1.00
H1374  H     0.98599   0.05712   0.51069   0.00000  Uiso   1.00
H1375  H     0.97081   0.10362   0.54210   0.00000  Uiso   1.00
C1376  C     0.98432   0.10825   0.97918   0.00000  Uiso   1.00
H1377  H     0.98139   0.08760   0.95198   0.00000  Uiso   1.00
H1378  H     0.96542   0.13506   0.98287   0.00000  Uiso   1.00
C1379  C     0.69810   0.12502   0.97469   0.00000  Uiso   1.00
H1380  H     0.70145   0.14641   0.50129   0.00000  Uiso   1.00
H1381  H     0.71014   0.14267   0.94865   0.00000  Uiso   1.00
H1382  H     0.71799   0.09888   0.97052   0.00000  Uiso   1.00
Br1383 Br    0.97402   0.12545   0.80582   0.00000  Uiso   1.00
Br1384 Br    0.90237   0.01464   0.71046   0.00000  Uiso   1.00
O1385  O     0.77625   0.32571   0.78286   0.00000  Uiso   1.00
C1386  C     0.74702   0.01987   0.80756   0.00000  Uiso   1.00
H1387  H     0.71476   0.00170   0.81520   0.00000  Uiso   1.00
H1388  H     0.74294   0.04563   0.79220   0.00000  Uiso   1.00
C1389  C     0.75892   0.03614   0.84626   0.00000  Uiso   1.00
H1390  H     0.75255   0.01010   0.86471   0.00000  Uiso   1.00
H1391  H     0.79361   0.04773   0.84045   0.00000  Uiso   1.00
C1392  C     0.73279   0.07169   0.86903   0.00000  Uiso   1.00
H1393  H     0.74002   0.09868   0.85158   0.00000  Uiso   1.00
H1394  H     0.74142   0.08219   0.89713   0.00000  Uiso   1.00
H1395  H     0.69781   0.06103   0.87573   0.00000  Uiso   1.00
O1396  O     0.90712   0.08158   0.60109   0.00000  Uiso   1.00
C1397  C     0.89071   0.03867   0.60026   0.00000  Uiso   1.00
H1398  H     0.91516   0.02147   0.60553   0.00000  Uiso   1.00
H1399  H     0.88563   0.02436   0.57132   0.00000  Uiso   1.00
C1400  C     0.84877   0.03203   0.63289   0.00000  Uiso   1.00
H1401  H     0.85372   0.04721   0.66156   0.00000  Uiso   1.00
H1402  H     0.82310   0.04662   0.62661   0.00000  Uiso   1.00
C1403  C     0.83405   0.31891   0.63580   0.00000  Uiso   1.00
H1404  H     0.82765   0.30334   0.60774   0.00000  Uiso   1.00
H1405  H     0.80396   0.31527   0.66002   0.00000  Uiso   1.00
H1406  H     0.85898   0.30338   0.64224   0.00000  Uiso   1.00
O1407  O     0.73714   0.26282   0.98277   0.00000  Uiso   1.00
C1408  C     0.70074   0.26619   0.96974   0.00000  Uiso   1.00
H1409  H     0.67248   0.26723   0.99600   0.00000  Uiso   1.00
H1410  H     0.69238   0.23904   0.94908   0.00000  Uiso   1.00
C1411  C     0.70682   0.30746   0.95208   0.00000  Uiso   1.00
H1412  H     0.71274   0.00062   0.97427   0.00000  Uiso   1.00
H1413  H     0.73523   0.30798   0.92602   0.00000  Uiso   1.00
C1414  C     0.66729   0.31364   0.93975   0.00000  Uiso   1.00
H1415  H     0.99484   0.28821   0.91664   0.00000  Uiso   1.00
H1416  H     0.67258   0.01072   0.92766   0.00000  Uiso   1.00
H1417  H     0.97178   0.31387   0.96555   0.00000  Uiso   1.00
O1418  O     0.84448   0.09807   0.92586   0.00000  Uiso   1.00
C1419  C     0.82600   0.05582   0.92669   0.00000  Uiso   1.00
H1420  H     0.79543   0.05312   0.91827   0.00000  Uiso   1.00
H1421  H     0.81763   0.04420   0.95616   0.00000  Uiso   1.00
C1422  C     0.85669   0.02790   0.89636   0.00000  Uiso   1.00
H1423  H     0.86362   0.03861   0.86677   0.00000  Uiso   1.00
H1424  H     0.88752   0.03051   0.90438   0.00000  Uiso   1.00
C1425  C     0.83771   0.31547   0.89427   0.00000  Uiso   1.00
H1426  H     0.82954   0.30428   0.92373   0.00000  Uiso   1.00
H1427  H     0.86155   0.29598   0.87326   0.00000  Uiso   1.00
H1428  H     0.80840   0.31167   0.88369   0.00000  Uiso   1.00
C1429  C     0.05279   0.49365   0.75821   0.00000  Uiso   1.00
C1430  C     0.10533   0.55698   0.92049   0.00000  Uiso   1.00
C1431  C     0.15451   0.50832   0.91976   0.00000  Uiso   1.00
C1432  C     0.14172   0.51061   0.96108   0.00000  Uiso   1.00
C1433  C     0.11265   0.54019   0.98248   0.00000  Uiso   1.00
C1434  C     0.15949   0.48624   0.98148   0.00000  Uiso   1.00
C1435  C     0.15473   0.49763   0.52253   0.00000  Uiso   1.00
C1436  C     0.12546   0.52667   0.54300   0.00000  Uiso   1.00
C1437  C     0.10273   0.54573   0.52395   0.00000  Uiso   1.00
C1438  C     0.18078   0.45021   0.96280   0.00000  Uiso   1.00
C1439  C     0.20557   0.43354   0.98166   0.00000  Uiso   1.00
C1440  C     0.28082   0.50668   0.74152   0.00000  Uiso   1.00
C1441  C     0.20466   0.44712   0.52089   0.00000  Uiso   1.00
C1442  C     0.17817   0.47854   0.54214   0.00000  Uiso   1.00
C1443  C     0.22867   0.42828   0.53954   0.00000  Uiso   1.00
C1444  C     0.22098   0.43593   0.58093   0.00000  Uiso   1.00
C1445  C     0.17651   0.49001   0.58225   0.00000  Uiso   1.00
C1446  C     0.32634   0.50857   0.73882   0.00000  Uiso   1.00
C1447  C     0.00750   0.49011   0.76317   0.00000  Uiso   1.00
C1448  C     0.18144   0.65609   0.74128   0.00000  Uiso   1.00
C1449  C     0.14927   0.34551   0.76251   0.00000  Uiso   1.00
C1450  C     0.15567   0.38964   0.75888   0.00000  Uiso   1.00
C1451  C     0.17677   0.61106   0.74186   0.00000  Uiso   1.00
C1452  C     0.18832   0.47803   0.64407   0.00000  Uiso   1.00
C1453  C     0.14560   0.52140   0.85621   0.00000  Uiso   1.00
C1454  C     0.13491   0.52914   0.89951   0.00000  Uiso   1.00
C1455  C     0.19648   0.46834   0.60149   0.00000  Uiso   1.00
C1456  C     0.09417   0.56351   0.96198   0.00000  Uiso   1.00
H1457  H     0.01574   0.52559   0.71609   0.00000  Uiso   1.00
H1458  H     0.15926   0.51520   0.59995   0.00000  Uiso   1.00
H1459  H     0.22415   0.40828   0.96567   0.00000  Uiso   1.00
H1460  H     0.09242   0.57494   0.90428   0.00000  Uiso   1.00
H1461  H     0.18155   0.49218   0.90252   0.00000  Uiso   1.00
H1462  H     0.11788   0.53446   0.57448   0.00000  Uiso   1.00
O1463  O     0.16667   0.50000   0.75000   0.00000  Uiso   1.00
O1464  O     0.17849   0.41434   0.77820   0.00000  Uiso   1.00
O1465  O     0.14581   0.59469   0.76767   0.00000  Uiso   1.00
O1466  O     0.07452   0.46584   0.73607   0.00000  Uiso   1.00
O1467  O     0.26785   0.52512   0.71805   0.00000  Uiso   1.00
O1468  O     0.06990   0.52293   0.77820   0.00000  Uiso   1.00
O1469  O     0.25440   0.48610   0.76767   0.00000  Uiso   1.00
O1470  O     0.13800   0.40236   0.73607   0.00000  Uiso   1.00
O1471  O     0.20437   0.58860   0.71805   0.00000  Uiso   1.00
O1472  O     0.15693   0.45726   0.66625   0.00000  Uiso   1.00
O1473  O     0.12687   0.53979   0.83749   0.00000  Uiso   1.00
O1474  O     0.21088   0.50826   0.65877   0.00000  Uiso   1.00
O1475  O     0.17198   0.49468   0.83749   0.00000  Uiso   1.00
Zn1476 Zn    0.19244   0.47423   0.78277   0.00000  Uiso   1.00
Zn1477 Zn    0.13459   0.45711   0.72257   0.00000  Uiso   1.00
Zn1478 Zn    0.21166   0.52997   0.71188   0.00000  Uiso   1.00
Zn1479 Zn    0.12798   0.53868   0.78277   0.00000  Uiso   1.00
O1480  O     0.07298   0.57256   0.54599   0.00000  Uiso   1.00
C1481  C     0.03859   0.55100   0.57259   0.00000  Uiso   1.00
H1482  H     0.03997   0.56322   0.60312   0.00000  Uiso   1.00
H1483  H     0.03927   0.51633   0.56903   0.00000  Uiso   1.00
C1484  C     0.32941   0.55947   0.56695   0.00000  Uiso   1.00
H1485  H     0.32816   0.59379   0.56957   0.00000  Uiso   1.00
H1486  H     0.32728   0.54544   0.53703   0.00000  Uiso   1.00
C1487  C     0.29106   0.54063   0.59739   0.00000  Uiso   1.00
H1488  H     0.29133   0.50620   0.59492   0.00000  Uiso   1.00
H1489  H     0.26083   0.54715   0.59215   0.00000  Uiso   1.00
H1490  H     0.29190   0.55465   0.62763   0.00000  Uiso   1.00
O1491  O     0.25677   0.39979   0.51765   0.00000  Uiso   1.00
C1492  C     0.29988   0.41694   0.51486   0.00000  Uiso   1.00
H1493  H     0.31932   0.39045   0.51069   0.00000  Uiso   1.00
H1494  H     0.30415   0.43696   0.54210   0.00000  Uiso   1.00
C1495  C     0.31765   0.44158   0.97918   0.00000  Uiso   1.00
H1496  H     0.31473   0.42094   0.95198   0.00000  Uiso   1.00
H1497  H     0.29875   0.46839   0.98287   0.00000  Uiso   1.00
C1498  C     0.03144   0.45835   0.97469   0.00000  Uiso   1.00
H1499  H     0.03479   0.47974   0.50129   0.00000  Uiso   1.00
H1500  H     0.04347   0.47601   0.94865   0.00000  Uiso   1.00
H1501  H     0.05132   0.43222   0.97052   0.00000  Uiso   1.00
Br1502 Br    0.30736   0.45878   0.80582   0.00000  Uiso   1.00
Br1503 Br    0.23571   0.34797   0.71046   0.00000  Uiso   1.00
O1504  O     0.10958   0.65904   0.78286   0.00000  Uiso   1.00
C1505  C     0.08036   0.35320   0.80756   0.00000  Uiso   1.00
H1506  H     0.04809   0.33503   0.81520   0.00000  Uiso   1.00
H1507  H     0.07627   0.37896   0.79220   0.00000  Uiso   1.00
C1508  C     0.09225   0.36947   0.84626   0.00000  Uiso   1.00
H1509  H     0.08589   0.34343   0.86471   0.00000  Uiso   1.00
H1510  H     0.12695   0.38106   0.84045   0.00000  Uiso   1.00
C1511  C     0.06613   0.40502   0.86903   0.00000  Uiso   1.00
H1512  H     0.07336   0.43201   0.85158   0.00000  Uiso   1.00
H1513  H     0.07475   0.41553   0.89713   0.00000  Uiso   1.00
H1514  H     0.03114   0.39436   0.87573   0.00000  Uiso   1.00
O1515  O     0.24046   0.41491   0.60109   0.00000  Uiso   1.00
C1516  C     0.22404   0.37200   0.60026   0.00000  Uiso   1.00
H1517  H     0.24849   0.35481   0.60553   0.00000  Uiso   1.00
H1518  H     0.21896   0.35770   0.57132   0.00000  Uiso   1.00
C1519  C     0.18210   0.36536   0.63289   0.00000  Uiso   1.00
H1520  H     0.18705   0.38055   0.66156   0.00000  Uiso   1.00
H1521  H     0.15643   0.37995   0.62661   0.00000  Uiso   1.00
C1522  C     0.16738   0.65224   0.63580   0.00000  Uiso   1.00
H1523  H     0.16099   0.63668   0.60774   0.00000  Uiso   1.00
H1524  H     0.13730   0.64860   0.66002   0.00000  Uiso   1.00
H1525  H     0.19232   0.63672   0.64224   0.00000  Uiso   1.00
O1526  O     0.07047   0.59615   0.98277   0.00000  Uiso   1.00
C1527  C     0.03407   0.59952   0.96974   0.00000  Uiso   1.00
H1528  H     0.00581   0.60056   0.99600   0.00000  Uiso   1.00
H1529  H     0.02571   0.57237   0.94908   0.00000  Uiso   1.00
C1530  C     0.04015   0.64080   0.95208   0.00000  Uiso   1.00
H1531  H     0.04607   0.33396   0.97427   0.00000  Uiso   1.00
H1532  H     0.06856   0.64131   0.92602   0.00000  Uiso   1.00
C1533  C     0.00062   0.64697   0.93975   0.00000  Uiso   1.00
H1534  H     0.32817   0.62154   0.91664   0.00000  Uiso   1.00
H1535  H     0.00592   0.34405   0.92766   0.00000  Uiso   1.00
H1536  H     0.30511   0.64720   0.96555   0.00000  Uiso   1.00
O1537  O     0.17781   0.43140   0.92586   0.00000  Uiso   1.00
C1538  C     0.15934   0.38915   0.92669   0.00000  Uiso   1.00
H1539  H     0.12876   0.38645   0.91827   0.00000  Uiso   1.00
H1540  H     0.15096   0.37754   0.95616   0.00000  Uiso   1.00
C1541  C     0.19003   0.36123   0.89636   0.00000  Uiso   1.00
H1542  H     0.19696   0.37195   0.86677   0.00000  Uiso   1.00
H1543  H     0.22086   0.36385   0.90438   0.00000  Uiso   1.00
C1544  C     0.17104   0.64881   0.89427   0.00000  Uiso   1.00
H1545  H     0.16287   0.63762   0.92373   0.00000  Uiso   1.00
H1546  H     0.19488   0.62932   0.87326   0.00000  Uiso   1.00
H1547  H     0.14174   0.64500   0.88369   0.00000  Uiso   1.00
C1548  C     0.38612   0.49365   0.75821   0.00000  Uiso   1.00
C1549  C     0.43866   0.55698   0.92049   0.00000  Uiso   1.00
C1550  C     0.48785   0.50832   0.91976   0.00000  Uiso   1.00
C1551  C     0.47505   0.51061   0.96108   0.00000  Uiso   1.00
C1552  C     0.44599   0.54019   0.98248   0.00000  Uiso   1.00
C1553  C     0.49282   0.48624   0.98148   0.00000  Uiso   1.00
C1554  C     0.48806   0.49763   0.52253   0.00000  Uiso   1.00
C1555  C     0.45880   0.52667   0.54300   0.00000  Uiso   1.00
C1556  C     0.43606   0.54573   0.52395   0.00000  Uiso   1.00
C1557  C     0.51411   0.45021   0.96280   0.00000  Uiso   1.00
C1558  C     0.53890   0.43354   0.98166   0.00000  Uiso   1.00
C1559  C     0.61416   0.50668   0.74152   0.00000  Uiso   1.00
C1560  C     0.53799   0.44712   0.52089   0.00000  Uiso   1.00
C1561  C     0.51151   0.47854   0.54214   0.00000  Uiso   1.00
C1562  C     0.56201   0.42828   0.53954   0.00000  Uiso   1.00
C1563  C     0.55432   0.43593   0.58093   0.00000  Uiso   1.00
C1564  C     0.50984   0.49001   0.58225   0.00000  Uiso   1.00
C1565  C     0.65967   0.50857   0.73882   0.00000  Uiso   1.00
C1566  C     0.34084   0.49011   0.76317   0.00000  Uiso   1.00
C1567  C     0.51477   0.65609   0.74128   0.00000  Uiso   1.00
C1568  C     0.48260   0.34551   0.76251   0.00000  Uiso   1.00
C1569  C     0.48900   0.38964   0.75888   0.00000  Uiso   1.00
C1570  C     0.51011   0.61106   0.74186   0.00000  Uiso   1.00
C1571  C     0.52166   0.47803   0.64407   0.00000  Uiso   1.00
C1572  C     0.47894   0.52140   0.85621   0.00000  Uiso   1.00
C1573  C     0.46824   0.52914   0.89951   0.00000  Uiso   1.00
C1574  C     0.52981   0.46834   0.60149   0.00000  Uiso   1.00
C1575  C     0.42750   0.56351   0.96198   0.00000  Uiso   1.00
H1576  H     0.34908   0.52559   0.71609   0.00000  Uiso   1.00
H1577  H     0.49260   0.51520   0.59995   0.00000  Uiso   1.00
H1578  H     0.55749   0.40828   0.96567   0.00000  Uiso   1.00
H1579  H     0.42575   0.57494   0.90428   0.00000  Uiso   1.00
H1580  H     0.51488   0.49218   0.90252   0.00000  Uiso   1.00
H1581  H     0.45121   0.53446   0.57448   0.00000  Uiso   1.00
O1582  O     0.50000   0.50000   0.75000   0.00000  Uiso   1.00
O1583  O     0.51182   0.41434   0.77820   0.00000  Uiso   1.00
O1584  O     0.47914   0.59469   0.76767   0.00000  Uiso   1.00
O1585  O     0.40785   0.46584   0.73607   0.00000  Uiso   1.00
O1586  O     0.60119   0.52512   0.71805   0.00000  Uiso   1.00
O1587  O     0.40323   0.52293   0.77820   0.00000  Uiso   1.00
O1588  O     0.58773   0.48610   0.76767   0.00000  Uiso   1.00
O1589  O     0.47133   0.40236   0.73607   0.00000  Uiso   1.00
O1590  O     0.53771   0.58860   0.71805   0.00000  Uiso   1.00
O1591  O     0.49027   0.45726   0.66625   0.00000  Uiso   1.00
O1592  O     0.46020   0.53979   0.83749   0.00000  Uiso   1.00
O1593  O     0.54421   0.50826   0.65877   0.00000  Uiso   1.00
O1594  O     0.50532   0.49468   0.83749   0.00000  Uiso   1.00
Zn1595 Zn    0.52577   0.47423   0.78277   0.00000  Uiso   1.00
Zn1596 Zn    0.46792   0.45711   0.72257   0.00000  Uiso   1.00
Zn1597 Zn    0.54500   0.52997   0.71188   0.00000  Uiso   1.00
Zn1598 Zn    0.46131   0.53868   0.78277   0.00000  Uiso   1.00
O1599  O     0.40631   0.57256   0.54599   0.00000  Uiso   1.00
C1600  C     0.37193   0.55100   0.57259   0.00000  Uiso   1.00
H1601  H     0.37330   0.56322   0.60312   0.00000  Uiso   1.00
H1602  H     0.37261   0.51633   0.56903   0.00000  Uiso   1.00
C1603  C     0.66275   0.55947   0.56695   0.00000  Uiso   1.00
H1604  H     0.66149   0.59379   0.56957   0.00000  Uiso   1.00
H1605  H     0.66061   0.54544   0.53703   0.00000  Uiso   1.00
C1606  C     0.62439   0.54063   0.59739   0.00000  Uiso   1.00
H1607  H     0.62466   0.50620   0.59492   0.00000  Uiso   1.00
H1608  H     0.59416   0.54715   0.59215   0.00000  Uiso   1.00
H1609  H     0.62524   0.55465   0.62763   0.00000  Uiso   1.00
O1610  O     0.59010   0.39979   0.51765   0.00000  Uiso   1.00
C1611  C     0.63322   0.41694   0.51486   0.00000  Uiso   1.00
H1612  H     0.65265   0.39045   0.51069   0.00000  Uiso   1.00
H1613  H     0.63748   0.43696   0.54210   0.00000  Uiso   1.00
C1614  C     0.65099   0.44158   0.97918   0.00000  Uiso   1.00
H1615  H     0.64806   0.42094   0.95198   0.00000  Uiso   1.00
H1616  H     0.63208   0.46839   0.98287   0.00000  Uiso   1.00
C1617  C     0.36477   0.45835   0.97469   0.00000  Uiso   1.00
H1618  H     0.36812   0.47974   0.50129   0.00000  Uiso   1.00
H1619  H     0.37680   0.47601   0.94865   0.00000  Uiso   1.00
H1620  H     0.38466   0.43222   0.97052   0.00000  Uiso   1.00
Br1621 Br    0.64069   0.45878   0.80582   0.00000  Uiso   1.00
Br1622 Br    0.56904   0.34797   0.71046   0.00000  Uiso   1.00
O1623  O     0.44292   0.65904   0.78286   0.00000  Uiso   1.00
C1624  C     0.41369   0.35320   0.80756   0.00000  Uiso   1.00
H1625  H     0.38142   0.33503   0.81520   0.00000  Uiso   1.00
H1626  H     0.40960   0.37896   0.79220   0.00000  Uiso   1.00
C1627  C     0.42559   0.36947   0.84626   0.00000  Uiso   1.00
H1628  H     0.41922   0.34343   0.86471   0.00000  Uiso   1.00
H1629  H     0.46028   0.38106   0.84045   0.00000  Uiso   1.00
C1630  C     0.39946   0.40502   0.86903   0.00000  Uiso   1.00
H1631  H     0.40669   0.43201   0.85158   0.00000  Uiso   1.00
H1632  H     0.40809   0.41553   0.89713   0.00000  Uiso   1.00
H1633  H     0.36447   0.39436   0.87573   0.00000  Uiso   1.00
O1634  O     0.57379   0.41491   0.60109   0.00000  Uiso   1.00
C1635  C     0.55737   0.37200   0.60026   0.00000  Uiso   1.00
H1636  H     0.58183   0.35481   0.60553   0.00000  Uiso   1.00
H1637  H     0.55229   0.35770   0.57132   0.00000  Uiso   1.00
C1638  C     0.51543   0.36536   0.63289   0.00000  Uiso   1.00
H1639  H     0.52038   0.38055   0.66156   0.00000  Uiso   1.00
H1640  H     0.48976   0.37995   0.62661   0.00000  Uiso   1.00
C1641  C     0.50071   0.65224   0.63580   0.00000  Uiso   1.00
H1642  H     0.49432   0.63668   0.60774   0.00000  Uiso   1.00
H1643  H     0.47063   0.64860   0.66002   0.00000  Uiso   1.00
H1644  H     0.52565   0.63672   0.64224   0.00000  Uiso   1.00
O1645  O     0.40381   0.59615   0.98277   0.00000  Uiso   1.00
C1646  C     0.36741   0.59952   0.96974   0.00000  Uiso   1.00
H1647  H     0.33915   0.60056   0.99600   0.00000  Uiso   1.00
H1648  H     0.35905   0.57237   0.94908   0.00000  Uiso   1.00
C1649  C     0.37348   0.64080   0.95208   0.00000  Uiso   1.00
H1650  H     0.37941   0.33396   0.97427   0.00000  Uiso   1.00
H1651  H     0.40189   0.64131   0.92602   0.00000  Uiso   1.00
C1652  C     0.33395   0.64697   0.93975   0.00000  Uiso   1.00
H1653  H     0.66151   0.62154   0.91664   0.00000  Uiso   1.00
H1654  H     0.33925   0.34405   0.92766   0.00000  Uiso   1.00
H1655  H     0.63845   0.64720   0.96555   0.00000  Uiso   1.00
O1656  O     0.51114   0.43140   0.92586   0.00000  Uiso   1.00
C1657  C     0.49267   0.38915   0.92669   0.00000  Uiso   1.00
H1658  H     0.46210   0.38645   0.91827   0.00000  Uiso   1.00
H1659  H     0.48429   0.37754   0.95616   0.00000  Uiso   1.00
C1660  C     0.52336   0.36123   0.89636   0.00000  Uiso   1.00
H1661  H     0.53029   0.37195   0.86677   0.00000  Uiso   1.00
H1662  H     0.55419   0.36385   0.90438   0.00000  Uiso   1.00
C1663  C     0.50438   0.64881   0.89427   0.00000  Uiso   1.00
H1664  H     0.49620   0.63762   0.92373   0.00000  Uiso   1.00
H1665  H     0.52822   0.62932   0.87326   0.00000  Uiso   1.00
H1666  H     0.47507   0.64500   0.88369   0.00000  Uiso   1.00
C1667  C     0.71946   0.49365   0.75821   0.00000  Uiso   1.00
C1668  C     0.77200   0.55698   0.92049   0.00000  Uiso   1.00
C1669  C     0.82118   0.50832   0.91976   0.00000  Uiso   1.00
C1670  C     0.80838   0.51061   0.96108   0.00000  Uiso   1.00
C1671  C     0.77932   0.54019   0.98248   0.00000  Uiso   1.00
C1672  C     0.82616   0.48624   0.98148   0.00000  Uiso   1.00
C1673  C     0.82139   0.49763   0.52253   0.00000  Uiso   1.00
C1674  C     0.79213   0.52667   0.54300   0.00000  Uiso   1.00
C1675  C     0.76939   0.54573   0.52395   0.00000  Uiso   1.00
C1676  C     0.84745   0.45021   0.96280   0.00000  Uiso   1.00
C1677  C     0.87224   0.43354   0.98166   0.00000  Uiso   1.00
C1678  C     0.94749   0.50668   0.74152   0.00000  Uiso   1.00
C1679  C     0.87133   0.44712   0.52089   0.00000  Uiso   1.00
C1680  C     0.84484   0.47854   0.54214   0.00000  Uiso   1.00
C1681  C     0.89534   0.42828   0.53954   0.00000  Uiso   1.00
C1682  C     0.88765   0.43593   0.58093   0.00000  Uiso   1.00
C1683  C     0.84317   0.49001   0.58225   0.00000  Uiso   1.00
C1684  C     0.99300   0.50857   0.73882   0.00000  Uiso   1.00
C1685  C     0.67417   0.49011   0.76317   0.00000  Uiso   1.00
C1686  C     0.84810   0.65609   0.74128   0.00000  Uiso   1.00
C1687  C     0.81593   0.34551   0.76251   0.00000  Uiso   1.00
C1688  C     0.82234   0.38964   0.75888   0.00000  Uiso   1.00
C1689  C     0.84344   0.61106   0.74186   0.00000  Uiso   1.00
C1690  C     0.85499   0.47803   0.64407   0.00000  Uiso   1.00
C1691  C     0.81227   0.52140   0.85621   0.00000  Uiso   1.00
C1692  C     0.80158   0.52914   0.89951   0.00000  Uiso   1.00
C1693  C     0.86314   0.46834   0.60149   0.00000  Uiso   1.00
C1694  C     0.76083   0.56351   0.96198   0.00000  Uiso   1.00
H1695  H     0.68241   0.52559   0.71609   0.00000  Uiso   1.00
H1696  H     0.82593   0.51520   0.59995   0.00000  Uiso   1.00
H1697  H     0.89082   0.40828   0.96567   0.00000  Uiso   1.00
H1698  H     0.75909   0.57494   0.90428   0.00000  Uiso   1.00
H1699  H     0.84822   0.49218   0.90252   0.00000  Uiso   1.00
H1700  H     0.78454   0.53446   0.57448   0.00000  Uiso   1.00
O1701  O     0.83333   0.50000   0.75000   0.00000  Uiso   1.00
O1702  O     0.84515   0.41434   0.77820   0.00000  Uiso   1.00
O1703  O     0.81247   0.59469   0.76767   0.00000  Uiso   1.00
O1704  O     0.74119   0.46584   0.73607   0.00000  Uiso   1.00
O1705  O     0.93452   0.52512   0.71805   0.00000  Uiso   1.00
O1706  O     0.73656   0.52293   0.77820   0.00000  Uiso   1.00
O1707  O     0.92106   0.48610   0.76767   0.00000  Uiso   1.00
O1708  O     0.80467   0.40236   0.73607   0.00000  Uiso   1.00
O1709  O     0.87104   0.58860   0.71805   0.00000  Uiso   1.00
O1710  O     0.82360   0.45726   0.66625   0.00000  Uiso   1.00
O1711  O     0.79354   0.53979   0.83749   0.00000  Uiso   1.00
O1712  O     0.87755   0.50826   0.65877   0.00000  Uiso   1.00
O1713  O     0.83865   0.49468   0.83749   0.00000  Uiso   1.00
Zn1714 Zn    0.85910   0.47423   0.78277   0.00000  Uiso   1.00
Zn1715 Zn    0.80125   0.45711   0.72257   0.00000  Uiso   1.00
Zn1716 Zn    0.87833   0.52997   0.71188   0.00000  Uiso   1.00
Zn1717 Zn    0.79465   0.53868   0.78277   0.00000  Uiso   1.00
O1718  O     0.73965   0.57256   0.54599   0.00000  Uiso   1.00
C1719  C     0.70526   0.55100   0.57259   0.00000  Uiso   1.00
H1720  H     0.70664   0.56322   0.60312   0.00000  Uiso   1.00
H1721  H     0.70594   0.51633   0.56903   0.00000  Uiso   1.00
C1722  C     0.99608   0.55947   0.56695   0.00000  Uiso   1.00
H1723  H     0.99482   0.59379   0.56957   0.00000  Uiso   1.00
H1724  H     0.99395   0.54544   0.53703   0.00000  Uiso   1.00
C1725  C     0.95772   0.54063   0.59739   0.00000  Uiso   1.00
H1726  H     0.95800   0.50620   0.59492   0.00000  Uiso   1.00
H1727  H     0.92750   0.54715   0.59215   0.00000  Uiso   1.00
H1728  H     0.95857   0.55465   0.62763   0.00000  Uiso   1.00
O1729  O     0.92343   0.39979   0.51765   0.00000  Uiso   1.00
C1730  C     0.96655   0.41694   0.51486   0.00000  Uiso   1.00
H1731  H     0.98599   0.39045   0.51069   0.00000  Uiso   1.00
H1732  H     0.97081   0.43696   0.54210   0.00000  Uiso   1.00
C1733  C     0.98432   0.44158   0.97918   0.00000  Uiso   1.00
H1734  H     0.98139   0.42094   0.95198   0.00000  Uiso   1.00
H1735  H     0.96542   0.46839   0.98287   0.00000  Uiso   1.00
C1736  C     0.69810   0.45835   0.97469   0.00000  Uiso   1.00
H1737  H     0.70145   0.47974   0.50129   0.00000  Uiso   1.00
H1738  H     0.71014   0.47601   0.94865   0.00000  Uiso   1.00
H1739  H     0.71799   0.43222   0.97052   0.00000  Uiso   1.00
Br1740 Br    0.97402   0.45878   0.80582   0.00000  Uiso   1.00
Br1741 Br    0.90237   0.34797   0.71046   0.00000  Uiso   1.00
O1742  O     0.77625   0.65904   0.78286   0.00000  Uiso   1.00
C1743  C     0.74702   0.35320   0.80756   0.00000  Uiso   1.00
H1744  H     0.71476   0.33503   0.81520   0.00000  Uiso   1.00
H1745  H     0.74294   0.37896   0.79220   0.00000  Uiso   1.00
C1746  C     0.75892   0.36947   0.84626   0.00000  Uiso   1.00
H1747  H     0.75255   0.34343   0.86471   0.00000  Uiso   1.00
H1748  H     0.79361   0.38106   0.84045   0.00000  Uiso   1.00
C1749  C     0.73279   0.40502   0.86903   0.00000  Uiso   1.00
H1750  H     0.74002   0.43201   0.85158   0.00000  Uiso   1.00
H1751  H     0.74142   0.41553   0.89713   0.00000  Uiso   1.00
H1752  H     0.69781   0.39436   0.87573   0.00000  Uiso   1.00
O1753  O     0.90712   0.41491   0.60109   0.00000  Uiso   1.00
C1754  C     0.89071   0.37200   0.60026   0.00000  Uiso   1.00
H1755  H     0.91516   0.35481   0.60553   0.00000  Uiso   1.00
H1756  H     0.88563   0.35770   0.57132   0.00000  Uiso   1.00
C1757  C     0.84877   0.36536   0.63289   0.00000  Uiso   1.00
H1758  H     0.85372   0.38055   0.66156   0.00000  Uiso   1.00
H1759  H     0.82310   0.37995   0.62661   0.00000  Uiso   1.00
C1760  C     0.83405   0.65224   0.63580   0.00000  Uiso   1.00
H1761  H     0.82765   0.63668   0.60774   0.00000  Uiso   1.00
H1762  H     0.80396   0.64860   0.66002   0.00000  Uiso   1.00
H1763  H     0.85898   0.63672   0.64224   0.00000  Uiso   1.00
O1764  O     0.73714   0.59615   0.98277   0.00000  Uiso   1.00
C1765  C     0.70074   0.59952   0.96974   0.00000  Uiso   1.00
H1766  H     0.67248   0.60056   0.99600   0.00000  Uiso   1.00
H1767  H     0.69238   0.57237   0.94908   0.00000  Uiso   1.00
C1768  C     0.70682   0.64080   0.95208   0.00000  Uiso   1.00
H1769  H     0.71274   0.33396   0.97427   0.00000  Uiso   1.00
H1770  H     0.73523   0.64131   0.92602   0.00000  Uiso   1.00
C1771  C     0.66729   0.64697   0.93975   0.00000  Uiso   1.00
H1772  H     0.99484   0.62154   0.91664   0.00000  Uiso   1.00
H1773  H     0.67258   0.34405   0.92766   0.00000  Uiso   1.00
H1774  H     0.97178   0.64720   0.96555   0.00000  Uiso   1.00
O1775  O     0.84448   0.43140   0.92586   0.00000  Uiso   1.00
C1776  C     0.82600   0.38915   0.92669   0.00000  Uiso   1.00
H1777  H     0.79543   0.38645   0.91827   0.00000  Uiso   1.00
H1778  H     0.81763   0.37754   0.95616   0.00000  Uiso   1.00
C1779  C     0.85669   0.36123   0.89636   0.00000  Uiso   1.00
H1780  H     0.86362   0.37195   0.86677   0.00000  Uiso   1.00
H1781  H     0.88752   0.36385   0.90438   0.00000  Uiso   1.00
C1782  C     0.83771   0.64881   0.89427   0.00000  Uiso   1.00
H1783  H     0.82954   0.63762   0.92373   0.00000  Uiso   1.00
H1784  H     0.86155   0.62932   0.87326   0.00000  Uiso   1.00
H1785  H     0.80840   0.64500   0.88369   0.00000  Uiso   1.00
C1786  C     0.05279   0.82699   0.75821   0.00000  Uiso   1.00
C1787  C     0.10533   0.89032   0.92049   0.00000  Uiso   1.00
C1788  C     0.15451   0.84166   0.91976   0.00000  Uiso   1.00
C1789  C     0.14172   0.84394   0.96108   0.00000  Uiso   1.00
C1790  C     0.11265   0.87352   0.98248   0.00000  Uiso   1.00
C1791  C     0.15949   0.81957   0.98148   0.00000  Uiso   1.00
C1792  C     0.15473   0.83097   0.52253   0.00000  Uiso   1.00
C1793  C     0.12546   0.86000   0.54300   0.00000  Uiso   1.00
C1794  C     0.10273   0.87906   0.52395   0.00000  Uiso   1.00
C1795  C     0.18078   0.78354   0.96280   0.00000  Uiso   1.00
C1796  C     0.20557   0.76688   0.98166   0.00000  Uiso   1.00
C1797  C     0.28082   0.84001   0.74152   0.00000  Uiso   1.00
C1798  C     0.20466   0.78046   0.52089   0.00000  Uiso   1.00
C1799  C     0.17817   0.81187   0.54214   0.00000  Uiso   1.00
C1800  C     0.22867   0.76162   0.53954   0.00000  Uiso   1.00
C1801  C     0.22098   0.76927   0.58093   0.00000  Uiso   1.00
C1802  C     0.17651   0.82335   0.58225   0.00000  Uiso   1.00
C1803  C     0.32634   0.84190   0.73882   0.00000  Uiso   1.00
C1804  C     0.00750   0.82345   0.76317   0.00000  Uiso   1.00
C1805  C     0.18144   0.98943   0.74128   0.00000  Uiso   1.00
C1806  C     0.14927   0.67885   0.76251   0.00000  Uiso   1.00
C1807  C     0.15567   0.72297   0.75888   0.00000  Uiso   1.00
C1808  C     0.17677   0.94439   0.74186   0.00000  Uiso   1.00
C1809  C     0.18832   0.81136   0.64407   0.00000  Uiso   1.00
C1810  C     0.14560   0.85473   0.85621   0.00000  Uiso   1.00
C1811  C     0.13491   0.86248   0.89951   0.00000  Uiso   1.00
C1812  C     0.19648   0.80168   0.60149   0.00000  Uiso   1.00
C1813  C     0.09417   0.89684   0.96198   0.00000  Uiso   1.00
H1814  H     0.01574   0.85892   0.71609   0.00000  Uiso   1.00
H1815  H     0.15926   0.84854   0.59995   0.00000  Uiso   1.00
H1816  H     0.22415   0.74162   0.96567   0.00000  Uiso   1.00
H1817  H     0.09242   0.90827   0.90428   0.00000  Uiso   1.00
H1818  H     0.18155   0.82552   0.90252   0.00000  Uiso   1.00
H1819  H     0.11788   0.86779   0.57448   0.00000  Uiso   1.00
O1820  O     0.16667   0.83333   0.75000   0.00000  Uiso   1.00
O1821  O     0.17849   0.74768   0.77820   0.00000  Uiso   1.00
O1822  O     0.14581   0.92803   0.76767   0.00000  Uiso   1.00
O1823  O     0.07452   0.79917   0.73607   0.00000  Uiso   1.00
O1824  O     0.26785   0.85845   0.71805   0.00000  Uiso   1.00
O1825  O     0.06990   0.85627   0.77820   0.00000  Uiso   1.00
O1826  O     0.25440   0.81944   0.76767   0.00000  Uiso   1.00
O1827  O     0.13800   0.73570   0.73607   0.00000  Uiso   1.00
O1828  O     0.20437   0.92193   0.71805   0.00000  Uiso   1.00
O1829  O     0.15693   0.79060   0.66625   0.00000  Uiso   1.00
O1830  O     0.12687   0.87313   0.83749   0.00000  Uiso   1.00
O1831  O     0.21088   0.84159   0.65877   0.00000  Uiso   1.00
O1832  O     0.17198   0.82802   0.83749   0.00000  Uiso   1.00
Zn1833 Zn    0.19244   0.80756   0.78277   0.00000  Uiso   1.00
Zn1834 Zn    0.13459   0.79044   0.72257   0.00000  Uiso   1.00
Zn1835 Zn    0.21166   0.86331   0.71188   0.00000  Uiso   1.00
Zn1836 Zn    0.12798   0.87202   0.78277   0.00000  Uiso   1.00
O1837  O     0.07298   0.90589   0.54599   0.00000  Uiso   1.00
C1838  C     0.03859   0.88433   0.57259   0.00000  Uiso   1.00
H1839  H     0.03997   0.89655   0.60312   0.00000  Uiso   1.00
H1840  H     0.03927   0.84966   0.56903   0.00000  Uiso   1.00
C1841  C     0.32941   0.89280   0.56695   0.00000  Uiso   1.00
H1842  H     0.32816   0.92712   0.56957   0.00000  Uiso   1.00
H1843  H     0.32728   0.87877   0.53703   0.00000  Uiso   1.00
C1844  C     0.29106   0.87396   0.59739   0.00000  Uiso   1.00
H1845  H     0.29133   0.83954   0.59492   0.00000  Uiso   1.00
H1846  H     0.26083   0.88049   0.59215   0.00000  Uiso   1.00
H1847  H     0.29190   0.88799   0.62763   0.00000  Uiso   1.00
O1848  O     0.25677   0.73313   0.51765   0.00000  Uiso   1.00
C1849  C     0.29988   0.75027   0.51486   0.00000  Uiso   1.00
H1850  H     0.31932   0.72378   0.51069   0.00000  Uiso   1.00
H1851  H     0.30415   0.77029   0.54210   0.00000  Uiso   1.00
C1852  C     0.31765   0.77492   0.97918   0.00000  Uiso   1.00
H1853  H     0.31473   0.75427   0.95198   0.00000  Uiso   1.00
H1854  H     0.29875   0.80173   0.98287   0.00000  Uiso   1.00
C1855  C     0.03144   0.79169   0.97469   0.00000  Uiso   1.00
H1856  H     0.03479   0.81307   0.50129   0.00000  Uiso   1.00
H1857  H     0.04347   0.80934   0.94865   0.00000  Uiso   1.00
H1858  H     0.05132   0.76555   0.97052   0.00000  Uiso   1.00
Br1859 Br    0.30736   0.79211   0.80582   0.00000  Uiso   1.00
Br1860 Br    0.23571   0.68130   0.71046   0.00000  Uiso   1.00
O1861  O     0.10958   0.99237   0.78286   0.00000  Uiso   1.00
C1862  C     0.08036   0.68654   0.80756   0.00000  Uiso   1.00
H1863  H     0.04809   0.66836   0.81520   0.00000  Uiso   1.00
H1864  H     0.07627   0.71230   0.79220   0.00000  Uiso   1.00
C1865  C     0.09225   0.70281   0.84626   0.00000  Uiso   1.00
H1866  H     0.08589   0.67677   0.86471   0.00000  Uiso   1.00
H1867  H     0.12695   0.71439   0.84045   0.00000  Uiso   1.00
C1868  C     0.06613   0.73835   0.86903   0.00000  Uiso   1.00
H1869  H     0.07336   0.76534   0.85158   0.00000  Uiso   1.00
H1870  H     0.07475   0.74886   0.89713   0.00000  Uiso   1.00
H1871  H     0.03114   0.72769   0.87573   0.00000  Uiso   1.00
O1872  O     0.24046   0.74824   0.60109   0.00000  Uiso   1.00
C1873  C     0.22404   0.70534   0.60026   0.00000  Uiso   1.00
H1874  H     0.24849   0.68814   0.60553   0.00000  Uiso   1.00
H1875  H     0.21896   0.69103   0.57132   0.00000  Uiso   1.00
C1876  C     0.18210   0.69870   0.63289   0.00000  Uiso   1.00
H1877  H     0.18705   0.71388   0.66156   0.00000  Uiso   1.00
H1878  H     0.15643   0.71328   0.62661   0.00000  Uiso   1.00
C1879  C     0.16738   0.98557   0.63580   0.00000  Uiso   1.00
H1880  H     0.16099   0.97001   0.60774   0.00000  Uiso   1.00
H1881  H     0.13730   0.98194   0.66002   0.00000  Uiso   1.00
H1882  H     0.19232   0.97005   0.64224   0.00000  Uiso   1.00
O1883  O     0.07047   0.92949   0.98277   0.00000  Uiso   1.00
C1884  C     0.03407   0.93286   0.96974   0.00000  Uiso   1.00
H1885  H     0.00581   0.93389   0.99600   0.00000  Uiso   1.00
H1886  H     0.02571   0.90571   0.94908   0.00000  Uiso   1.00
C1887  C     0.04015   0.97413   0.95208   0.00000  Uiso   1.00
H1888  H     0.04607   0.66729   0.97427   0.00000  Uiso   1.00
H1889  H     0.06856   0.97465   0.92602   0.00000  Uiso   1.00
C1890  C     0.00062   0.98030   0.93975   0.00000  Uiso   1.00
H1891  H     0.32817   0.95487   0.91664   0.00000  Uiso   1.00
H1892  H     0.00592   0.67739   0.92766   0.00000  Uiso   1.00
H1893  H     0.30511   0.98053   0.96555   0.00000  Uiso   1.00
O1894  O     0.17781   0.76473   0.92586   0.00000  Uiso   1.00
C1895  C     0.15934   0.72249   0.92669   0.00000  Uiso   1.00
H1896  H     0.12876   0.71978   0.91827   0.00000  Uiso   1.00
H1897  H     0.15096   0.71087   0.95616   0.00000  Uiso   1.00
C1898  C     0.19003   0.69456   0.89636   0.00000  Uiso   1.00
H1899  H     0.19696   0.70528   0.86677   0.00000  Uiso   1.00
H1900  H     0.22086   0.69718   0.90438   0.00000  Uiso   1.00
C1901  C     0.17104   0.98214   0.89427   0.00000  Uiso   1.00
H1902  H     0.16287   0.97095   0.92373   0.00000  Uiso   1.00
H1903  H     0.19488   0.96265   0.87326   0.00000  Uiso   1.00
H1904  H     0.14174   0.97833   0.88369   0.00000  Uiso   1.00
C1905  C     0.38612   0.82699   0.75821   0.00000  Uiso   1.00
C1906  C     0.43866   0.89032   0.92049   0.00000  Uiso   1.00
C1907  C     0.48785   0.84166   0.91976   0.00000  Uiso   1.00
C1908  C     0.47505   0.84394   0.96108   0.00000  Uiso   1.00
C1909  C     0.44599   0.87352   0.98248   0.00000  Uiso   1.00
C1910  C     0.49282   0.81957   0.98148   0.00000  Uiso   1.00
C1911  C     0.48806   0.83097   0.52253   0.00000  Uiso   1.00
C1912  C     0.45880   0.86000   0.54300   0.00000  Uiso   1.00
C1913  C     0.43606   0.87906   0.52395   0.00000  Uiso   1.00
C1914  C     0.51411   0.78354   0.96280   0.00000  Uiso   1.00
C1915  C     0.53890   0.76688   0.98166   0.00000  Uiso   1.00
C1916  C     0.61416   0.84001   0.74152   0.00000  Uiso   1.00
C1917  C     0.53799   0.78046   0.52089   0.00000  Uiso   1.00
C1918  C     0.51151   0.81187   0.54214   0.00000  Uiso   1.00
C1919  C     0.56201   0.76162   0.53954   0.00000  Uiso   1.00
C1920  C     0.55432   0.76927   0.58093   0.00000  Uiso   1.00
C1921  C     0.50984   0.82335   0.58225   0.00000  Uiso   1.00
C1922  C     0.65967   0.84190   0.73882   0.00000  Uiso   1.00
C1923  C     0.34084   0.82345   0.76317   0.00000  Uiso   1.00
C1924  C     0.51477   0.98943   0.74128   0.00000  Uiso   1.00
C1925  C     0.48260   0.67885   0.76251   0.00000  Uiso   1.00
C1926  C     0.48900   0.72297   0.75888   0.00000  Uiso   1.00
C1927  C     0.51011   0.94439   0.74186   0.00000  Uiso   1.00
C1928  C     0.52166   0.81136   0.64407   0.00000  Uiso   1.00
C1929  C     0.47894   0.85473   0.85621   0.00000  Uiso   1.00
C1930  C     0.46824   0.86248   0.89951   0.00000  Uiso   1.00
C1931  C     0.52981   0.80168   0.60149   0.00000  Uiso   1.00
C1932  C     0.42750   0.89684   0.96198   0.00000  Uiso   1.00
H1933  H     0.34908   0.85892   0.71609   0.00000  Uiso   1.00
H1934  H     0.49260   0.84854   0.59995   0.00000  Uiso   1.00
H1935  H     0.55749   0.74162   0.96567   0.00000  Uiso   1.00
H1936  H     0.42575   0.90827   0.90428   0.00000  Uiso   1.00
H1937  H     0.51488   0.82552   0.90252   0.00000  Uiso   1.00
H1938  H     0.45121   0.86779   0.57448   0.00000  Uiso   1.00
O1939  O     0.50000   0.83333   0.75000   0.00000  Uiso   1.00
O1940  O     0.51182   0.74768   0.77820   0.00000  Uiso   1.00
O1941  O     0.47914   0.92803   0.76767   0.00000  Uiso   1.00
O1942  O     0.40785   0.79917   0.73607   0.00000  Uiso   1.00
O1943  O     0.60119   0.85845   0.71805   0.00000  Uiso   1.00
O1944  O     0.40323   0.85627   0.77820   0.00000  Uiso   1.00
O1945  O     0.58773   0.81944   0.76767   0.00000  Uiso   1.00
O1946  O     0.47133   0.73570   0.73607   0.00000  Uiso   1.00
O1947  O     0.53771   0.92193   0.71805   0.00000  Uiso   1.00
O1948  O     0.49027   0.79060   0.66625   0.00000  Uiso   1.00
O1949  O     0.46020   0.87313   0.83749   0.00000  Uiso   1.00
O1950  O     0.54421   0.84159   0.65877   0.00000  Uiso   1.00
O1951  O     0.50532   0.82802   0.83749   0.00000  Uiso   1.00
Zn1952 Zn    0.52577   0.80756   0.78277   0.00000  Uiso   1.00
Zn1953 Zn    0.46792   0.79044   0.72257   0.00000  Uiso   1.00
Zn1954 Zn    0.54500   0.86331   0.71188   0.00000  Uiso   1.00
Zn1955 Zn    0.46131   0.87202   0.78277   0.00000  Uiso   1.00
O1956  O     0.40631   0.90589   0.54599   0.00000  Uiso   1.00
C1957  C     0.37193   0.88433   0.57259   0.00000  Uiso   1.00
H1958  H     0.37330   0.89655   0.60312   0.00000  Uiso   1.00
H1959  H     0.37261   0.84966   0.56903   0.00000  Uiso   1.00
C1960  C     0.66275   0.89280   0.56695   0.00000  Uiso   1.00
H1961  H     0.66149   0.92712   0.56957   0.00000  Uiso   1.00
H1962  H     0.66061   0.87877   0.53703   0.00000  Uiso   1.00
C1963  C     0.62439   0.87396   0.59739   0.00000  Uiso   1.00
H1964  H     0.62466   0.83954   0.59492   0.00000  Uiso   1.00
H1965  H     0.59416   0.88049   0.59215   0.00000  Uiso   1.00
H1966  H     0.62524   0.88799   0.62763   0.00000  Uiso   1.00
O1967  O     0.59010   0.73313   0.51765   0.00000  Uiso   1.00
C1968  C     0.63322   0.75027   0.51486   0.00000  Uiso   1.00
H1969  H     0.65265   0.72378   0.51069   0.00000  Uiso   1.00
H1970  H     0.63748   0.77029   0.54210   0.00000  Uiso   1.00
C1971  C     0.65099   0.77492   0.97918   0.00000  Uiso   1.00
H1972  H     0.64806   0.75427   0.95198   0.00000  Uiso   1.00
H1973  H     0.63208   0.80173   0.98287   0.00000  Uiso   1.00
C1974  C     0.36477   0.79169   0.97469   0.00000  Uiso   1.00
H1975  H     0.36812   0.81307   0.50129   0.00000  Uiso   1.00
H1976  H     0.37680   0.80934   0.94865   0.00000  Uiso   1.00
H1977  H     0.38466   0.76555   0.97052   0.00000  Uiso   1.00
Br1978 Br    0.64069   0.79211   0.80582   0.00000  Uiso   1.00
Br1979 Br    0.56904   0.68130   0.71046   0.00000  Uiso   1.00
O1980  O     0.44292   0.99237   0.78286   0.00000  Uiso   1.00
C1981  C     0.41369   0.68654   0.80756   0.00000  Uiso   1.00
H1982  H     0.38142   0.66836   0.81520   0.00000  Uiso   1.00
H1983  H     0.40960   0.71230   0.79220   0.00000  Uiso   1.00
C1984  C     0.42559   0.70281   0.84626   0.00000  Uiso   1.00
H1985  H     0.41922   0.67677   0.86471   0.00000  Uiso   1.00
H1986  H     0.46028   0.71439   0.84045   0.00000  Uiso   1.00
C1987  C     0.39946   0.73835   0.86903   0.00000  Uiso   1.00
H1988  H     0.40669   0.76534   0.85158   0.00000  Uiso   1.00
H1989  H     0.40809   0.74886   0.89713   0.00000  Uiso   1.00
H1990  H     0.36447   0.72769   0.87573   0.00000  Uiso   1.00
O1991  O     0.57379   0.74824   0.60109   0.00000  Uiso   1.00
C1992  C     0.55737   0.70534   0.60026   0.00000  Uiso   1.00
H1993  H     0.58183   0.68814   0.60553   0.00000  Uiso   1.00
H1994  H     0.55229   0.69103   0.57132   0.00000  Uiso   1.00
C1995  C     0.51543   0.69870   0.63289   0.00000  Uiso   1.00
H1996  H     0.52038   0.71388   0.66156   0.00000  Uiso   1.00
H1997  H     0.48976   0.71328   0.62661   0.00000  Uiso   1.00
C1998  C     0.50071   0.98557   0.63580   0.00000  Uiso   1.00
H1999  H     0.49432   0.97001   0.60774   0.00000  Uiso   1.00
H2000  H     0.47063   0.98194   0.66002   0.00000  Uiso   1.00
H2001  H     0.52565   0.97005   0.64224   0.00000  Uiso   1.00
O2002  O     0.40381   0.92949   0.98277   0.00000  Uiso   1.00
C2003  C     0.36741   0.93286   0.96974   0.00000  Uiso   1.00
H2004  H     0.33915   0.93389   0.99600   0.00000  Uiso   1.00
H2005  H     0.35905   0.90571   0.94908   0.00000  Uiso   1.00
C2006  C     0.37348   0.97413   0.95208   0.00000  Uiso   1.00
H2007  H     0.37941   0.66729   0.97427   0.00000  Uiso   1.00
H2008  H     0.40189   0.97465   0.92602   0.00000  Uiso   1.00
C2009  C     0.33395   0.98030   0.93975   0.00000  Uiso   1.00
H2010  H     0.66151   0.95487   0.91664   0.00000  Uiso   1.00
H2011  H     0.33925   0.67739   0.92766   0.00000  Uiso   1.00
H2012  H     0.63845   0.98053   0.96555   0.00000  Uiso   1.00
O2013  O     0.51114   0.76473   0.92586   0.00000  Uiso   1.00
C2014  C     0.49267   0.72249   0.92669   0.00000  Uiso   1.00
H2015  H     0.46210   0.71978   0.91827   0.00000  Uiso   1.00
H2016  H     0.48429   0.71087   0.95616   0.00000  Uiso   1.00
C2017  C     0.52336   0.69456   0.89636   0.00000  Uiso   1.00
H2018  H     0.53029   0.70528   0.86677   0.00000  Uiso   1.00
H2019  H     0.55419   0.69718   0.90438   0.00000  Uiso   1.00
C2020  C     0.50438   0.98214   0.89427   0.00000  Uiso   1.00
H2021  H     0.49620   0.97095   0.92373   0.00000  Uiso   1.00
H2022  H     0.52822   0.96265   0.87326   0.00000  Uiso   1.00
H2023  H     0.47507   0.97833   0.88369   0.00000  Uiso   1.00
C2024  C     0.71946   0.82699   0.75821   0.00000  Uiso   1.00
C2025  C     0.77200   0.89032   0.92049   0.00000  Uiso   1.00
C2026  C     0.82118   0.84166   0.91976   0.00000  Uiso   1.00
C2027  C     0.80838   0.84394   0.96108   0.00000  Uiso   1.00
C2028  C     0.77932   0.87352   0.98248   0.00000  Uiso   1.00
C2029  C     0.82616   0.81957   0.98148   0.00000  Uiso   1.00
C2030  C     0.82139   0.83097   0.52253   0.00000  Uiso   1.00
C2031  C     0.79213   0.86000   0.54300   0.00000  Uiso   1.00
C2032  C     0.76939   0.87906   0.52395   0.00000  Uiso   1.00
C2033  C     0.84745   0.78354   0.96280   0.00000  Uiso   1.00
C2034  C     0.87224   0.76688   0.98166   0.00000  Uiso   1.00
C2035  C     0.94749   0.84001   0.74152   0.00000  Uiso   1.00
C2036  C     0.87133   0.78046   0.52089   0.00000  Uiso   1.00
C2037  C     0.84484   0.81187   0.54214   0.00000  Uiso   1.00
C2038  C     0.89534   0.76162   0.53954   0.00000  Uiso   1.00
C2039  C     0.88765   0.76927   0.58093   0.00000  Uiso   1.00
C2040  C     0.84317   0.82335   0.58225   0.00000  Uiso   1.00
C2041  C     0.99300   0.84190   0.73882   0.00000  Uiso   1.00
C2042  C     0.67417   0.82345   0.76317   0.00000  Uiso   1.00
C2043  C     0.84810   0.98943   0.74128   0.00000  Uiso   1.00
C2044  C     0.81593   0.67885   0.76251   0.00000  Uiso   1.00
C2045  C     0.82234   0.72297   0.75888   0.00000  Uiso   1.00
C2046  C     0.84344   0.94439   0.74186   0.00000  Uiso   1.00
C2047  C     0.85499   0.81136   0.64407   0.00000  Uiso   1.00
C2048  C     0.81227   0.85473   0.85621   0.00000  Uiso   1.00
C2049  C     0.80158   0.86248   0.89951   0.00000  Uiso   1.00
C2050  C     0.86314   0.80168   0.60149   0.00000  Uiso   1.00
C2051  C     0.76083   0.89684   0.96198   0.00000  Uiso   1.00
H2052  H     0.68241   0.85892   0.71609   0.00000  Uiso   1.00
H2053  H     0.82593   0.84854   0.59995   0.00000  Uiso   1.00
H2054  H     0.89082   0.74162   0.96567   0.00000  Uiso   1.00
H2055  H     0.75909   0.90827   0.90428   0.00000  Uiso   1.00
H2056  H     0.84822   0.82552   0.90252   0.00000  Uiso   1.00
H2057  H     0.78454   0.86779   0.57448   0.00000  Uiso   1.00
O2058  O     0.83333   0.83333   0.75000   0.00000  Uiso   1.00
O2059  O     0.84515   0.74768   0.77820   0.00000  Uiso   1.00
O2060  O     0.81247   0.92803   0.76767   0.00000  Uiso   1.00
O2061  O     0.74119   0.79917   0.73607   0.00000  Uiso   1.00
O2062  O     0.93452   0.85845   0.71805   0.00000  Uiso   1.00
O2063  O     0.73656   0.85627   0.77820   0.00000  Uiso   1.00
O2064  O     0.92106   0.81944   0.76767   0.00000  Uiso   1.00
O2065  O     0.80467   0.73570   0.73607   0.00000  Uiso   1.00
O2066  O     0.87104   0.92193   0.71805   0.00000  Uiso   1.00
O2067  O     0.82360   0.79060   0.66625   0.00000  Uiso   1.00
O2068  O     0.79354   0.87313   0.83749   0.00000  Uiso   1.00
O2069  O     0.87755   0.84159   0.65877   0.00000  Uiso   1.00
O2070  O     0.83865   0.82802   0.83749   0.00000  Uiso   1.00
Zn2071 Zn    0.85910   0.80756   0.78277   0.00000  Uiso   1.00
Zn2072 Zn    0.80125   0.79044   0.72257   0.00000  Uiso   1.00
Zn2073 Zn    0.87833   0.86331   0.71188   0.00000  Uiso   1.00
Zn2074 Zn    0.79465   0.87202   0.78277   0.00000  Uiso   1.00
O2075  O     0.73965   0.90589   0.54599   0.00000  Uiso   1.00
C2076  C     0.70526   0.88433   0.57259   0.00000  Uiso   1.00
H2077  H     0.70664   0.89655   0.60312   0.00000  Uiso   1.00
H2078  H     0.70594   0.84966   0.56903   0.00000  Uiso   1.00
C2079  C     0.99608   0.89280   0.56695   0.00000  Uiso   1.00
H2080  H     0.99482   0.92712   0.56957   0.00000  Uiso   1.00
H2081  H     0.99395   0.87877   0.53703   0.00000  Uiso   1.00
C2082  C     0.95772   0.87396   0.59739   0.00000  Uiso   1.00
H2083  H     0.95800   0.83954   0.59492   0.00000  Uiso   1.00
H2084  H     0.92750   0.88049   0.59215   0.00000  Uiso   1.00
H2085  H     0.95857   0.88799   0.62763   0.00000  Uiso   1.00
O2086  O     0.92343   0.73313   0.51765   0.00000  Uiso   1.00
C2087  C     0.96655   0.75027   0.51486   0.00000  Uiso   1.00
H2088  H     0.98599   0.72378   0.51069   0.00000  Uiso   1.00
H2089  H     0.97081   0.77029   0.54210   0.00000  Uiso   1.00
C2090  C     0.98432   0.77492   0.97918   0.00000  Uiso   1.00
H2091  H     0.98139   0.75427   0.95198   0.00000  Uiso   1.00
H2092  H     0.96542   0.80173   0.98287   0.00000  Uiso   1.00
C2093  C     0.69810   0.79169   0.97469   0.00000  Uiso   1.00
H2094  H     0.70145   0.81307   0.50129   0.00000  Uiso   1.00
H2095  H     0.71014   0.80934   0.94865   0.00000  Uiso   1.00
H2096  H     0.71799   0.76555   0.97052   0.00000  Uiso   1.00
Br2097 Br    0.97402   0.79211   0.80582   0.00000  Uiso   1.00
Br2098 Br    0.90237   0.68130   0.71046   0.00000  Uiso   1.00
O2099  O     0.77625   0.99237   0.78286   0.00000  Uiso   1.00
C2100  C     0.74702   0.68654   0.80756   0.00000  Uiso   1.00
H2101  H     0.71476   0.66836   0.81520   0.00000  Uiso   1.00
H2102  H     0.74294   0.71230   0.79220   0.00000  Uiso   1.00
C2103  C     0.75892   0.70281   0.84626   0.00000  Uiso   1.00
H2104  H     0.75255   0.67677   0.86471   0.00000  Uiso   1.00
H2105  H     0.79361   0.71439   0.84045   0.00000  Uiso   1.00
C2106  C     0.73279   0.73835   0.86903   0.00000  Uiso   1.00
H2107  H     0.74002   0.76534   0.85158   0.00000  Uiso   1.00
H2108  H     0.74142   0.74886   0.89713   0.00000  Uiso   1.00
H2109  H     0.69781   0.72769   0.87573   0.00000  Uiso   1.00
O2110  O     0.90712   0.74824   0.60109   0.00000  Uiso   1.00
C2111  C     0.89071   0.70534   0.60026   0.00000  Uiso   1.00
H2112  H     0.91516   0.68814   0.60553   0.00000  Uiso   1.00
H2113  H     0.88563   0.69103   0.57132   0.00000  Uiso   1.00
C2114  C     0.84877   0.69870   0.63289   0.00000  Uiso   1.00
H2115  H     0.85372   0.71388   0.66156   0.00000  Uiso   1.00
H2116  H     0.82310   0.71328   0.62661   0.00000  Uiso   1.00
C2117  C     0.83405   0.98557   0.63580   0.00000  Uiso   1.00
H2118  H     0.82765   0.97001   0.60774   0.00000  Uiso   1.00
H2119  H     0.80396   0.98194   0.66002   0.00000  Uiso   1.00
H2120  H     0.85898   0.97005   0.64224   0.00000  Uiso   1.00
O2121  O     0.73714   0.92949   0.98277   0.00000  Uiso   1.00
C2122  C     0.70074   0.93286   0.96974   0.00000  Uiso   1.00
H2123  H     0.67248   0.93389   0.99600   0.00000  Uiso   1.00
H2124  H     0.69238   0.90571   0.94908   0.00000  Uiso   1.00
C2125  C     0.70682   0.97413   0.95208   0.00000  Uiso   1.00
H2126  H     0.71274   0.66729   0.97427   0.00000  Uiso   1.00
H2127  H     0.73523   0.97465   0.92602   0.00000  Uiso   1.00
C2128  C     0.66729   0.98030   0.93975   0.00000  Uiso   1.00
H2129  H     0.99484   0.95487   0.91664   0.00000  Uiso   1.00
H2130  H     0.67258   0.67739   0.92766   0.00000  Uiso   1.00
H2131  H     0.97178   0.98053   0.96555   0.00000  Uiso   1.00
O2132  O     0.84448   0.76473   0.92586   0.00000  Uiso   1.00
C2133  C     0.82600   0.72249   0.92669   0.00000  Uiso   1.00
H2134  H     0.79543   0.71978   0.91827   0.00000  Uiso   1.00
H2135  H     0.81763   0.71087   0.95616   0.00000  Uiso   1.00
C2136  C     0.85669   0.69456   0.89636   0.00000  Uiso   1.00
H2137  H     0.86362   0.70528   0.86677   0.00000  Uiso   1.00
H2138  H     0.88752   0.69718   0.90438   0.00000  Uiso   1.00
C2139  C     0.83771   0.98214   0.89427   0.00000  Uiso   1.00
H2140  H     0.82954   0.97095   0.92373   0.00000  Uiso   1.00
H2141  H     0.86155   0.96265   0.87326   0.00000  Uiso   1.00
H2142  H     0.80840   0.97833   0.88369   0.00000  Uiso   1.00
loop_
_geom_bond_atom_site_label_1
_geom_bond_atom_site_label_2
_geom_bond_distance
_geom_bond_site_symmetry_2
_ccdc_geom_bond_type
C1     O40     1.262   .     A
C1     C19     1.427   .     S
C1     O38     1.262   .     A
C2     H32     1.081   .     S
C2     C26     1.395   .     A
C2     C28     1.408   .     A
C3     H33     1.076   .     S
C3     C4      1.404   .     A
C3     C26     1.390   .     A
C4     C5      1.427   .     A
C4     C6      1.431   .     A
C5     C28     1.425   .     A
C5     C1080   1.408   .     S
C6     C10     1.426   .     A
C6     C1078   1.422   .     S
C7     C8      1.411   .     A
C7     C14     1.428   .     A
C7     C1077   1.422   1_554 S
C8     C9      1.396   .     A
C8     H34     1.075   .     S
C9     O52     1.386   .     S
C9     C1076   1.408   1_554 S
C10    O109    1.388   .     S
C10    C11     1.398   .     A
C11    H31     1.083   .     S
C11    C1084   1.393   .     S
C12    O41     1.273   .     A
C12    O39     1.292   .     A
C12    C18     1.453   .     S
C13    C15     1.413   .     A
C13    C14     1.418   .     A
C13    C1082   1.393   1_554 S
C14    C17     1.409   .     A
C15    C16     1.412   .     A
C15    O63     1.388   .     S
C16    O87     1.389   .     S
C16    C27     1.401   .     A
C17    H30     1.077   .     S
C17    C27     1.390   .     A
C18    C138    1.348   .     S
C18    H148    1.088   .     S
C19    C256    1.348   1_455 S
C19    Br312   1.933   1_455 S
C20    C23     1.453   .     S
C20    C378    1.350   .     S
C20    Br432   1.936   .     S
C21    C22     1.440   .     S
C21    C734    1.350   1_545 S
C21    O790    1.406   1_545 S
C22    O36     1.275   .     A
C22    O42     1.268   .     A
C23    O43     1.277   .     A
C23    O37     1.268   .     A
C24    C27     1.456   .     S
C24    O44     1.275   .     A
C24    O46     1.279   .     A
C25    O47     1.286   .     A
C25    C26     1.471   .     S
C25    O45     1.281   .     A
C28    O98     1.395   .     S
H29    C256    1.088   1_455 S
O35    Zn49    1.934   .     S
O35    Zn48    1.961   .     S
O35    Zn50    1.947   .     S
O35    Zn51    1.927   .     S
O36    Zn48    1.927   .     S
O37    Zn51    1.938   .     S
O38    Zn49    1.933   .     S
O39    Zn50    1.940   .     S
O40    Zn51    1.936   .     S
O41    Zn48    1.933   .     S
O42    Zn49    1.941   .     S
O43    Zn50    1.928   .     S
O44    Zn49    1.929   .     S
O45    Zn51    1.935   .     S
O46    Zn50    1.923   .     S
O47    Zn48    1.918   .     S
O52    C53     1.418   .     S
C53    H54     1.111   .     S
C53    H55     1.118   .     S
C53    C294    1.527   1_455 S
C56    H57     1.112   .     S
C56    C59     1.522   .     S
C56    H58     1.111   .     S
C56    C172    1.527   .     S
C59    H60     1.111   .     S
C59    H61     1.110   .     S
C59    H62     1.111   .     S
O63    C64     1.417   .     S
C64    H66     1.115   .     S
C64    H65     1.111   .     S
C64    C1138   1.532   1_554 S
C67    H68     1.111   .     S
C67    H69     1.111   .     S
C67    C1135   1.532   .     S
C67    C189    1.525   .     S
C70    H73     1.111   .     S
C70    H72     1.110   .     S
C70    C305    1.525   1_455 S
C70    H1142   1.109   .     S
H71    C1141   1.109   1_554 S
Br74   C138    1.933   .     S
Br75   C734    1.936   1_545 S
O76    C378    1.406   .     S
O76    C434    1.419   .     S
C77    C80     1.536   .     S
C77    H78     1.111   .     S
C77    H79     1.111   .     S
C77    O790    1.419   1_545 S
C80    C83     1.526   .     S
C80    H82     1.109   .     S
C80    H81     1.110   .     S
C83    H84     1.111   .     S
C83    H85     1.108   .     S
C83    H86     1.111   .     S
O87    C88     1.419   .     S
C88    C91     1.532   .     S
C88    H90     1.112   .     S
C88    H89     1.111   .     S
C91    H92     1.110   .     S
C91    H93     1.111   .     S
C91    C808    1.527   1_545 S
C94    H97     1.111   .     S
C94    H96     1.110   .     S
C94    H95     1.111   .     S
C94    C448    1.527   .     S
O98    C99     1.418   .     S
C99    C102    1.532   .     S
C99    H101    1.115   .     S
C99    H100    1.109   .     S
C102   C105    1.526   .     S
C102   H104    1.108   .     S
C102   H460    1.112   .     S
H103   C816    1.112   1_545 S
C105   H344    1.111   1_455 S
C105   H464    1.110   .     S
C105   H346    1.111   1_455 S
H106   C224    1.111   .     S
H107   C819    1.110   1_545 S
H108   C224    1.111   .     S
O109   C110    1.418   .     S
C110   H111    1.110   .     S
C110   C113    1.530   .     S
C110   H112    1.117   .     S
C113   H114    1.112   .     S
C113   H115    1.111   .     S
C113   C830    1.525   1_545 S
C116   H117    1.111   .     S
C116   H119    1.109   .     S
C116   H118    1.110   .     S
C116   C470    1.525   .     S
C120   O159    1.262   .     A
C120   C138    1.427   .     S
C120   O157    1.262   .     A
C121   H151    1.081   .     S
C121   C145    1.395   .     A
C121   C147    1.408   .     A
C122   H152    1.076   .     S
C122   C123    1.404   .     A
C122   C145    1.390   .     A
C123   C124    1.427   .     A
C123   C125    1.431   .     A
C124   C147    1.425   .     A
C124   C1199   1.408   .     S
C125   C129    1.426   .     A
C125   C1197   1.422   .     S
C126   C127    1.411   .     A
C126   C133    1.428   .     A
C126   C1196   1.422   1_554 S
C127   C128    1.396   .     A
C127   H153    1.075   .     S
C128   O171    1.386   .     S
C128   C1195   1.408   1_554 S
C129   O228    1.388   .     S
C129   C130    1.398   .     A
C130   H150    1.083   .     S
C130   C1203   1.393   .     S
C131   O160    1.273   .     A
C131   O158    1.292   .     A
C131   C137    1.453   .     S
C132   C134    1.413   .     A
C132   C133    1.418   .     A
C132   C1201   1.393   1_554 S
C133   C136    1.409   .     A
C134   C135    1.412   .     A
C134   O182    1.388   .     S
C135   O206    1.389   .     S
C135   C146    1.401   .     A
C136   H149    1.077   .     S
C136   C146    1.390   .     A
C137   C257    1.348   .     S
C137   H267    1.088   .     S
C139   C142    1.453   .     S
C139   C497    1.350   .     S
C139   Br551   1.936   .     S
C140   C141    1.440   .     S
C140   C853    1.350   1_545 S
C140   O909    1.406   1_545 S
C141   O155    1.275   .     A
C141   O161    1.268   .     A
C142   O162    1.277   .     A
C142   O156    1.268   .     A
C143   C146    1.456   .     S
C143   O163    1.275   .     A
C143   O165    1.279   .     A
C144   O166    1.286   .     A
C144   C145    1.471   .     S
C144   O164    1.281   .     A
C147   O217    1.395   .     S
O154   Zn168   1.934   .     S
O154   Zn167   1.961   .     S
O154   Zn169   1.947   .     S
O154   Zn170   1.927   .     S
O155   Zn167   1.927   .     S
O156   Zn170   1.938   .     S
O157   Zn168   1.933   .     S
O158   Zn169   1.940   .     S
O159   Zn170   1.936   .     S
O160   Zn167   1.933   .     S
O161   Zn168   1.941   .     S
O162   Zn169   1.928   .     S
O163   Zn168   1.929   .     S
O164   Zn170   1.935   .     S
O165   Zn169   1.923   .     S
O166   Zn167   1.918   .     S
O171   C172    1.418   .     S
C172   H173    1.111   .     S
C172   H174    1.118   .     S
C175   H176    1.112   .     S
C175   C178    1.522   .     S
C175   H177    1.111   .     S
C175   C291    1.527   .     S
C178   H179    1.111   .     S
C178   H180    1.110   .     S
C178   H181    1.111   .     S
O182   C183    1.417   .     S
C183   H185    1.115   .     S
C183   H184    1.111   .     S
C183   C1257   1.532   1_554 S
C186   H187    1.111   .     S
C186   H188    1.111   .     S
C186   C1254   1.532   .     S
C186   C308    1.525   .     S
C189   H192    1.111   .     S
C189   H191    1.110   .     S
C189   H1261   1.109   .     S
H190   C1260   1.109   1_554 S
Br193  C257    1.933   .     S
Br194  C853    1.936   1_545 S
O195   C497    1.406   .     S
O195   C553    1.419   .     S
C196   C199    1.536   .     S
C196   H197    1.111   .     S
C196   H198    1.111   .     S
C196   O909    1.419   1_545 S
C199   C202    1.526   .     S
C199   H201    1.109   .     S
C199   H200    1.110   .     S
C202   H203    1.111   .     S
C202   H204    1.108   .     S
C202   H205    1.111   .     S
O206   C207    1.419   .     S
C207   C210    1.532   .     S
C207   H209    1.112   .     S
C207   H208    1.111   .     S
C210   H211    1.110   .     S
C210   H212    1.111   .     S
C210   C927    1.527   1_545 S
C213   H216    1.111   .     S
C213   H215    1.110   .     S
C213   H214    1.111   .     S
C213   C567    1.527   .     S
O217   C218    1.418   .     S
C218   C221    1.532   .     S
C218   H220    1.115   .     S
C218   H219    1.109   .     S
C221   C224    1.526   .     S
C221   H223    1.108   .     S
C221   H579    1.112   .     S
H222   C935    1.112   1_545 S
C224   H583    1.110   .     S
H225   C343    1.111   .     S
H226   C938    1.110   1_545 S
H227   C343    1.111   .     S
O228   C229    1.418   .     S
C229   H230    1.110   .     S
C229   C232    1.530   .     S
C229   H231    1.117   .     S
C232   H233    1.112   .     S
C232   H234    1.111   .     S
C232   C949    1.525   1_545 S
C235   H236    1.111   .     S
C235   H238    1.109   .     S
C235   H237    1.110   .     S
C235   C589    1.525   .     S
C239   O278    1.262   .     A
C239   C257    1.427   .     S
C239   O276    1.262   .     A
C240   H270    1.081   .     S
C240   C264    1.395   .     A
C240   C266    1.408   .     A
C241   H271    1.076   .     S
C241   C242    1.404   .     A
C241   C264    1.390   .     A
C242   C243    1.427   .     A
C242   C244    1.431   .     A
C243   C266    1.425   .     A
C243   C1318   1.408   .     S
C244   C248    1.426   .     A
C244   C1316   1.422   .     S
C245   C246    1.411   .     A
C245   C252    1.428   .     A
C245   C1315   1.422   1_554 S
C246   C247    1.396   .     A
C246   H272    1.075   .     S
C247   O290    1.386   .     S
C247   C1314   1.408   1_554 S
C248   O347    1.388   .     S
C248   C249    1.398   .     A
C249   H269    1.083   .     S
C249   C1322   1.393   .     S
C250   O279    1.273   .     A
C250   O277    1.292   .     A
C250   C256    1.453   .     S
C251   C253    1.413   .     A
C251   C252    1.418   .     A
C251   C1320   1.393   1_554 S
C252   C255    1.409   .     A
C253   C254    1.412   .     A
C253   O301    1.388   .     S
C254   O325    1.389   .     S
C254   C265    1.401   .     A
C255   H268    1.077   .     S
C255   C265    1.390   .     A
C256   C19     1.348   1_655 S
C256   H29     1.088   1_655 S
C258   C261    1.453   .     S
C258   C616    1.350   .     S
C258   Br670   1.936   .     S
C259   C260    1.440   .     S
C259   C972    1.350   1_545 S
C259   O1028   1.406   1_545 S
C260   O274    1.275   .     A
C260   O280    1.268   .     A
C261   O281    1.277   .     A
C261   O275    1.268   .     A
C262   C265    1.456   .     S
C262   O282    1.275   .     A
C262   O284    1.279   .     A
C263   O285    1.286   .     A
C263   C264    1.471   .     S
C263   O283    1.281   .     A
C266   O336    1.395   .     S
O273   Zn287   1.934   .     S
O273   Zn286   1.961   .     S
O273   Zn288   1.947   .     S
O273   Zn289   1.927   .     S
O274   Zn286   1.927   .     S
O275   Zn289   1.938   .     S
O276   Zn287   1.933   .     S
O277   Zn288   1.940   .     S
O278   Zn289   1.936   .     S
O279   Zn286   1.933   .     S
O280   Zn287   1.941   .     S
O281   Zn288   1.928   .     S
O282   Zn287   1.929   .     S
O283   Zn289   1.935   .     S
O284   Zn288   1.923   .     S
O285   Zn286   1.918   .     S
O290   C291    1.418   .     S
C291   H292    1.111   .     S
C291   H293    1.118   .     S
C294   H295    1.112   .     S
C294   C297    1.522   .     S
C294   H296    1.111   .     S
C294   C53     1.527   1_655 S
C297   H298    1.111   .     S
C297   H299    1.110   .     S
C297   H300    1.111   .     S
O301   C302    1.417   .     S
C302   H304    1.115   .     S
C302   H303    1.111   .     S
C302   C1376   1.532   1_554 S
C305   H306    1.111   .     S
C305   H307    1.111   .     S
C305   C1373   1.532   .     S
C305   C70     1.525   1_655 S
C308   H311    1.111   .     S
C308   H310    1.110   .     S
C308   H1380   1.109   .     S
H309   C1379   1.109   1_554 S
Br312  C19     1.933   1_655 S
Br313  C972    1.936   1_545 S
O314   C616    1.406   .     S
O314   C672    1.419   .     S
C315   C318    1.536   .     S
C315   H316    1.111   .     S
C315   H317    1.111   .     S
C315   O1028   1.419   1_545 S
C318   C321    1.526   .     S
C318   H320    1.109   .     S
C318   H319    1.110   .     S
C321   H322    1.111   .     S
C321   H323    1.108   .     S
C321   H324    1.111   .     S
O325   C326    1.419   .     S
C326   C329    1.532   .     S
C326   H328    1.112   .     S
C326   H327    1.111   .     S
C329   H330    1.110   .     S
C329   H331    1.111   .     S
C329   C1046   1.527   1_545 S
C332   H335    1.111   .     S
C332   H334    1.110   .     S
C332   H333    1.111   .     S
C332   C686    1.527   .     S
O336   C337    1.418   .     S
C337   C340    1.532   .     S
C337   H339    1.115   .     S
C337   H338    1.109   .     S
C340   C343    1.526   .     S
C340   H342    1.108   .     S
C340   H698    1.112   .     S
H341   C1054   1.112   1_545 S
C343   H702    1.110   .     S
H344   C105    1.111   1_655 S
H345   C1057   1.110   1_545 S
H346   C105    1.111   1_655 S
O347   C348    1.418   .     S
C348   H349    1.110   .     S
C348   C351    1.530   .     S
C348   H350    1.117   .     S
C351   H352    1.112   .     S
C351   H353    1.111   .     S
C351   C1068   1.525   1_545 S
C354   H355    1.111   .     S
C354   H357    1.109   .     S
C354   H356    1.110   .     S
C354   C708    1.525   .     S
C358   O397    1.262   .     A
C358   C376    1.427   .     S
C358   O395    1.262   .     A
C359   H389    1.081   .     S
C359   C383    1.395   .     A
C359   C385    1.408   .     A
C360   H390    1.076   .     S
C360   C361    1.404   .     A
C360   C383    1.390   .     A
C361   C362    1.427   .     A
C361   C363    1.431   .     A
C362   C385    1.425   .     A
C362   C1437   1.408   .     S
C363   C367    1.426   .     A
C363   C1435   1.422   .     S
C364   C365    1.411   .     A
C364   C371    1.428   .     A
C364   C1434   1.422   1_554 S
C365   C366    1.396   .     A
C365   H391    1.075   .     S
C366   O409    1.386   .     S
C366   C1433   1.408   1_554 S
C367   O466    1.388   .     S
C367   C368    1.398   .     A
C368   H388    1.083   .     S
C368   C1441   1.393   .     S
C369   O398    1.273   .     A
C369   O396    1.292   .     A
C369   C375    1.453   .     S
C370   C372    1.413   .     A
C370   C371    1.418   .     A
C370   C1439   1.393   1_554 S
C371   C374    1.409   .     A
C372   C373    1.412   .     A
C372   O420    1.388   .     S
C373   O444    1.389   .     S
C373   C384    1.401   .     A
C374   H387    1.077   .     S
C374   C384    1.390   .     A
C375   C495    1.348   .     S
C375   H505    1.088   .     S
C376   C613    1.348   1_455 S
C376   Br669   1.933   1_455 S
C377   C380    1.453   .     S
C377   C735    1.350   .     S
C377   Br789   1.936   .     S
C378   C379    1.440   .     S
C379   O393    1.275   .     A
C379   O399    1.268   .     A
C380   O400    1.277   .     A
C380   O394    1.268   .     A
C381   C384    1.456   .     S
C381   O401    1.275   .     A
C381   O403    1.279   .     A
C382   O404    1.286   .     A
C382   C383    1.471   .     S
C382   O402    1.281   .     A
C385   O455    1.395   .     S
H386   C613    1.088   1_455 S
O392   Zn406   1.934   .     S
O392   Zn405   1.961   .     S
O392   Zn407   1.947   .     S
O392   Zn408   1.927   .     S
O393   Zn405   1.927   .     S
O394   Zn408   1.938   .     S
O395   Zn406   1.933   .     S
O396   Zn407   1.940   .     S
O397   Zn408   1.936   .     S
O398   Zn405   1.933   .     S
O399   Zn406   1.941   .     S
O400   Zn407   1.928   .     S
O401   Zn406   1.929   .     S
O402   Zn408   1.935   .     S
O403   Zn407   1.923   .     S
O404   Zn405   1.918   .     S
O409   C410    1.418   .     S
C410   H411    1.111   .     S
C410   H412    1.118   .     S
C410   C651    1.527   1_455 S
C413   H414    1.112   .     S
C413   C416    1.522   .     S
C413   H415    1.111   .     S
C413   C529    1.527   .     S
C416   H417    1.111   .     S
C416   H418    1.110   .     S
C416   H419    1.111   .     S
O420   C421    1.417   .     S
C421   H423    1.115   .     S
C421   H422    1.111   .     S
C421   C1495   1.532   1_554 S
C424   H425    1.111   .     S
C424   H426    1.111   .     S
C424   C1492   1.532   .     S
C424   C546    1.525   .     S
C427   H430    1.111   .     S
C427   H429    1.110   .     S
C427   C662    1.525   1_455 S
C427   H1499   1.109   .     S
H428   C1498   1.109   1_554 S
Br431  C495    1.933   .     S
O433   C735    1.406   .     S
O433   C791    1.419   .     S
C434   C437    1.536   .     S
C434   H435    1.111   .     S
C434   H436    1.111   .     S
C437   C440    1.526   .     S
C437   H439    1.109   .     S
C437   H438    1.110   .     S
C440   H441    1.111   .     S
C440   H442    1.108   .     S
C440   H443    1.111   .     S
O444   C445    1.419   .     S
C445   C448    1.532   .     S
C445   H447    1.112   .     S
C445   H446    1.111   .     S
C448   H449    1.110   .     S
C448   H450    1.111   .     S
C451   H454    1.111   .     S
C451   H453    1.110   .     S
C451   H452    1.111   .     S
C451   C805    1.527   .     S
O455   C456    1.418   .     S
C456   C459    1.532   .     S
C456   H458    1.115   .     S
C456   H457    1.109   .     S
C459   C462    1.526   .     S
C459   H461    1.108   .     S
C459   H817    1.112   .     S
C462   H701    1.111   1_455 S
C462   H821    1.110   .     S
C462   H703    1.111   1_455 S
H463   C581    1.111   .     S
H465   C581    1.111   .     S
O466   C467    1.418   .     S
C467   H468    1.110   .     S
C467   C470    1.530   .     S
C467   H469    1.117   .     S
C470   H471    1.112   .     S
C470   H472    1.111   .     S
C473   H474    1.111   .     S
C473   H476    1.109   .     S
C473   H475    1.110   .     S
C473   C827    1.525   .     S
C477   O516    1.262   .     A
C477   C495    1.427   .     S
C477   O514    1.262   .     A
C478   H508    1.081   .     S
C478   C502    1.395   .     A
C478   C504    1.408   .     A
C479   H509    1.076   .     S
C479   C480    1.404   .     A
C479   C502    1.390   .     A
C480   C481    1.427   .     A
C480   C482    1.431   .     A
C481   C504    1.425   .     A
C481   C1556   1.408   .     S
C482   C486    1.426   .     A
C482   C1554   1.422   .     S
C483   C484    1.411   .     A
C483   C490    1.428   .     A
C483   C1553   1.422   1_554 S
C484   C485    1.396   .     A
C484   H510    1.075   .     S
C485   O528    1.386   .     S
C485   C1552   1.408   1_554 S
C486   O585    1.388   .     S
C486   C487    1.398   .     A
C487   H507    1.083   .     S
C487   C1560   1.393   .     S
C488   O517    1.273   .     A
C488   O515    1.292   .     A
C488   C494    1.453   .     S
C489   C491    1.413   .     A
C489   C490    1.418   .     A
C489   C1558   1.393   1_554 S
C490   C493    1.409   .     A
C491   C492    1.412   .     A
C491   O539    1.388   .     S
C492   O563    1.389   .     S
C492   C503    1.401   .     A
C493   H506    1.077   .     S
C493   C503    1.390   .     A
C494   C614    1.348   .     S
C494   H624    1.088   .     S
C496   C499    1.453   .     S
C496   C854    1.350   .     S
C496   Br908   1.936   .     S
C497   C498    1.440   .     S
C498   O512    1.275   .     A
C498   O518    1.268   .     A
C499   O519    1.277   .     A
C499   O513    1.268   .     A
C500   C503    1.456   .     S
C500   O520    1.275   .     A
C500   O522    1.279   .     A
C501   O523    1.286   .     A
C501   C502    1.471   .     S
C501   O521    1.281   .     A
C504   O574    1.395   .     S
O511   Zn525   1.934   .     S
O511   Zn524   1.961   .     S
O511   Zn526   1.947   .     S
O511   Zn527   1.927   .     S
O512   Zn524   1.927   .     S
O513   Zn527   1.938   .     S
O514   Zn525   1.933   .     S
O515   Zn526   1.940   .     S
O516   Zn527   1.936   .     S
O517   Zn524   1.933   .     S
O518   Zn525   1.941   .     S
O519   Zn526   1.928   .     S
O520   Zn525   1.929   .     S
O521   Zn527   1.935   .     S
O522   Zn526   1.923   .     S
O523   Zn524   1.918   .     S
O528   C529    1.418   .     S
C529   H530    1.111   .     S
C529   H531    1.118   .     S
C532   H533    1.112   .     S
C532   C535    1.522   .     S
C532   H534    1.111   .     S
C532   C648    1.527   .     S
C535   H536    1.111   .     S
C535   H537    1.110   .     S
C535   H538    1.111   .     S
O539   C540    1.417   .     S
C540   H542    1.115   .     S
C540   H541    1.111   .     S
C540   C1614   1.532   1_554 S
C543   H544    1.111   .     S
C543   H545    1.111   .     S
C543   C1611   1.532   .     S
C543   C665    1.525   .     S
C546   H549    1.111   .     S
C546   H548    1.110   .     S
C546   H1618   1.109   .     S
H547   C1617   1.109   1_554 S
Br550  C614    1.933   .     S
O552   C854    1.406   .     S
O552   C910    1.419   .     S
C553   C556    1.536   .     S
C553   H554    1.111   .     S
C553   H555    1.111   .     S
C556   C559    1.526   .     S
C556   H558    1.109   .     S
C556   H557    1.110   .     S
C559   H560    1.111   .     S
C559   H561    1.108   .     S
C559   H562    1.111   .     S
O563   C564    1.419   .     S
C564   C567    1.532   .     S
C564   H566    1.112   .     S
C564   H565    1.111   .     S
C567   H568    1.110   .     S
C567   H569    1.111   .     S
C570   H573    1.111   .     S
C570   H572    1.110   .     S
C570   H571    1.111   .     S
C570   C924    1.527   .     S
O574   C575    1.418   .     S
C575   C578    1.532   .     S
C575   H577    1.115   .     S
C575   H576    1.109   .     S
C578   C581    1.526   .     S
C578   H580    1.108   .     S
C578   H936    1.112   .     S
C581   H940    1.110   .     S
H582   C700    1.111   .     S
H584   C700    1.111   .     S
O585   C586    1.418   .     S
C586   H587    1.110   .     S
C586   C589    1.530   .     S
C586   H588    1.117   .     S
C589   H590    1.112   .     S
C589   H591    1.111   .     S
C592   H593    1.111   .     S
C592   H595    1.109   .     S
C592   H594    1.110   .     S
C592   C946    1.525   .     S
C596   O635    1.262   .     A
C596   C614    1.427   .     S
C596   O633    1.262   .     A
C597   H627    1.081   .     S
C597   C621    1.395   .     A
C597   C623    1.408   .     A
C598   H628    1.076   .     S
C598   C599    1.404   .     A
C598   C621    1.390   .     A
C599   C600    1.427   .     A
C599   C601    1.431   .     A
C600   C623    1.425   .     A
C600   C1675   1.408   .     S
C601   C605    1.426   .     A
C601   C1673   1.422   .     S
C602   C603    1.411   .     A
C602   C609    1.428   .     A
C602   C1672   1.422   1_554 S
C603   C604    1.396   .     A
C603   H629    1.075   .     S
C604   O647    1.386   .     S
C604   C1671   1.408   1_554 S
C605   O704    1.388   .     S
C605   C606    1.398   .     A
C606   H626    1.083   .     S
C606   C1679   1.393   .     S
C607   O636    1.273   .     A
C607   O634    1.292   .     A
C607   C613    1.453   .     S
C608   C610    1.413   .     A
C608   C609    1.418   .     A
C608   C1677   1.393   1_554 S
C609   C612    1.409   .     A
C610   C611    1.412   .     A
C610   O658    1.388   .     S
C611   O682    1.389   .     S
C611   C622    1.401   .     A
C612   H625    1.077   .     S
C612   C622    1.390   .     A
C613   C376    1.348   1_655 S
C613   H386    1.088   1_655 S
C615   C618    1.453   .     S
C615   C973    1.350   .     S
C615   Br1027  1.936   .     S
C616   C617    1.440   .     S
C617   O631    1.275   .     A
C617   O637    1.268   .     A
C618   O638    1.277   .     A
C618   O632    1.268   .     A
C619   C622    1.456   .     S
C619   O639    1.275   .     A
C619   O641    1.279   .     A
C620   O642    1.286   .     A
C620   C621    1.471   .     S
C620   O640    1.281   .     A
C623   O693    1.395   .     S
O630   Zn644   1.934   .     S
O630   Zn643   1.961   .     S
O630   Zn645   1.947   .     S
O630   Zn646   1.927   .     S
O631   Zn643   1.927   .     S
O632   Zn646   1.938   .     S
O633   Zn644   1.933   .     S
O634   Zn645   1.940   .     S
O635   Zn646   1.936   .     S
O636   Zn643   1.933   .     S
O637   Zn644   1.941   .     S
O638   Zn645   1.928   .     S
O639   Zn644   1.929   .     S
O640   Zn646   1.935   .     S
O641   Zn645   1.923   .     S
O642   Zn643   1.918   .     S
O647   C648    1.418   .     S
C648   H649    1.111   .     S
C648   H650    1.118   .     S
C651   H652    1.112   .     S
C651   C654    1.522   .     S
C651   H653    1.111   .     S
C651   C410    1.527   1_655 S
C654   H655    1.111   .     S
C654   H656    1.110   .     S
C654   H657    1.111   .     S
O658   C659    1.417   .     S
C659   H661    1.115   .     S
C659   H660    1.111   .     S
C659   C1733   1.532   1_554 S
C662   H663    1.111   .     S
C662   H664    1.111   .     S
C662   C1730   1.532   .     S
C662   C427    1.525   1_655 S
C665   H668    1.111   .     S
C665   H667    1.110   .     S
C665   H1737   1.109   .     S
H666   C1736   1.109   1_554 S
Br669  C376    1.933   1_655 S
O671   C973    1.406   .     S
O671   C1029   1.419   .     S
C672   C675    1.536   .     S
C672   H673    1.111   .     S
C672   H674    1.111   .     S
C675   C678    1.526   .     S
C675   H677    1.109   .     S
C675   H676    1.110   .     S
C678   H679    1.111   .     S
C678   H680    1.108   .     S
C678   H681    1.111   .     S
O682   C683    1.419   .     S
C683   C686    1.532   .     S
C683   H685    1.112   .     S
C683   H684    1.111   .     S
C686   H687    1.110   .     S
C686   H688    1.111   .     S
C689   H692    1.111   .     S
C689   H691    1.110   .     S
C689   H690    1.111   .     S
C689   C1043   1.527   .     S
O693   C694    1.418   .     S
C694   C697    1.532   .     S
C694   H696    1.115   .     S
C694   H695    1.109   .     S
C697   C700    1.526   .     S
C697   H699    1.108   .     S
C697   H1055   1.112   .     S
C700   H1059   1.110   .     S
H701   C462    1.111   1_655 S
H703   C462    1.111   1_655 S
O704   C705    1.418   .     S
C705   H706    1.110   .     S
C705   C708    1.530   .     S
C705   H707    1.117   .     S
C708   H709    1.112   .     S
C708   H710    1.111   .     S
C711   H712    1.111   .     S
C711   H714    1.109   .     S
C711   H713    1.110   .     S
C711   C1065   1.525   .     S
C715   O754    1.262   .     A
C715   C733    1.427   .     S
C715   O752    1.262   .     A
C716   H746    1.081   .     S
C716   C740    1.395   .     A
C716   C742    1.408   .     A
C717   H747    1.076   .     S
C717   C718    1.404   .     A
C717   C740    1.390   .     A
C718   C719    1.427   .     A
C718   C720    1.431   .     A
C719   C742    1.425   .     A
C719   C1794   1.408   .     S
C720   C724    1.426   .     A
C720   C1792   1.422   .     S
C721   C722    1.411   .     A
C721   C728    1.428   .     A
C721   C1791   1.422   1_554 S
C722   C723    1.396   .     A
C722   H748    1.075   .     S
C723   O766    1.386   .     S
C723   C1790   1.408   1_554 S
C724   O823    1.388   .     S
C724   C725    1.398   .     A
C725   H745    1.083   .     S
C725   C1798   1.393   .     S
C726   O755    1.273   .     A
C726   O753    1.292   .     A
C726   C732    1.453   .     S
C727   C729    1.413   .     A
C727   C728    1.418   .     A
C727   C1796   1.393   1_554 S
C728   C731    1.409   .     A
C729   C730    1.412   .     A
C729   O777    1.388   .     S
C730   O801    1.389   .     S
C730   C741    1.401   .     A
C731   H744    1.077   .     S
C731   C741    1.390   .     A
C732   C852    1.348   .     S
C732   H862    1.088   .     S
C733   C970    1.348   1_455 S
C733   Br1026  1.933   1_455 S
C734   C737    1.453   .     S
C734   C21     1.350   1_565 S
C734   Br75    1.936   1_565 S
C735   C736    1.440   .     S
C736   O750    1.275   .     A
C736   O756    1.268   .     A
C737   O757    1.277   .     A
C737   O751    1.268   .     A
C738   C741    1.456   .     S
C738   O758    1.275   .     A
C738   O760    1.279   .     A
C739   O761    1.286   .     A
C739   C740    1.471   .     S
C739   O759    1.281   .     A
C742   O812    1.395   .     S
H743   C970    1.088   1_455 S
O749   Zn763   1.934   .     S
O749   Zn762   1.961   .     S
O749   Zn764   1.947   .     S
O749   Zn765   1.927   .     S
O750   Zn762   1.927   .     S
O751   Zn765   1.938   .     S
O752   Zn763   1.933   .     S
O753   Zn764   1.940   .     S
O754   Zn765   1.936   .     S
O755   Zn762   1.933   .     S
O756   Zn763   1.941   .     S
O757   Zn764   1.928   .     S
O758   Zn763   1.929   .     S
O759   Zn765   1.935   .     S
O760   Zn764   1.923   .     S
O761   Zn762   1.918   .     S
O766   C767    1.418   .     S
C767   H768    1.111   .     S
C767   H769    1.118   .     S
C767   C1008   1.527   1_455 S
C770   H771    1.112   .     S
C770   C773    1.522   .     S
C770   H772    1.111   .     S
C770   C886    1.527   .     S
C773   H774    1.111   .     S
C773   H775    1.110   .     S
C773   H776    1.111   .     S
O777   C778    1.417   .     S
C778   H780    1.115   .     S
C778   H779    1.111   .     S
C778   C1852   1.532   1_554 S
C781   H782    1.111   .     S
C781   H783    1.111   .     S
C781   C1849   1.532   .     S
C781   C903    1.525   .     S
C784   H787    1.111   .     S
C784   H786    1.110   .     S
C784   C1019   1.525   1_455 S
C784   H1856   1.109   .     S
H785   C1855   1.109   1_554 S
Br788  C852    1.933   .     S
O790   C21     1.406   1_565 S
O790   C77     1.419   1_565 S
C791   C794    1.536   .     S
C791   H792    1.111   .     S
C791   H793    1.111   .     S
C794   C797    1.526   .     S
C794   H796    1.109   .     S
C794   H795    1.110   .     S
C797   H798    1.111   .     S
C797   H799    1.108   .     S
C797   H800    1.111   .     S
O801   C802    1.419   .     S
C802   C805    1.532   .     S
C802   H804    1.112   .     S
C802   H803    1.111   .     S
C805   H806    1.110   .     S
C805   H807    1.111   .     S
C808   H811    1.111   .     S
C808   H810    1.110   .     S
C808   H809    1.111   .     S
C808   C91     1.527   1_565 S
O812   C813    1.418   .     S
C813   C816    1.532   .     S
C813   H815    1.115   .     S
C813   H814    1.109   .     S
C816   C819    1.526   .     S
C816   H818    1.108   .     S
C816   H103    1.112   1_565 S
C819   H1058   1.111   1_455 S
C819   H107    1.110   1_565 S
C819   H1060   1.111   1_455 S
H820   C938    1.111   .     S
H822   C938    1.111   .     S
O823   C824    1.418   .     S
C824   H825    1.110   .     S
C824   C827    1.530   .     S
C824   H826    1.117   .     S
C827   H828    1.112   .     S
C827   H829    1.111   .     S
C830   H831    1.111   .     S
C830   H833    1.109   .     S
C830   H832    1.110   .     S
C830   C113    1.525   1_565 S
C834   O873    1.262   .     A
C834   C852    1.427   .     S
C834   O871    1.262   .     A
C835   H865    1.081   .     S
C835   C859    1.395   .     A
C835   C861    1.408   .     A
C836   H866    1.076   .     S
C836   C837    1.404   .     A
C836   C859    1.390   .     A
C837   C838    1.427   .     A
C837   C839    1.431   .     A
C838   C861    1.425   .     A
C838   C1913   1.408   .     S
C839   C843    1.426   .     A
C839   C1911   1.422   .     S
C840   C841    1.411   .     A
C840   C847    1.428   .     A
C840   C1910   1.422   1_554 S
C841   C842    1.396   .     A
C841   H867    1.075   .     S
C842   O885    1.386   .     S
C842   C1909   1.408   1_554 S
C843   O942    1.388   .     S
C843   C844    1.398   .     A
C844   H864    1.083   .     S
C844   C1917   1.393   .     S
C845   O874    1.273   .     A
C845   O872    1.292   .     A
C845   C851    1.453   .     S
C846   C848    1.413   .     A
C846   C847    1.418   .     A
C846   C1915   1.393   1_554 S
C847   C850    1.409   .     A
C848   C849    1.412   .     A
C848   O896    1.388   .     S
C849   O920    1.389   .     S
C849   C860    1.401   .     A
C850   H863    1.077   .     S
C850   C860    1.390   .     A
C851   C971    1.348   .     S
C851   H981    1.088   .     S
C853   C856    1.453   .     S
C853   C140    1.350   1_565 S
C853   Br194   1.936   1_565 S
C854   C855    1.440   .     S
C855   O869    1.275   .     A
C855   O875    1.268   .     A
C856   O876    1.277   .     A
C856   O870    1.268   .     A
C857   C860    1.456   .     S
C857   O877    1.275   .     A
C857   O879    1.279   .     A
C858   O880    1.286   .     A
C858   C859    1.471   .     S
C858   O878    1.281   .     A
C861   O931    1.395   .     S
O868   Zn882   1.934   .     S
O868   Zn881   1.961   .     S
O868   Zn883   1.947   .     S
O868   Zn884   1.927   .     S
O869   Zn881   1.927   .     S
O870   Zn884   1.938   .     S
O871   Zn882   1.933   .     S
O872   Zn883   1.940   .     S
O873   Zn884   1.936   .     S
O874   Zn881   1.933   .     S
O875   Zn882   1.941   .     S
O876   Zn883   1.928   .     S
O877   Zn882   1.929   .     S
O878   Zn884   1.935   .     S
O879   Zn883   1.923   .     S
O880   Zn881   1.918   .     S
O885   C886    1.418   .     S
C886   H887    1.111   .     S
C886   H888    1.118   .     S
C889   H890    1.112   .     S
C889   C892    1.522   .     S
C889   H891    1.111   .     S
C889   C1005   1.527   .     S
C892   H893    1.111   .     S
C892   H894    1.110   .     S
C892   H895    1.111   .     S
O896   C897    1.417   .     S
C897   H899    1.115   .     S
C897   H898    1.111   .     S
C897   C1971   1.532   1_554 S
C900   H901    1.111   .     S
C900   H902    1.111   .     S
C900   C1968   1.532   .     S
C900   C1022   1.525   .     S
C903   H906    1.111   .     S
C903   H905    1.110   .     S
C903   H1975   1.109   .     S
H904   C1974   1.109   1_554 S
Br907  C971    1.933   .     S
O909   C140    1.406   1_565 S
O909   C196    1.419   1_565 S
C910   C913    1.536   .     S
C910   H911    1.111   .     S
C910   H912    1.111   .     S
C913   C916    1.526   .     S
C913   H915    1.109   .     S
C913   H914    1.110   .     S
C916   H917    1.111   .     S
C916   H918    1.108   .     S
C916   H919    1.111   .     S
O920   C921    1.419   .     S
C921   C924    1.532   .     S
C921   H923    1.112   .     S
C921   H922    1.111   .     S
C924   H925    1.110   .     S
C924   H926    1.111   .     S
C927   H930    1.111   .     S
C927   H929    1.110   .     S
C927   H928    1.111   .     S
C927   C210    1.527   1_565 S
O931   C932    1.418   .     S
C932   C935    1.532   .     S
C932   H934    1.115   .     S
C932   H933    1.109   .     S
C935   C938    1.526   .     S
C935   H937    1.108   .     S
C935   H222    1.112   1_565 S
C938   H226    1.110   1_565 S
H939   C1057   1.111   .     S
H941   C1057   1.111   .     S
O942   C943    1.418   .     S
C943   H944    1.110   .     S
C943   C946    1.530   .     S
C943   H945    1.117   .     S
C946   H947    1.112   .     S
C946   H948    1.111   .     S
C949   H950    1.111   .     S
C949   H952    1.109   .     S
C949   H951    1.110   .     S
C949   C232    1.525   1_565 S
C953   O992    1.262   .     A
C953   C971    1.427   .     S
C953   O990    1.262   .     A
C954   H984    1.081   .     S
C954   C978    1.395   .     A
C954   C980    1.408   .     A
C955   H985    1.076   .     S
C955   C956    1.404   .     A
C955   C978    1.390   .     A
C956   C957    1.427   .     A
C956   C958    1.431   .     A
C957   C980    1.425   .     A
C957   C2032   1.408   .     S
C958   C962    1.426   .     A
C958   C2030   1.422   .     S
C959   C960    1.411   .     A
C959   C966    1.428   .     A
C959   C2029   1.422   1_554 S
C960   C961    1.396   .     A
C960   H986    1.075   .     S
C961   O1004   1.386   .     S
C961   C2028   1.408   1_554 S
C962   O1061   1.388   .     S
C962   C963    1.398   .     A
C963   H983    1.083   .     S
C963   C2036   1.393   .     S
C964   O993    1.273   .     A
C964   O991    1.292   .     A
C964   C970    1.453   .     S
C965   C967    1.413   .     A
C965   C966    1.418   .     A
C965   C2034   1.393   1_554 S
C966   C969    1.409   .     A
C967   C968    1.412   .     A
C967   O1015   1.388   .     S
C968   O1039   1.389   .     S
C968   C979    1.401   .     A
C969   H982    1.077   .     S
C969   C979    1.390   .     A
C970   C733    1.348   1_655 S
C970   H743    1.088   1_655 S
C972   C975    1.453   .     S
C972   C259    1.350   1_565 S
C972   Br313   1.936   1_565 S
C973   C974    1.440   .     S
C974   O988    1.275   .     A
C974   O994    1.268   .     A
C975   O995    1.277   .     A
C975   O989    1.268   .     A
C976   C979    1.456   .     S
C976   O996    1.275   .     A
C976   O998    1.279   .     A
C977   O999    1.286   .     A
C977   C978    1.471   .     S
C977   O997    1.281   .     A
C980   O1050   1.395   .     S
O987   Zn1001  1.934   .     S
O987   Zn1000  1.961   .     S
O987   Zn1002  1.947   .     S
O987   Zn1003  1.927   .     S
O988   Zn1000  1.927   .     S
O989   Zn1003  1.938   .     S
O990   Zn1001  1.933   .     S
O991   Zn1002  1.940   .     S
O992   Zn1003  1.936   .     S
O993   Zn1000  1.933   .     S
O994   Zn1001  1.941   .     S
O995   Zn1002  1.928   .     S
O996   Zn1001  1.929   .     S
O997   Zn1003  1.935   .     S
O998   Zn1002  1.923   .     S
O999   Zn1000  1.918   .     S
O1004  C1005   1.418   .     S
C1005  H1006   1.111   .     S
C1005  H1007   1.118   .     S
C1008  H1009   1.112   .     S
C1008  C1011   1.522   .     S
C1008  H1010   1.111   .     S
C1008  C767    1.527   1_655 S
C1011  H1012   1.111   .     S
C1011  H1013   1.110   .     S
C1011  H1014   1.111   .     S
O1015  C1016   1.417   .     S
C1016  H1018   1.115   .     S
C1016  H1017   1.111   .     S
C1016  C2090   1.532   1_554 S
C1019  H1020   1.111   .     S
C1019  H1021   1.111   .     S
C1019  C2087   1.532   .     S
C1019  C784    1.525   1_655 S
C1022  H1025   1.111   .     S
C1022  H1024   1.110   .     S
C1022  H2094   1.109   .     S
H1023  C2093   1.109   1_554 S
Br1026 C733    1.933   1_655 S
O1028  C259    1.406   1_565 S
O1028  C315    1.419   1_565 S
C1029  C1032   1.536   .     S
C1029  H1030   1.111   .     S
C1029  H1031   1.111   .     S
C1032  C1035   1.526   .     S
C1032  H1034   1.109   .     S
C1032  H1033   1.110   .     S
C1035  H1036   1.111   .     S
C1035  H1037   1.108   .     S
C1035  H1038   1.111   .     S
O1039  C1040   1.419   .     S
C1040  C1043   1.532   .     S
C1040  H1042   1.112   .     S
C1040  H1041   1.111   .     S
C1043  H1044   1.110   .     S
C1043  H1045   1.111   .     S
C1046  H1049   1.111   .     S
C1046  H1048   1.110   .     S
C1046  H1047   1.111   .     S
C1046  C329    1.527   1_565 S
O1050  C1051   1.418   .     S
C1051  C1054   1.532   .     S
C1051  H1053   1.115   .     S
C1051  H1052   1.109   .     S
C1054  C1057   1.526   .     S
C1054  H1056   1.108   .     S
C1054  H341    1.112   1_565 S
C1057  H345    1.110   1_565 S
H1058  C819    1.111   1_655 S
H1060  C819    1.111   1_655 S
O1061  C1062   1.418   .     S
C1062  H1063   1.110   .     S
C1062  C1065   1.530   .     S
C1062  H1064   1.117   .     S
C1065  H1066   1.112   .     S
C1065  H1067   1.111   .     S
C1068  H1069   1.111   .     S
C1068  H1071   1.109   .     S
C1068  H1070   1.110   .     S
C1068  C351    1.525   1_565 S
C1072  O1111   1.262   .     A
C1072  C1090   1.427   .     S
C1072  O1109   1.262   .     A
C1073  H1103   1.081   .     S
C1073  C1097   1.395   .     A
C1073  C1099   1.408   .     A
C1074  H1104   1.076   .     S
C1074  C1075   1.404   .     A
C1074  C1097   1.390   .     A
C1075  C1076   1.427   .     A
C1075  C1077   1.431   .     A
C1076  C1099   1.425   .     A
C1076  C9      1.408   1_556 S
C1077  C1081   1.426   .     A
C1077  C7      1.422   1_556 S
C1078  C1079   1.411   .     A
C1078  C1085   1.428   .     A
C1079  C1080   1.396   .     A
C1079  H1105   1.075   .     S
C1080  O1123   1.386   .     S
C1081  O1180   1.388   .     S
C1081  C1082   1.398   .     A
C1082  H1102   1.083   .     S
C1082  C13     1.393   1_556 S
C1083  O1112   1.273   .     A
C1083  O1110   1.292   .     A
C1083  C1089   1.453   .     S
C1084  C1086   1.413   .     A
C1084  C1085   1.418   .     A
C1085  C1088   1.409   .     A
C1086  C1087   1.412   .     A
C1086  O1134   1.388   .     S
C1087  O1158   1.389   .     S
C1087  C1098   1.401   .     A
C1088  H1101   1.077   .     S
C1088  C1098   1.390   .     A
C1089  C1209   1.348   .     S
C1089  H1219   1.088   .     S
C1090  C1327   1.348   1_455 S
C1090  Br1383  1.933   1_455 S
C1091  C1094   1.453   .     S
C1091  C1449   1.350   .     S
C1091  Br1503  1.936   .     S
C1092  C1093   1.440   .     S
C1092  C1805   1.350   1_545 S
C1092  O1861   1.406   1_545 S
C1093  O1107   1.275   .     A
C1093  O1113   1.268   .     A
C1094  O1114   1.277   .     A
C1094  O1108   1.268   .     A
C1095  C1098   1.456   .     S
C1095  O1115   1.275   .     A
C1095  O1117   1.279   .     A
C1096  O1118   1.286   .     A
C1096  C1097   1.471   .     S
C1096  O1116   1.281   .     A
C1099  O1169   1.395   .     S
H1100  C1327   1.088   1_455 S
O1106  Zn1120  1.934   .     S
O1106  Zn1119  1.961   .     S
O1106  Zn1121  1.947   .     S
O1106  Zn1122  1.927   .     S
O1107  Zn1119  1.927   .     S
O1108  Zn1122  1.938   .     S
O1109  Zn1120  1.933   .     S
O1110  Zn1121  1.940   .     S
O1111  Zn1122  1.936   .     S
O1112  Zn1119  1.933   .     S
O1113  Zn1120  1.941   .     S
O1114  Zn1121  1.928   .     S
O1115  Zn1120  1.929   .     S
O1116  Zn1122  1.935   .     S
O1117  Zn1121  1.923   .     S
O1118  Zn1119  1.918   .     S
O1123  C1124   1.418   .     S
C1124  H1125   1.111   .     S
C1124  H1126   1.118   .     S
C1124  C1365   1.527   1_455 S
C1127  H1128   1.112   .     S
C1127  C1130   1.522   .     S
C1127  H1129   1.111   .     S
C1127  C1243   1.527   .     S
C1130  H1131   1.111   .     S
C1130  H1132   1.110   .     S
C1130  H1133   1.111   .     S
O1134  C1135   1.417   .     S
C1135  H1137   1.115   .     S
C1135  H1136   1.111   .     S
C1138  H1139   1.111   .     S
C1138  H1140   1.111   .     S
C1138  C64     1.532   1_556 S
C1138  C1260   1.525   .     S
C1141  H1144   1.111   .     S
C1141  H1143   1.110   .     S
C1141  C1376   1.525   1_455 S
C1141  H71     1.109   1_556 S
Br1145 C1209   1.933   .     S
Br1146 C1805   1.936   1_545 S
O1147  C1449   1.406   .     S
O1147  C1505   1.419   .     S
C1148  C1151   1.536   .     S
C1148  H1149   1.111   .     S
C1148  H1150   1.111   .     S
C1148  O1861   1.419   1_545 S
C1151  C1154   1.526   .     S
C1151  H1153   1.109   .     S
C1151  H1152   1.110   .     S
C1154  H1155   1.111   .     S
C1154  H1156   1.108   .     S
C1154  H1157   1.111   .     S
O1158  C1159   1.419   .     S
C1159  C1162   1.532   .     S
C1159  H1161   1.112   .     S
C1159  H1160   1.111   .     S
C1162  H1163   1.110   .     S
C1162  H1164   1.111   .     S
C1162  C1879   1.527   1_545 S
C1165  H1168   1.111   .     S
C1165  H1167   1.110   .     S
C1165  H1166   1.111   .     S
C1165  C1519   1.527   .     S
O1169  C1170   1.418   .     S
C1170  C1173   1.532   .     S
C1170  H1172   1.115   .     S
C1170  H1171   1.109   .     S
C1173  C1176   1.526   .     S
C1173  H1175   1.108   .     S
C1173  H1531   1.112   .     S
H1174  C1887   1.112   1_545 S
C1176  H1415   1.111   1_455 S
C1176  H1535   1.110   .     S
C1176  H1417   1.111   1_455 S
H1177  C1295   1.111   .     S
H1178  C1890   1.110   1_545 S
H1179  C1295   1.111   .     S
O1180  C1181   1.418   .     S
C1181  H1182   1.110   .     S
C1181  C1184   1.530   .     S
C1181  H1183   1.117   .     S
C1184  H1185   1.112   .     S
C1184  H1186   1.111   .     S
C1184  C1901   1.525   1_545 S
C1187  H1188   1.111   .     S
C1187  H1190   1.109   .     S
C1187  H1189   1.110   .     S
C1187  C1541   1.525   .     S
C1191  O1230   1.262   .     A
C1191  C1209   1.427   .     S
C1191  O1228   1.262   .     A
C1192  H1222   1.081   .     S
C1192  C1216   1.395   .     A
C1192  C1218   1.408   .     A
C1193  H1223   1.076   .     S
C1193  C1194   1.404   .     A
C1193  C1216   1.390   .     A
C1194  C1195   1.427   .     A
C1194  C1196   1.431   .     A
C1195  C1218   1.425   .     A
C1195  C128    1.408   1_556 S
C1196  C1200   1.426   .     A
C1196  C126    1.422   1_556 S
C1197  C1198   1.411   .     A
C1197  C1204   1.428   .     A
C1198  C1199   1.396   .     A
C1198  H1224   1.075   .     S
C1199  O1242   1.386   .     S
C1200  O1299   1.388   .     S
C1200  C1201   1.398   .     A
C1201  H1221   1.083   .     S
C1201  C132    1.393   1_556 S
C1202  O1231   1.273   .     A
C1202  O1229   1.292   .     A
C1202  C1208   1.453   .     S
C1203  C1205   1.413   .     A
C1203  C1204   1.418   .     A
C1204  C1207   1.409   .     A
C1205  C1206   1.412   .     A
C1205  O1253   1.388   .     S
C1206  O1277   1.389   .     S
C1206  C1217   1.401   .     A
C1207  H1220   1.077   .     S
C1207  C1217   1.390   .     A
C1208  C1328   1.348   .     S
C1208  H1338   1.088   .     S
C1210  C1213   1.453   .     S
C1210  C1568   1.350   .     S
C1210  Br1622  1.936   .     S
C1211  C1212   1.440   .     S
C1211  C1924   1.350   1_545 S
C1211  O1980   1.406   1_545 S
C1212  O1226   1.275   .     A
C1212  O1232   1.268   .     A
C1213  O1233   1.277   .     A
C1213  O1227   1.268   .     A
C1214  C1217   1.456   .     S
C1214  O1234   1.275   .     A
C1214  O1236   1.279   .     A
C1215  O1237   1.286   .     A
C1215  C1216   1.471   .     S
C1215  O1235   1.281   .     A
C1218  O1288   1.395   .     S
O1225  Zn1239  1.934   .     S
O1225  Zn1238  1.961   .     S
O1225  Zn1240  1.947   .     S
O1225  Zn1241  1.927   .     S
O1226  Zn1238  1.927   .     S
O1227  Zn1241  1.938   .     S
O1228  Zn1239  1.933   .     S
O1229  Zn1240  1.940   .     S
O1230  Zn1241  1.936   .     S
O1231  Zn1238  1.933   .     S
O1232  Zn1239  1.941   .     S
O1233  Zn1240  1.928   .     S
O1234  Zn1239  1.929   .     S
O1235  Zn1241  1.935   .     S
O1236  Zn1240  1.923   .     S
O1237  Zn1238  1.918   .     S
O1242  C1243   1.418   .     S
C1243  H1244   1.111   .     S
C1243  H1245   1.118   .     S
C1246  H1247   1.112   .     S
C1246  C1249   1.522   .     S
C1246  H1248   1.111   .     S
C1246  C1362   1.527   .     S
C1249  H1250   1.111   .     S
C1249  H1251   1.110   .     S
C1249  H1252   1.111   .     S
O1253  C1254   1.417   .     S
C1254  H1256   1.115   .     S
C1254  H1255   1.111   .     S
C1257  H1258   1.111   .     S
C1257  H1259   1.111   .     S
C1257  C183    1.532   1_556 S
C1257  C1379   1.525   .     S
C1260  H1263   1.111   .     S
C1260  H1262   1.110   .     S
C1260  H190    1.109   1_556 S
Br1264 C1328   1.933   .     S
Br1265 C1924   1.936   1_545 S
O1266  C1568   1.406   .     S
O1266  C1624   1.419   .     S
C1267  C1270   1.536   .     S
C1267  H1268   1.111   .     S
C1267  H1269   1.111   .     S
C1267  O1980   1.419   1_545 S
C1270  C1273   1.526   .     S
C1270  H1272   1.109   .     S
C1270  H1271   1.110   .     S
C1273  H1274   1.111   .     S
C1273  H1275   1.108   .     S
C1273  H1276   1.111   .     S
O1277  C1278   1.419   .     S
C1278  C1281   1.532   .     S
C1278  H1280   1.112   .     S
C1278  H1279   1.111   .     S
C1281  H1282   1.110   .     S
C1281  H1283   1.111   .     S
C1281  C1998   1.527   1_545 S
C1284  H1287   1.111   .     S
C1284  H1286   1.110   .     S
C1284  H1285   1.111   .     S
C1284  C1638   1.527   .     S
O1288  C1289   1.418   .     S
C1289  C1292   1.532   .     S
C1289  H1291   1.115   .     S
C1289  H1290   1.109   .     S
C1292  C1295   1.526   .     S
C1292  H1294   1.108   .     S
C1292  H1650   1.112   .     S
H1293  C2006   1.112   1_545 S
C1295  H1654   1.110   .     S
H1296  C1414   1.111   .     S
H1297  C2009   1.110   1_545 S
H1298  C1414   1.111   .     S
O1299  C1300   1.418   .     S
C1300  H1301   1.110   .     S
C1300  C1303   1.530   .     S
C1300  H1302   1.117   .     S
C1303  H1304   1.112   .     S
C1303  H1305   1.111   .     S
C1303  C2020   1.525   1_545 S
C1306  H1307   1.111   .     S
C1306  H1309   1.109   .     S
C1306  H1308   1.110   .     S
C1306  C1660   1.525   .     S
C1310  O1349   1.262   .     A
C1310  C1328   1.427   .     S
C1310  O1347   1.262   .     A
C1311  H1341   1.081   .     S
C1311  C1335   1.395   .     A
C1311  C1337   1.408   .     A
C1312  H1342   1.076   .     S
C1312  C1313   1.404   .     A
C1312  C1335   1.390   .     A
C1313  C1314   1.427   .     A
C1313  C1315   1.431   .     A
C1314  C1337   1.425   .     A
C1314  C247    1.408   1_556 S
C1315  C1319   1.426   .     A
C1315  C245    1.422   1_556 S
C1316  C1317   1.411   .     A
C1316  C1323   1.428   .     A
C1317  C1318   1.396   .     A
C1317  H1343   1.075   .     S
C1318  O1361   1.386   .     S
C1319  O1418   1.388   .     S
C1319  C1320   1.398   .     A
C1320  H1340   1.083   .     S
C1320  C251    1.393   1_556 S
C1321  O1350   1.273   .     A
C1321  O1348   1.292   .     A
C1321  C1327   1.453   .     S
C1322  C1324   1.413   .     A
C1322  C1323   1.418   .     A
C1323  C1326   1.409   .     A
C1324  C1325   1.412   .     A
C1324  O1372   1.388   .     S
C1325  O1396   1.389   .     S
C1325  C1336   1.401   .     A
C1326  H1339   1.077   .     S
C1326  C1336   1.390   .     A
C1327  C1090   1.348   1_655 S
C1327  H1100   1.088   1_655 S
C1329  C1332   1.453   .     S
C1329  C1687   1.350   .     S
C1329  Br1741  1.936   .     S
C1330  C1331   1.440   .     S
C1330  C2043   1.350   1_545 S
C1330  O2099   1.406   1_545 S
C1331  O1345   1.275   .     A
C1331  O1351   1.268   .     A
C1332  O1352   1.277   .     A
C1332  O1346   1.268   .     A
C1333  C1336   1.456   .     S
C1333  O1353   1.275   .     A
C1333  O1355   1.279   .     A
C1334  O1356   1.286   .     A
C1334  C1335   1.471   .     S
C1334  O1354   1.281   .     A
C1337  O1407   1.395   .     S
O1344  Zn1358  1.934   .     S
O1344  Zn1357  1.961   .     S
O1344  Zn1359  1.947   .     S
O1344  Zn1360  1.927   .     S
O1345  Zn1357  1.927   .     S
O1346  Zn1360  1.938   .     S
O1347  Zn1358  1.933   .     S
O1348  Zn1359  1.940   .     S
O1349  Zn1360  1.936   .     S
O1350  Zn1357  1.933   .     S
O1351  Zn1358  1.941   .     S
O1352  Zn1359  1.928   .     S
O1353  Zn1358  1.929   .     S
O1354  Zn1360  1.935   .     S
O1355  Zn1359  1.923   .     S
O1356  Zn1357  1.918   .     S
O1361  C1362   1.418   .     S
C1362  H1363   1.111   .     S
C1362  H1364   1.118   .     S
C1365  H1366   1.112   .     S
C1365  C1368   1.522   .     S
C1365  H1367   1.111   .     S
C1365  C1124   1.527   1_655 S
C1368  H1369   1.111   .     S
C1368  H1370   1.110   .     S
C1368  H1371   1.111   .     S
O1372  C1373   1.417   .     S
C1373  H1375   1.115   .     S
C1373  H1374   1.111   .     S
C1376  H1377   1.111   .     S
C1376  H1378   1.111   .     S
C1376  C302    1.532   1_556 S
C1376  C1141   1.525   1_655 S
C1379  H1382   1.111   .     S
C1379  H1381   1.110   .     S
C1379  H309    1.109   1_556 S
Br1383 C1090   1.933   1_655 S
Br1384 C2043   1.936   1_545 S
O1385  C1687   1.406   .     S
O1385  C1743   1.419   .     S
C1386  C1389   1.536   .     S
C1386  H1387   1.111   .     S
C1386  H1388   1.111   .     S
C1386  O2099   1.419   1_545 S
C1389  C1392   1.526   .     S
C1389  H1391   1.109   .     S
C1389  H1390   1.110   .     S
C1392  H1393   1.111   .     S
C1392  H1394   1.108   .     S
C1392  H1395   1.111   .     S
O1396  C1397   1.419   .     S
C1397  C1400   1.532   .     S
C1397  H1399   1.112   .     S
C1397  H1398   1.111   .     S
C1400  H1401   1.110   .     S
C1400  H1402   1.111   .     S
C1400  C2117   1.527   1_545 S
C1403  H1406   1.111   .     S
C1403  H1405   1.110   .     S
C1403  H1404   1.111   .     S
C1403  C1757   1.527   .     S
O1407  C1408   1.418   .     S
C1408  C1411   1.532   .     S
C1408  H1410   1.115   .     S
C1408  H1409   1.109   .     S
C1411  C1414   1.526   .     S
C1411  H1413   1.108   .     S
C1411  H1769   1.112   .     S
H1412  C2125   1.112   1_545 S
C1414  H1773   1.110   .     S
H1415  C1176   1.111   1_655 S
H1416  C2128   1.110   1_545 S
H1417  C1176   1.111   1_655 S
O1418  C1419   1.418   .     S
C1419  H1420   1.110   .     S
C1419  C1422   1.530   .     S
C1419  H1421   1.117   .     S
C1422  H1423   1.112   .     S
C1422  H1424   1.111   .     S
C1422  C2139   1.525   1_545 S
C1425  H1426   1.111   .     S
C1425  H1428   1.109   .     S
C1425  H1427   1.110   .     S
C1425  C1779   1.525   .     S
C1429  O1468   1.262   .     A
C1429  C1447   1.427   .     S
C1429  O1466   1.262   .     A
C1430  H1460   1.081   .     S
C1430  C1454   1.395   .     A
C1430  C1456   1.408   .     A
C1431  H1461   1.076   .     S
C1431  C1432   1.404   .     A
C1431  C1454   1.390   .     A
C1432  C1433   1.427   .     A
C1432  C1434   1.431   .     A
C1433  C1456   1.425   .     A
C1433  C366    1.408   1_556 S
C1434  C1438   1.426   .     A
C1434  C364    1.422   1_556 S
C1435  C1436   1.411   .     A
C1435  C1442   1.428   .     A
C1436  C1437   1.396   .     A
C1436  H1462   1.075   .     S
C1437  O1480   1.386   .     S
C1438  O1537   1.388   .     S
C1438  C1439   1.398   .     A
C1439  H1459   1.083   .     S
C1439  C370    1.393   1_556 S
C1440  O1469   1.273   .     A
C1440  O1467   1.292   .     A
C1440  C1446   1.453   .     S
C1441  C1443   1.413   .     A
C1441  C1442   1.418   .     A
C1442  C1445   1.409   .     A
C1443  C1444   1.412   .     A
C1443  O1491   1.388   .     S
C1444  O1515   1.389   .     S
C1444  C1455   1.401   .     A
C1445  H1458   1.077   .     S
C1445  C1455   1.390   .     A
C1446  C1566   1.348   .     S
C1446  H1576   1.088   .     S
C1447  C1684   1.348   1_455 S
C1447  Br1740  1.933   1_455 S
C1448  C1451   1.453   .     S
C1448  C1806   1.350   .     S
C1448  Br1860  1.936   .     S
C1449  C1450   1.440   .     S
C1450  O1464   1.275   .     A
C1450  O1470   1.268   .     A
C1451  O1471   1.277   .     A
C1451  O1465   1.268   .     A
C1452  C1455   1.456   .     S
C1452  O1472   1.275   .     A
C1452  O1474   1.279   .     A
C1453  O1475   1.286   .     A
C1453  C1454   1.471   .     S
C1453  O1473   1.281   .     A
C1456  O1526   1.395   .     S
H1457  C1684   1.088   1_455 S
O1463  Zn1477  1.934   .     S
O1463  Zn1476  1.961   .     S
O1463  Zn1478  1.947   .     S
O1463  Zn1479  1.927   .     S
O1464  Zn1476  1.927   .     S
O1465  Zn1479  1.938   .     S
O1466  Zn1477  1.933   .     S
O1467  Zn1478  1.940   .     S
O1468  Zn1479  1.936   .     S
O1469  Zn1476  1.933   .     S
O1470  Zn1477  1.941   .     S
O1471  Zn1478  1.928   .     S
O1472  Zn1477  1.929   .     S
O1473  Zn1479  1.935   .     S
O1474  Zn1478  1.923   .     S
O1475  Zn1476  1.918   .     S
O1480  C1481   1.418   .     S
C1481  H1482   1.111   .     S
C1481  H1483   1.118   .     S
C1481  C1722   1.527   1_455 S
C1484  H1485   1.112   .     S
C1484  C1487   1.522   .     S
C1484  H1486   1.111   .     S
C1484  C1600   1.527   .     S
C1487  H1488   1.111   .     S
C1487  H1489   1.110   .     S
C1487  H1490   1.111   .     S
O1491  C1492   1.417   .     S
C1492  H1494   1.115   .     S
C1492  H1493   1.111   .     S
C1495  H1496   1.111   .     S
C1495  H1497   1.111   .     S
C1495  C421    1.532   1_556 S
C1495  C1617   1.525   .     S
C1498  H1501   1.111   .     S
C1498  H1500   1.110   .     S
C1498  C1733   1.525   1_455 S
C1498  H428    1.109   1_556 S
Br1502 C1566   1.933   .     S
O1504  C1806   1.406   .     S
O1504  C1862   1.419   .     S
C1505  C1508   1.536   .     S
C1505  H1506   1.111   .     S
C1505  H1507   1.111   .     S
C1508  C1511   1.526   .     S
C1508  H1510   1.109   .     S
C1508  H1509   1.110   .     S
C1511  H1512   1.111   .     S
C1511  H1513   1.108   .     S
C1511  H1514   1.111   .     S
O1515  C1516   1.419   .     S
C1516  C1519   1.532   .     S
C1516  H1518   1.112   .     S
C1516  H1517   1.111   .     S
C1519  H1520   1.110   .     S
C1519  H1521   1.111   .     S
C1522  H1525   1.111   .     S
C1522  H1524   1.110   .     S
C1522  H1523   1.111   .     S
C1522  C1876   1.527   .     S
O1526  C1527   1.418   .     S
C1527  C1530   1.532   .     S
C1527  H1529   1.115   .     S
C1527  H1528   1.109   .     S
C1530  C1533   1.526   .     S
C1530  H1532   1.108   .     S
C1530  H1888   1.112   .     S
C1533  H1772   1.111   1_455 S
C1533  H1892   1.110   .     S
C1533  H1774   1.111   1_455 S
H1534  C1652   1.111   .     S
H1536  C1652   1.111   .     S
O1537  C1538   1.418   .     S
C1538  H1539   1.110   .     S
C1538  C1541   1.530   .     S
C1538  H1540   1.117   .     S
C1541  H1542   1.112   .     S
C1541  H1543   1.111   .     S
C1544  H1545   1.111   .     S
C1544  H1547   1.109   .     S
C1544  H1546   1.110   .     S
C1544  C1898   1.525   .     S
C1548  O1587   1.262   .     A
C1548  C1566   1.427   .     S
C1548  O1585   1.262   .     A
C1549  H1579   1.081   .     S
C1549  C1573   1.395   .     A
C1549  C1575   1.408   .     A
C1550  H1580   1.076   .     S
C1550  C1551   1.404   .     A
C1550  C1573   1.390   .     A
C1551  C1552   1.427   .     A
C1551  C1553   1.431   .     A
C1552  C1575   1.425   .     A
C1552  C485    1.408   1_556 S
C1553  C1557   1.426   .     A
C1553  C483    1.422   1_556 S
C1554  C1555   1.411   .     A
C1554  C1561   1.428   .     A
C1555  C1556   1.396   .     A
C1555  H1581   1.075   .     S
C1556  O1599   1.386   .     S
C1557  O1656   1.388   .     S
C1557  C1558   1.398   .     A
C1558  H1578   1.083   .     S
C1558  C489    1.393   1_556 S
C1559  O1588   1.273   .     A
C1559  O1586   1.292   .     A
C1559  C1565   1.453   .     S
C1560  C1562   1.413   .     A
C1560  C1561   1.418   .     A
C1561  C1564   1.409   .     A
C1562  C1563   1.412   .     A
C1562  O1610   1.388   .     S
C1563  O1634   1.389   .     S
C1563  C1574   1.401   .     A
C1564  H1577   1.077   .     S
C1564  C1574   1.390   .     A
C1565  C1685   1.348   .     S
C1565  H1695   1.088   .     S
C1567  C1570   1.453   .     S
C1567  C1925   1.350   .     S
C1567  Br1979  1.936   .     S
C1568  C1569   1.440   .     S
C1569  O1583   1.275   .     A
C1569  O1589   1.268   .     A
C1570  O1590   1.277   .     A
C1570  O1584   1.268   .     A
C1571  C1574   1.456   .     S
C1571  O1591   1.275   .     A
C1571  O1593   1.279   .     A
C1572  O1594   1.286   .     A
C1572  C1573   1.471   .     S
C1572  O1592   1.281   .     A
C1575  O1645   1.395   .     S
O1582  Zn1596  1.934   .     S
O1582  Zn1595  1.961   .     S
O1582  Zn1597  1.947   .     S
O1582  Zn1598  1.927   .     S
O1583  Zn1595  1.927   .     S
O1584  Zn1598  1.938   .     S
O1585  Zn1596  1.933   .     S
O1586  Zn1597  1.940   .     S
O1587  Zn1598  1.936   .     S
O1588  Zn1595  1.933   .     S
O1589  Zn1596  1.941   .     S
O1590  Zn1597  1.928   .     S
O1591  Zn1596  1.929   .     S
O1592  Zn1598  1.935   .     S
O1593  Zn1597  1.923   .     S
O1594  Zn1595  1.918   .     S
O1599  C1600   1.418   .     S
C1600  H1601   1.111   .     S
C1600  H1602   1.118   .     S
C1603  H1604   1.112   .     S
C1603  C1606   1.522   .     S
C1603  H1605   1.111   .     S
C1603  C1719   1.527   .     S
C1606  H1607   1.111   .     S
C1606  H1608   1.110   .     S
C1606  H1609   1.111   .     S
O1610  C1611   1.417   .     S
C1611  H1613   1.115   .     S
C1611  H1612   1.111   .     S
C1614  H1615   1.111   .     S
C1614  H1616   1.111   .     S
C1614  C540    1.532   1_556 S
C1614  C1736   1.525   .     S
C1617  H1620   1.111   .     S
C1617  H1619   1.110   .     S
C1617  H547    1.109   1_556 S
Br1621 C1685   1.933   .     S
O1623  C1925   1.406   .     S
O1623  C1981   1.419   .     S
C1624  C1627   1.536   .     S
C1624  H1625   1.111   .     S
C1624  H1626   1.111   .     S
C1627  C1630   1.526   .     S
C1627  H1629   1.109   .     S
C1627  H1628   1.110   .     S
C1630  H1631   1.111   .     S
C1630  H1632   1.108   .     S
C1630  H1633   1.111   .     S
O1634  C1635   1.419   .     S
C1635  C1638   1.532   .     S
C1635  H1637   1.112   .     S
C1635  H1636   1.111   .     S
C1638  H1639   1.110   .     S
C1638  H1640   1.111   .     S
C1641  H1644   1.111   .     S
C1641  H1643   1.110   .     S
C1641  H1642   1.111   .     S
C1641  C1995   1.527   .     S
O1645  C1646   1.418   .     S
C1646  C1649   1.532   .     S
C1646  H1648   1.115   .     S
C1646  H1647   1.109   .     S
C1649  C1652   1.526   .     S
C1649  H1651   1.108   .     S
C1649  H2007   1.112   .     S
C1652  H2011   1.110   .     S
H1653  C1771   1.111   .     S
H1655  C1771   1.111   .     S
O1656  C1657   1.418   .     S
C1657  H1658   1.110   .     S
C1657  C1660   1.530   .     S
C1657  H1659   1.117   .     S
C1660  H1661   1.112   .     S
C1660  H1662   1.111   .     S
C1663  H1664   1.111   .     S
C1663  H1666   1.109   .     S
C1663  H1665   1.110   .     S
C1663  C2017   1.525   .     S
C1667  O1706   1.262   .     A
C1667  C1685   1.427   .     S
C1667  O1704   1.262   .     A
C1668  H1698   1.081   .     S
C1668  C1692   1.395   .     A
C1668  C1694   1.408   .     A
C1669  H1699   1.076   .     S
C1669  C1670   1.404   .     A
C1669  C1692   1.390   .     A
C1670  C1671   1.427   .     A
C1670  C1672   1.431   .     A
C1671  C1694   1.425   .     A
C1671  C604    1.408   1_556 S
C1672  C1676   1.426   .     A
C1672  C602    1.422   1_556 S
C1673  C1674   1.411   .     A
C1673  C1680   1.428   .     A
C1674  C1675   1.396   .     A
C1674  H1700   1.075   .     S
C1675  O1718   1.386   .     S
C1676  O1775   1.388   .     S
C1676  C1677   1.398   .     A
C1677  H1697   1.083   .     S
C1677  C608    1.393   1_556 S
C1678  O1707   1.273   .     A
C1678  O1705   1.292   .     A
C1678  C1684   1.453   .     S
C1679  C1681   1.413   .     A
C1679  C1680   1.418   .     A
C1680  C1683   1.409   .     A
C1681  C1682   1.412   .     A
C1681  O1729   1.388   .     S
C1682  O1753   1.389   .     S
C1682  C1693   1.401   .     A
C1683  H1696   1.077   .     S
C1683  C1693   1.390   .     A
C1684  C1447   1.348   1_655 S
C1684  H1457   1.088   1_655 S
C1686  C1689   1.453   .     S
C1686  C2044   1.350   .     S
C1686  Br2098  1.936   .     S
C1687  C1688   1.440   .     S
C1688  O1702   1.275   .     A
C1688  O1708   1.268   .     A
C1689  O1709   1.277   .     A
C1689  O1703   1.268   .     A
C1690  C1693   1.456   .     S
C1690  O1710   1.275   .     A
C1690  O1712   1.279   .     A
C1691  O1713   1.286   .     A
C1691  C1692   1.471   .     S
C1691  O1711   1.281   .     A
C1694  O1764   1.395   .     S
O1701  Zn1715  1.934   .     S
O1701  Zn1714  1.961   .     S
O1701  Zn1716  1.947   .     S
O1701  Zn1717  1.927   .     S
O1702  Zn1714  1.927   .     S
O1703  Zn1717  1.938   .     S
O1704  Zn1715  1.933   .     S
O1705  Zn1716  1.940   .     S
O1706  Zn1717  1.936   .     S
O1707  Zn1714  1.933   .     S
O1708  Zn1715  1.941   .     S
O1709  Zn1716  1.928   .     S
O1710  Zn1715  1.929   .     S
O1711  Zn1717  1.935   .     S
O1712  Zn1716  1.923   .     S
O1713  Zn1714  1.918   .     S
O1718  C1719   1.418   .     S
C1719  H1720   1.111   .     S
C1719  H1721   1.118   .     S
C1722  H1723   1.112   .     S
C1722  C1725   1.522   .     S
C1722  H1724   1.111   .     S
C1722  C1481   1.527   1_655 S
C1725  H1726   1.111   .     S
C1725  H1727   1.110   .     S
C1725  H1728   1.111   .     S
O1729  C1730   1.417   .     S
C1730  H1732   1.115   .     S
C1730  H1731   1.111   .     S
C1733  H1734   1.111   .     S
C1733  H1735   1.111   .     S
C1733  C659    1.532   1_556 S
C1733  C1498   1.525   1_655 S
C1736  H1739   1.111   .     S
C1736  H1738   1.110   .     S
C1736  H666    1.109   1_556 S
Br1740 C1447   1.933   1_655 S
O1742  C2044   1.406   .     S
O1742  C2100   1.419   .     S
C1743  C1746   1.536   .     S
C1743  H1744   1.111   .     S
C1743  H1745   1.111   .     S
C1746  C1749   1.526   .     S
C1746  H1748   1.109   .     S
C1746  H1747   1.110   .     S
C1749  H1750   1.111   .     S
C1749  H1751   1.108   .     S
C1749  H1752   1.111   .     S
O1753  C1754   1.419   .     S
C1754  C1757   1.532   .     S
C1754  H1756   1.112   .     S
C1754  H1755   1.111   .     S
C1757  H1758   1.110   .     S
C1757  H1759   1.111   .     S
C1760  H1763   1.111   .     S
C1760  H1762   1.110   .     S
C1760  H1761   1.111   .     S
C1760  C2114   1.527   .     S
O1764  C1765   1.418   .     S
C1765  C1768   1.532   .     S
C1765  H1767   1.115   .     S
C1765  H1766   1.109   .     S
C1768  C1771   1.526   .     S
C1768  H1770   1.108   .     S
C1768  H2126   1.112   .     S
C1771  H2130   1.110   .     S
H1772  C1533   1.111   1_655 S
H1774  C1533   1.111   1_655 S
O1775  C1776   1.418   .     S
C1776  H1777   1.110   .     S
C1776  C1779   1.530   .     S
C1776  H1778   1.117   .     S
C1779  H1780   1.112   .     S
C1779  H1781   1.111   .     S
C1782  H1783   1.111   .     S
C1782  H1785   1.109   .     S
C1782  H1784   1.110   .     S
C1782  C2136   1.525   .     S
C1786  O1825   1.262   .     A
C1786  C1804   1.427   .     S
C1786  O1823   1.262   .     A
C1787  H1817   1.081   .     S
C1787  C1811   1.395   .     A
C1787  C1813   1.408   .     A
C1788  H1818   1.076   .     S
C1788  C1789   1.404   .     A
C1788  C1811   1.390   .     A
C1789  C1790   1.427   .     A
C1789  C1791   1.431   .     A
C1790  C1813   1.425   .     A
C1790  C723    1.408   1_556 S
C1791  C1795   1.426   .     A
C1791  C721    1.422   1_556 S
C1792  C1793   1.411   .     A
C1792  C1799   1.428   .     A
C1793  C1794   1.396   .     A
C1793  H1819   1.075   .     S
C1794  O1837   1.386   .     S
C1795  O1894   1.388   .     S
C1795  C1796   1.398   .     A
C1796  H1816   1.083   .     S
C1796  C727    1.393   1_556 S
C1797  O1826   1.273   .     A
C1797  O1824   1.292   .     A
C1797  C1803   1.453   .     S
C1798  C1800   1.413   .     A
C1798  C1799   1.418   .     A
C1799  C1802   1.409   .     A
C1800  C1801   1.412   .     A
C1800  O1848   1.388   .     S
C1801  O1872   1.389   .     S
C1801  C1812   1.401   .     A
C1802  H1815   1.077   .     S
C1802  C1812   1.390   .     A
C1803  C1923   1.348   .     S
C1803  H1933   1.088   .     S
C1804  C2041   1.348   1_455 S
C1804  Br2097  1.933   1_455 S
C1805  C1808   1.453   .     S
C1805  C1092   1.350   1_565 S
C1805  Br1146  1.936   1_565 S
C1806  C1807   1.440   .     S
C1807  O1821   1.275   .     A
C1807  O1827   1.268   .     A
C1808  O1828   1.277   .     A
C1808  O1822   1.268   .     A
C1809  C1812   1.456   .     S
C1809  O1829   1.275   .     A
C1809  O1831   1.279   .     A
C1810  O1832   1.286   .     A
C1810  C1811   1.471   .     S
C1810  O1830   1.281   .     A
C1813  O1883   1.395   .     S
H1814  C2041   1.088   1_455 S
O1820  Zn1834  1.934   .     S
O1820  Zn1833  1.961   .     S
O1820  Zn1835  1.947   .     S
O1820  Zn1836  1.927   .     S
O1821  Zn1833  1.927   .     S
O1822  Zn1836  1.938   .     S
O1823  Zn1834  1.933   .     S
O1824  Zn1835  1.940   .     S
O1825  Zn1836  1.936   .     S
O1826  Zn1833  1.933   .     S
O1827  Zn1834  1.941   .     S
O1828  Zn1835  1.928   .     S
O1829  Zn1834  1.929   .     S
O1830  Zn1836  1.935   .     S
O1831  Zn1835  1.923   .     S
O1832  Zn1833  1.918   .     S
O1837  C1838   1.418   .     S
C1838  H1839   1.111   .     S
C1838  H1840   1.118   .     S
C1838  C2079   1.527   1_455 S
C1841  H1842   1.112   .     S
C1841  C1844   1.522   .     S
C1841  H1843   1.111   .     S
C1841  C1957   1.527   .     S
C1844  H1845   1.111   .     S
C1844  H1846   1.110   .     S
C1844  H1847   1.111   .     S
O1848  C1849   1.417   .     S
C1849  H1851   1.115   .     S
C1849  H1850   1.111   .     S
C1852  H1853   1.111   .     S
C1852  H1854   1.111   .     S
C1852  C778    1.532   1_556 S
C1852  C1974   1.525   .     S
C1855  H1858   1.111   .     S
C1855  H1857   1.110   .     S
C1855  C2090   1.525   1_455 S
C1855  H785    1.109   1_556 S
Br1859 C1923   1.933   .     S
O1861  C1092   1.406   1_565 S
O1861  C1148   1.419   1_565 S
C1862  C1865   1.536   .     S
C1862  H1863   1.111   .     S
C1862  H1864   1.111   .     S
C1865  C1868   1.526   .     S
C1865  H1867   1.109   .     S
C1865  H1866   1.110   .     S
C1868  H1869   1.111   .     S
C1868  H1870   1.108   .     S
C1868  H1871   1.111   .     S
O1872  C1873   1.419   .     S
C1873  C1876   1.532   .     S
C1873  H1875   1.112   .     S
C1873  H1874   1.111   .     S
C1876  H1877   1.110   .     S
C1876  H1878   1.111   .     S
C1879  H1882   1.111   .     S
C1879  H1881   1.110   .     S
C1879  H1880   1.111   .     S
C1879  C1162   1.527   1_565 S
O1883  C1884   1.418   .     S
C1884  C1887   1.532   .     S
C1884  H1886   1.115   .     S
C1884  H1885   1.109   .     S
C1887  C1890   1.526   .     S
C1887  H1889   1.108   .     S
C1887  H1174   1.112   1_565 S
C1890  H2129   1.111   1_455 S
C1890  H1178   1.110   1_565 S
C1890  H2131   1.111   1_455 S
H1891  C2009   1.111   .     S
H1893  C2009   1.111   .     S
O1894  C1895   1.418   .     S
C1895  H1896   1.110   .     S
C1895  C1898   1.530   .     S
C1895  H1897   1.117   .     S
C1898  H1899   1.112   .     S
C1898  H1900   1.111   .     S
C1901  H1902   1.111   .     S
C1901  H1904   1.109   .     S
C1901  H1903   1.110   .     S
C1901  C1184   1.525   1_565 S
C1905  O1944   1.262   .     A
C1905  C1923   1.427   .     S
C1905  O1942   1.262   .     A
C1906  H1936   1.081   .     S
C1906  C1930   1.395   .     A
C1906  C1932   1.408   .     A
C1907  H1937   1.076   .     S
C1907  C1908   1.404   .     A
C1907  C1930   1.390   .     A
C1908  C1909   1.427   .     A
C1908  C1910   1.431   .     A
C1909  C1932   1.425   .     A
C1909  C842    1.408   1_556 S
C1910  C1914   1.426   .     A
C1910  C840    1.422   1_556 S
C1911  C1912   1.411   .     A
C1911  C1918   1.428   .     A
C1912  C1913   1.396   .     A
C1912  H1938   1.075   .     S
C1913  O1956   1.386   .     S
C1914  O2013   1.388   .     S
C1914  C1915   1.398   .     A
C1915  H1935   1.083   .     S
C1915  C846    1.393   1_556 S
C1916  O1945   1.273   .     A
C1916  O1943   1.292   .     A
C1916  C1922   1.453   .     S
C1917  C1919   1.413   .     A
C1917  C1918   1.418   .     A
C1918  C1921   1.409   .     A
C1919  C1920   1.412   .     A
C1919  O1967   1.388   .     S
C1920  O1991   1.389   .     S
C1920  C1931   1.401   .     A
C1921  H1934   1.077   .     S
C1921  C1931   1.390   .     A
C1922  C2042   1.348   .     S
C1922  H2052   1.088   .     S
C1924  C1927   1.453   .     S
C1924  C1211   1.350   1_565 S
C1924  Br1265  1.936   1_565 S
C1925  C1926   1.440   .     S
C1926  O1940   1.275   .     A
C1926  O1946   1.268   .     A
C1927  O1947   1.277   .     A
C1927  O1941   1.268   .     A
C1928  C1931   1.456   .     S
C1928  O1948   1.275   .     A
C1928  O1950   1.279   .     A
C1929  O1951   1.286   .     A
C1929  C1930   1.471   .     S
C1929  O1949   1.281   .     A
C1932  O2002   1.395   .     S
O1939  Zn1953  1.934   .     S
O1939  Zn1952  1.961   .     S
O1939  Zn1954  1.947   .     S
O1939  Zn1955  1.927   .     S
O1940  Zn1952  1.927   .     S
O1941  Zn1955  1.938   .     S
O1942  Zn1953  1.933   .     S
O1943  Zn1954  1.940   .     S
O1944  Zn1955  1.936   .     S
O1945  Zn1952  1.933   .     S
O1946  Zn1953  1.941   .     S
O1947  Zn1954  1.928   .     S
O1948  Zn1953  1.929   .     S
O1949  Zn1955  1.935   .     S
O1950  Zn1954  1.923   .     S
O1951  Zn1952  1.918   .     S
O1956  C1957   1.418   .     S
C1957  H1958   1.111   .     S
C1957  H1959   1.118   .     S
C1960  H1961   1.112   .     S
C1960  C1963   1.522   .     S
C1960  H1962   1.111   .     S
C1960  C2076   1.527   .     S
C1963  H1964   1.111   .     S
C1963  H1965   1.110   .     S
C1963  H1966   1.111   .     S
O1967  C1968   1.417   .     S
C1968  H1970   1.115   .     S
C1968  H1969   1.111   .     S
C1971  H1972   1.111   .     S
C1971  H1973   1.111   .     S
C1971  C897    1.532   1_556 S
C1971  C2093   1.525   .     S
C1974  H1977   1.111   .     S
C1974  H1976   1.110   .     S
C1974  H904    1.109   1_556 S
Br1978 C2042   1.933   .     S
O1980  C1211   1.406   1_565 S
O1980  C1267   1.419   1_565 S
C1981  C1984   1.536   .     S
C1981  H1982   1.111   .     S
C1981  H1983   1.111   .     S
C1984  C1987   1.526   .     S
C1984  H1986   1.109   .     S
C1984  H1985   1.110   .     S
C1987  H1988   1.111   .     S
C1987  H1989   1.108   .     S
C1987  H1990   1.111   .     S
O1991  C1992   1.419   .     S
C1992  C1995   1.532   .     S
C1992  H1994   1.112   .     S
C1992  H1993   1.111   .     S
C1995  H1996   1.110   .     S
C1995  H1997   1.111   .     S
C1998  H2001   1.111   .     S
C1998  H2000   1.110   .     S
C1998  H1999   1.111   .     S
C1998  C1281   1.527   1_565 S
O2002  C2003   1.418   .     S
C2003  C2006   1.532   .     S
C2003  H2005   1.115   .     S
C2003  H2004   1.109   .     S
C2006  C2009   1.526   .     S
C2006  H2008   1.108   .     S
C2006  H1293   1.112   1_565 S
C2009  H1297   1.110   1_565 S
H2010  C2128   1.111   .     S
H2012  C2128   1.111   .     S
O2013  C2014   1.418   .     S
C2014  H2015   1.110   .     S
C2014  C2017   1.530   .     S
C2014  H2016   1.117   .     S
C2017  H2018   1.112   .     S
C2017  H2019   1.111   .     S
C2020  H2021   1.111   .     S
C2020  H2023   1.109   .     S
C2020  H2022   1.110   .     S
C2020  C1303   1.525   1_565 S
C2024  O2063   1.262   .     A
C2024  C2042   1.427   .     S
C2024  O2061   1.262   .     A
C2025  H2055   1.081   .     S
C2025  C2049   1.395   .     A
C2025  C2051   1.408   .     A
C2026  H2056   1.076   .     S
C2026  C2027   1.404   .     A
C2026  C2049   1.390   .     A
C2027  C2028   1.427   .     A
C2027  C2029   1.431   .     A
C2028  C2051   1.425   .     A
C2028  C961    1.408   1_556 S
C2029  C2033   1.426   .     A
C2029  C959    1.422   1_556 S
C2030  C2031   1.411   .     A
C2030  C2037   1.428   .     A
C2031  C2032   1.396   .     A
C2031  H2057   1.075   .     S
C2032  O2075   1.386   .     S
C2033  O2132   1.388   .     S
C2033  C2034   1.398   .     A
C2034  H2054   1.083   .     S
C2034  C965    1.393   1_556 S
C2035  O2064   1.273   .     A
C2035  O2062   1.292   .     A
C2035  C2041   1.453   .     S
C2036  C2038   1.413   .     A
C2036  C2037   1.418   .     A
C2037  C2040   1.409   .     A
C2038  C2039   1.412   .     A
C2038  O2086   1.388   .     S
C2039  O2110   1.389   .     S
C2039  C2050   1.401   .     A
C2040  H2053   1.077   .     S
C2040  C2050   1.390   .     A
C2041  C1804   1.348   1_655 S
C2041  H1814   1.088   1_655 S
C2043  C2046   1.453   .     S
C2043  C1330   1.350   1_565 S
C2043  Br1384  1.936   1_565 S
C2044  C2045   1.440   .     S
C2045  O2059   1.275   .     A
C2045  O2065   1.268   .     A
C2046  O2066   1.277   .     A
C2046  O2060   1.268   .     A
C2047  C2050   1.456   .     S
C2047  O2067   1.275   .     A
C2047  O2069   1.279   .     A
C2048  O2070   1.286   .     A
C2048  C2049   1.471   .     S
C2048  O2068   1.281   .     A
C2051  O2121   1.395   .     S
O2058  Zn2072  1.934   .     S
O2058  Zn2071  1.961   .     S
O2058  Zn2073  1.947   .     S
O2058  Zn2074  1.927   .     S
O2059  Zn2071  1.927   .     S
O2060  Zn2074  1.938   .     S
O2061  Zn2072  1.933   .     S
O2062  Zn2073  1.940   .     S
O2063  Zn2074  1.936   .     S
O2064  Zn2071  1.933   .     S
O2065  Zn2072  1.941   .     S
O2066  Zn2073  1.928   .     S
O2067  Zn2072  1.929   .     S
O2068  Zn2074  1.935   .     S
O2069  Zn2073  1.923   .     S
O2070  Zn2071  1.918   .     S
O2075  C2076   1.418   .     S
C2076  H2077   1.111   .     S
C2076  H2078   1.118   .     S
C2079  H2080   1.112   .     S
C2079  C2082   1.522   .     S
C2079  H2081   1.111   .     S
C2079  C1838   1.527   1_655 S
C2082  H2083   1.111   .     S
C2082  H2084   1.110   .     S
C2082  H2085   1.111   .     S
O2086  C2087   1.417   .     S
C2087  H2089   1.115   .     S
C2087  H2088   1.111   .     S
C2090  H2091   1.111   .     S
C2090  H2092   1.111   .     S
C2090  C1016   1.532   1_556 S
C2090  C1855   1.525   1_655 S
C2093  H2096   1.111   .     S
C2093  H2095   1.110   .     S
C2093  H1023   1.109   1_556 S
Br2097 C1804   1.933   1_655 S
O2099  C1330   1.406   1_565 S
O2099  C1386   1.419   1_565 S
C2100  C2103   1.536   .     S
C2100  H2101   1.111   .     S
C2100  H2102   1.111   .     S
C2103  C2106   1.526   .     S
C2103  H2105   1.109   .     S
C2103  H2104   1.110   .     S
C2106  H2107   1.111   .     S
C2106  H2108   1.108   .     S
C2106  H2109   1.111   .     S
O2110  C2111   1.419   .     S
C2111  C2114   1.532   .     S
C2111  H2113   1.112   .     S
C2111  H2112   1.111   .     S
C2114  H2115   1.110   .     S
C2114  H2116   1.111   .     S
C2117  H2120   1.111   .     S
C2117  H2119   1.110   .     S
C2117  H2118   1.111   .     S
C2117  C1400   1.527   1_565 S
O2121  C2122   1.418   .     S
C2122  C2125   1.532   .     S
C2122  H2124   1.115   .     S
C2122  H2123   1.109   .     S
C2125  C2128   1.526   .     S
C2125  H2127   1.108   .     S
C2125  H1412   1.112   1_565 S
C2128  H1416   1.110   1_565 S
H2129  C1890   1.111   1_655 S
H2131  C1890   1.111   1_655 S
O2132  C2133   1.418   .     S
C2133  H2134   1.110   .     S
C2133  C2136   1.530   .     S
C2133  H2135   1.117   .     S
C2136  H2137   1.112   .     S
C2136  H2138   1.111   .     S
C2139  H2140   1.111   .     S
C2139  H2142   1.109   .     S
C2139  H2141   1.110   .     S
C2139  C1422   1.525   1_565 S
