data_str_m1_o1_o2_pcu_sym.107
_audit_creation_date              2020-01-03
_audit_creation_method            'Materials Studio'
_symmetry_space_group_name_H-M    'P1'
_symmetry_Int_Tables_number       1
_symmetry_cell_setting            triclinic
loop_
_symmetry_equiv_pos_as_xyz
  x,y,z
_cell_length_a                    36.6715
_cell_length_b                    36.8066
_cell_length_c                    34.5078
_cell_angle_alpha                 90.0099
_cell_angle_beta                  90.0207
_cell_angle_gamma                 89.4660
loop_
_atom_site_label
_atom_site_type_symbol
_atom_site_fract_x
_atom_site_fract_y
_atom_site_fract_z
_atom_site_U_iso_or_equiv
_atom_site_adp_type
_atom_site_occupancy
C1     C     0.23860   0.46919   0.04251   0.00000  Uiso   1.00
C2     C     0.02512   0.27047   0.45851   0.00000  Uiso   1.00
C3     C     0.34846   0.40235   0.74981   0.00000  Uiso   1.00
C4     C     0.40237   0.15103   0.25170   0.00000  Uiso   1.00
C5     C     0.09663   0.34973   0.74690   0.00000  Uiso   1.00
C6     C     0.34846   0.40232   0.25001   0.00000  Uiso   1.00
C7     C     0.15155   0.09765   0.74981   0.00000  Uiso   1.00
C8     C     0.09849   0.15234   0.75002   0.00000  Uiso   1.00
C9     C     0.40156   0.34767   0.24982   0.00000  Uiso   1.00
C10    C     0.15236   0.40104   0.75165   0.00000  Uiso   1.00
C11    C     0.34666   0.09971   0.24693   0.00000  Uiso   1.00
C12    C     0.40150   0.34765   0.75002   0.00000  Uiso   1.00
C13    C     0.27635   0.01975   0.54251   0.00000  Uiso   1.00
C14    C     0.09847   0.15236   0.24981   0.00000  Uiso   1.00
C15    C     0.34763   0.09897   0.75168   0.00000  Uiso   1.00
C16    C     0.15336   0.40029   0.24683   0.00000  Uiso   1.00
C17    C     0.24994   0.00004   0.10306   0.00000  Uiso   1.00
C18    C     0.25000   0.49998   0.89757   0.00000  Uiso   1.00
C19    C     0.00001   0.24998   0.10305   0.00000  Uiso   1.00
C20    C    -0.00000   0.25000   0.89810   0.00000  Uiso   1.00
C21    C     0.49991   0.25001   0.60306   0.00000  Uiso   1.00
C22    C     0.49991   0.24971   0.39758   0.00000  Uiso   1.00
C23    C     0.25003   0.49998   0.60305   0.00000  Uiso   1.00
C24    C     0.24278   0.46800   0.45925   0.00000  Uiso   1.00
C25    C     0.25005   0.49998   0.39811   0.00000  Uiso   1.00
C26    C     0.13099   0.43074   0.16674   0.00000  Uiso   1.00
C27    C     0.12649   0.46509   0.14260   0.00000  Uiso   1.00
C28    C     0.37278   0.06681   0.83150   0.00000  Uiso   1.00
C29    C     0.38098   0.03275   0.85509   0.00000  Uiso   1.00
C30    C     0.10447   0.17779   0.16573   0.00000  Uiso   1.00
C31    C     0.09764   0.17983   0.12230   0.00000  Uiso   1.00
C32    C     0.39438   0.32212   0.83407   0.00000  Uiso   1.00
C33    C     0.40762   0.31634   0.87540   0.00000  Uiso   1.00
C34    C     0.36770   0.07036   0.16590   0.00000  Uiso   1.00
C35    C     0.01042   0.28113   0.54250   0.00000  Uiso   1.00
C36    C     0.37278   0.03668   0.14081   0.00000  Uiso   1.00
C37    C     0.12727   0.43321   0.83151   0.00000  Uiso   1.00
C38    C     0.11906   0.46726   0.85511   0.00000  Uiso   1.00
C39    C     0.39520   0.32185   0.16590   0.00000  Uiso   1.00
C40    C     0.40165   0.31970   0.12242   0.00000  Uiso   1.00
C41    C     0.10570   0.17793   0.83406   0.00000  Uiso   1.00
C42    C     0.09249   0.18373   0.87540   0.00000  Uiso   1.00
C43    C     0.17064   0.11045   0.83982   0.00000  Uiso   1.00
C44    C     0.19928   0.08465   0.85640   0.00000  Uiso   1.00
C45    C     0.32841   0.39706   0.16157   0.00000  Uiso   1.00
C46    C     0.47383   0.22959   0.45837   0.00000  Uiso   1.00
C47    C     0.32566   0.41438   0.12166   0.00000  Uiso   1.00
C48    C     0.04897   0.39252   0.81769   0.00000  Uiso   1.00
C49    C     0.00867   0.38666   0.82606   0.00000  Uiso   1.00
C50    C     0.44767   0.11080   0.17811   0.00000  Uiso   1.00
C51    C     0.48779   0.11613   0.16838   0.00000  Uiso   1.00
C52    C     0.32949   0.38962   0.83985   0.00000  Uiso   1.00
C53    C     0.30086   0.41542   0.85643   0.00000  Uiso   1.00
C54    C     0.17094   0.10233   0.16130   0.00000  Uiso   1.00
C55    C     0.17335   0.08464   0.12154   0.00000  Uiso   1.00
C56    C     0.45108   0.10746   0.81765   0.00000  Uiso   1.00
C57    C     0.22383   0.48013   0.54246   0.00000  Uiso   1.00
C58    C     0.49139   0.11333   0.82602   0.00000  Uiso   1.00
C59    C     0.05106   0.39081   0.17999   0.00000  Uiso   1.00
C60    C     0.01082   0.38539   0.17088   0.00000  Uiso   1.00
C61    C     0.38246   0.17947   0.66579   0.00000  Uiso   1.00
C62    C     0.37740   0.21308   0.64061   0.00000  Uiso   1.00
C63    C     0.12665   0.31326   0.32919   0.00000  Uiso   1.00
C64    C     0.13761   0.27876   0.35077   0.00000  Uiso   1.00
C65    C     0.35431   0.42762   0.66565   0.00000  Uiso   1.00
C66    C     0.34732   0.42961   0.62226   0.00000  Uiso   1.00
C67    C     0.14410   0.07190   0.33393   0.00000  Uiso   1.00
C68    C     0.25745   0.03189   0.45929   0.00000  Uiso   1.00
C69    C     0.15717   0.06598   0.37530   0.00000  Uiso   1.00
C70    C     0.11734   0.32065   0.66571   0.00000  Uiso   1.00
C71    C     0.12237   0.28709   0.64043   0.00000  Uiso   1.00
C72    C     0.37711   0.18339   0.33140   0.00000  Uiso   1.00
C73    C     0.36890   0.21752   0.35486   0.00000  Uiso   1.00
C74    C     0.14558   0.07229   0.66569   0.00000  Uiso   1.00
C75    C     0.15245   0.07029   0.62227   0.00000  Uiso   1.00
C76    C     0.35623   0.42837   0.33382   0.00000  Uiso   1.00
C77    C     0.34337   0.43438   0.37525   0.00000  Uiso   1.00
C78    C     0.42143   0.36088   0.33941   0.00000  Uiso   1.00
C79    C     0.23773   0.46936   0.08292   0.00000  Uiso   1.00
C80    C     0.45010   0.33504   0.35586   0.00000  Uiso   1.00
C81    C     0.07915   0.14774   0.66125   0.00000  Uiso   1.00
C82    C     0.07690   0.16534   0.62144   0.00000  Uiso   1.00
C83    C     0.29886   0.14267   0.31750   0.00000  Uiso   1.00
C84    C     0.25855   0.13678   0.32583   0.00000  Uiso   1.00
C85    C     0.19737   0.36117   0.67770   0.00000  Uiso   1.00
C86    C     0.23747   0.36646   0.66784   0.00000  Uiso   1.00
C87    C     0.07933   0.13951   0.33977   0.00000  Uiso   1.00
C88    C     0.05074   0.16533   0.35640   0.00000  Uiso   1.00
C89    C     0.42060   0.35206   0.66115   0.00000  Uiso   1.00
C90    C     0.27518   0.02149   0.91798   0.00000  Uiso   1.00
C91    C     0.42271   0.33436   0.62138   0.00000  Uiso   1.00
C92    C     0.20313   0.35565   0.31474   0.00000  Uiso   1.00
C93    C     0.24343   0.36237   0.32228   0.00000  Uiso   1.00
C94    C     0.30247   0.13895   0.67785   0.00000  Uiso   1.00
C95    C     0.26236   0.13363   0.66803   0.00000  Uiso   1.00
C96    C     0.02656   0.26973   0.08289   0.00000  Uiso   1.00
C97    C     0.27566   0.02037   0.95845   0.00000  Uiso   1.00
C98    C     0.49164   0.21791   0.91887   0.00000  Uiso   1.00
C99    C     0.26201   0.03076   0.08293   0.00000  Uiso   1.00
C100   C     0.22480   0.47848   0.91792   0.00000  Uiso   1.00
C101   C     0.47347   0.23022   0.08286   0.00000  Uiso   1.00
C102   C     0.00836   0.28208   0.91889   0.00000  Uiso   1.00
C103   C     0.48797   0.21922   0.58293   0.00000  Uiso   1.00
C104   C     0.02501   0.27106   0.41811   0.00000  Uiso   1.00
C105   C     0.27625   0.02018   0.58289   0.00000  Uiso   1.00
C106   C     0.24221   0.46774   0.41887   0.00000  Uiso   1.00
C107   C     0.01154   0.28090   0.58292   0.00000  Uiso   1.00
C108   C     0.02661   0.26933   0.04250   0.00000  Uiso   1.00
C109   C     0.47454   0.22834   0.41787   0.00000  Uiso   1.00
C110   C     0.22385   0.47976   0.58284   0.00000  Uiso   1.00
C111   C     0.25795   0.03218   0.41891   0.00000  Uiso   1.00
C112   C     0.24987   0.00005   0.02188   0.00000  Uiso   1.00
C113   C     0.24991   0.00003   0.97899   0.00000  Uiso   1.00
C114   C     0.00001   0.24998   0.02212   0.00000  Uiso   1.00
C115   C     0.00000   0.24999   0.97959   0.00000  Uiso   1.00
C116   C     0.49936   0.25017   0.52189   0.00000  Uiso   1.00
C117   C     0.49937   0.25014   0.47903   0.00000  Uiso   1.00
C118   C     0.25011   0.49993   0.52212   0.00000  Uiso   1.00
C119   C     0.49216   0.21817   0.95925   0.00000  Uiso   1.00
C120   C     0.25012   0.49993   0.47959   0.00000  Uiso   1.00
C121   C     0.25001  -0.00000   0.35533   0.00000  Uiso   1.00
C122   C     0.25000  -0.00000   0.64509   0.00000  Uiso   1.00
C123   C     0.49999   0.24994   0.35516   0.00000  Uiso   1.00
C124   C     0.49999   0.25000   0.64506   0.00000  Uiso   1.00
C125   C    -0.00000   0.25000   0.85533   0.00000  Uiso   1.00
C126   C     0.00000   0.25000   0.14509   0.00000  Uiso   1.00
C127   C     0.25000  -0.00000   0.85515   0.00000  Uiso   1.00
C128   C     0.24999   0.00002   0.14506   0.00000  Uiso   1.00
C129   C     0.18001   0.07001   0.24983   0.00000  Uiso   1.00
C130   C     0.26109   0.03094   0.04251   0.00000  Uiso   1.00
C131   C     0.31997   0.42998   0.75015   0.00000  Uiso   1.00
C132   C     0.43032   0.17945   0.25084   0.00000  Uiso   1.00
C133   C     0.06941   0.32073   0.74882   0.00000  Uiso   1.00
C134   C     0.31999   0.42999   0.24983   0.00000  Uiso   1.00
C135   C     0.18003   0.07002   0.75015   0.00000  Uiso   1.00
C136   C     0.06976   0.32048   0.25078   0.00000  Uiso   1.00
C137   C     0.43058   0.17928   0.74882   0.00000  Uiso   1.00
C138   C     0.18031   0.42945   0.75083   0.00000  Uiso   1.00
C139   C     0.31942   0.07072   0.24883   0.00000  Uiso   1.00
C140   C     0.43001   0.32001   0.74983   0.00000  Uiso   1.00
C141   C     0.22422   0.47966   0.95839   0.00000  Uiso   1.00
C142   C     0.06997   0.17998   0.25015   0.00000  Uiso   1.00
C143   C     0.31969   0.07055   0.75084   0.00000  Uiso   1.00
C144   C     0.18057   0.42929   0.24882   0.00000  Uiso   1.00
C145   C     0.06999   0.17999   0.74983   0.00000  Uiso   1.00
C146   C     0.43004   0.32003   0.25015   0.00000  Uiso   1.00
C147   C     0.12031   0.40582   0.22622   0.00000  Uiso   1.00
C148   C     0.38079   0.09327   0.77222   0.00000  Uiso   1.00
C149   C     0.10845   0.13552   0.21461   0.00000  Uiso   1.00
C150   C     0.39133   0.36435   0.78528   0.00000  Uiso   1.00
C151   C     0.37932   0.09451   0.22556   0.00000  Uiso   1.00
C152   C     0.47342   0.23061   0.04248   0.00000  Uiso   1.00
C153   C     0.11922   0.40673   0.77221   0.00000  Uiso   1.00
C154   C     0.39140   0.36434   0.21459   0.00000  Uiso   1.00
C155   C     0.10870   0.13568   0.78529   0.00000  Uiso   1.00
C156   C     0.13508   0.10807   0.78502   0.00000  Uiso   1.00
C157   C     0.36530   0.39213   0.21482   0.00000  Uiso   1.00
C158   C     0.09060   0.38198   0.76806   0.00000  Uiso   1.00
C159   C     0.40799   0.11907   0.22980   0.00000  Uiso   1.00
C160   C     0.36496   0.39196   0.78502   0.00000  Uiso   1.00
C161   C     0.13450   0.10769   0.21485   0.00000  Uiso   1.00
C162   C     0.40940   0.11802   0.76805   0.00000  Uiso   1.00
C163   C     0.00784   0.28181   0.95927   0.00000  Uiso   1.00
C164   C     0.09173   0.38118   0.23060   0.00000  Uiso   1.00
C165   C     0.37072   0.15543   0.72546   0.00000  Uiso   1.00
C166   C     0.13158   0.34248   0.27086   0.00000  Uiso   1.00
C167   C     0.35838   0.38545   0.71463   0.00000  Uiso   1.00
C168   C     0.14126   0.11428   0.28529   0.00000  Uiso   1.00
C169   C     0.12922   0.34460   0.72539   0.00000  Uiso   1.00
C170   C     0.36919   0.15677   0.27215   0.00000  Uiso   1.00
C171   C     0.14157   0.11451   0.71463   0.00000  Uiso   1.00
C172   C     0.35888   0.38585   0.28531   0.00000  Uiso   1.00
C173   C     0.38529   0.35827   0.28506   0.00000  Uiso   1.00
C174   C     0.48854   0.21915   0.54251   0.00000  Uiso   1.00
C175   C     0.11553   0.14235   0.71487   0.00000  Uiso   1.00
C176   C     0.34058   0.13200   0.26799   0.00000  Uiso   1.00
C177   C     0.15790   0.36915   0.72961   0.00000  Uiso   1.00
C178   C     0.11491   0.14191   0.28502   0.00000  Uiso   1.00
C179   C     0.38440   0.35759   0.71488   0.00000  Uiso   1.00
C180   C     0.16001   0.36752   0.26681   0.00000  Uiso   1.00
C181   C     0.34205   0.13087   0.72969   0.00000  Uiso   1.00
C182   C     0.09784   0.34877   0.25156   0.00000  Uiso   1.00
C183   C     0.40335   0.15028   0.74691   0.00000  Uiso   1.00
C184   C     0.15151   0.09766   0.25001   0.00000  Uiso   1.00
H185   H     0.23073   0.44464   0.02754   0.00000  Uiso   1.00
H186   H     0.04566   0.28597   0.47360   0.00000  Uiso   1.00
H187   H     0.39099   0.23670   0.65428   0.00000  Uiso   1.00
H188   H     0.34791   0.21936   0.63708   0.00000  Uiso   1.00
H189   H     0.09664   0.31695   0.33148   0.00000  Uiso   1.00
H190   H     0.13891   0.33688   0.34415   0.00000  Uiso   1.00
H191   H     0.13400   0.28261   0.38241   0.00000  Uiso   1.00
H192   H     0.16673   0.27207   0.34527   0.00000  Uiso   1.00
H193   H     0.12058   0.25572   0.34091   0.00000  Uiso   1.00
H194   H     0.38404   0.43135   0.67080   0.00000  Uiso   1.00
H195   H     0.33955   0.45072   0.67937   0.00000  Uiso   1.00
H196   H     0.35698   0.45599   0.61075   0.00000  Uiso   1.00
H197   H     0.29726   0.03457   0.52719   0.00000  Uiso   1.00
H198   H     0.31764   0.42728   0.61634   0.00000  Uiso   1.00
H199   H     0.36211   0.40719   0.60729   0.00000  Uiso   1.00
H200   H     0.15406   0.04863   0.31629   0.00000  Uiso   1.00
H201   H     0.11376   0.07158   0.33376   0.00000  Uiso   1.00
H202   H     0.14664   0.03982   0.38651   0.00000  Uiso   1.00
H203   H     0.14724   0.08841   0.39418   0.00000  Uiso   1.00
H204   H     0.18743   0.06513   0.37608   0.00000  Uiso   1.00
H205   H     0.12933   0.34431   0.65050   0.00000  Uiso   1.00
H206   H     0.08761   0.32625   0.66860   0.00000  Uiso   1.00
H207   H     0.11018   0.29187   0.61142   0.00000  Uiso   1.00
H208   H     0.23758   0.44294   0.47467   0.00000  Uiso   1.00
H209   H     0.10886   0.26343   0.65407   0.00000  Uiso   1.00
H210   H     0.15186   0.28087   0.63681   0.00000  Uiso   1.00
H211   H     0.40706   0.17853   0.33148   0.00000  Uiso   1.00
H212   H     0.36468   0.15982   0.34630   0.00000  Uiso   1.00
H213   H     0.37646   0.21321   0.38565   0.00000  Uiso   1.00
H214   H     0.33934   0.22420   0.35346   0.00000  Uiso   1.00
H215   H     0.38461   0.24073   0.34315   0.00000  Uiso   1.00
H216   H     0.11588   0.06853   0.67091   0.00000  Uiso   1.00
H217   H     0.16041   0.04922   0.67937   0.00000  Uiso   1.00
H218   H     0.18210   0.07264   0.61628   0.00000  Uiso   1.00
H219   H     0.01795   0.30576   0.52751   0.00000  Uiso   1.00
H220   H     0.13759   0.09269   0.60734   0.00000  Uiso   1.00
H221   H     0.14278   0.04388   0.61079   0.00000  Uiso   1.00
H222   H     0.34615   0.45159   0.31618   0.00000  Uiso   1.00
H223   H     0.38657   0.42871   0.33350   0.00000  Uiso   1.00
H224   H     0.35395   0.46057   0.38635   0.00000  Uiso   1.00
H225   H     0.35342   0.41200   0.39412   0.00000  Uiso   1.00
H226   H     0.31312   0.43521   0.37620   0.00000  Uiso   1.00
H227   H     0.40821   0.37515   0.36410   0.00000  Uiso   1.00
H228   H     0.43581   0.38140   0.32123   0.00000  Uiso   1.00
H229   H     0.43691   0.31331   0.37307   0.00000  Uiso   1.00
H230   H     0.45321   0.21438   0.47363   0.00000  Uiso   1.00
H231   H     0.46609   0.32265   0.33189   0.00000  Uiso   1.00
H232   H     0.46907   0.35017   0.37492   0.00000  Uiso   1.00
H233   H     0.05343   0.15379   0.67714   0.00000  Uiso   1.00
H234   H     0.08154   0.11792   0.65701   0.00000  Uiso   1.00
H235   H     0.05447   0.15303   0.60451   0.00000  Uiso   1.00
H236   H     0.07171   0.19499   0.62438   0.00000  Uiso   1.00
H237   H     0.10288   0.16092   0.60553   0.00000  Uiso   1.00
H238   H     0.30532   0.16991   0.32910   0.00000  Uiso   1.00
H239   H     0.31479   0.12122   0.33308   0.00000  Uiso   1.00
H240   H     0.25076   0.10858   0.31869   0.00000  Uiso   1.00
H241   H     0.20294   0.46530   0.52709   0.00000  Uiso   1.00
H242   H     0.25306   0.14139   0.35710   0.00000  Uiso   1.00
H243   H     0.24157   0.15602   0.30862   0.00000  Uiso   1.00
H244   H     0.18140   0.38397   0.66450   0.00000  Uiso   1.00
H245   H     0.18952   0.33498   0.66445   0.00000  Uiso   1.00
H246   H     0.24122   0.36544   0.63592   0.00000  Uiso   1.00
H247   H     0.24701   0.39317   0.67832   0.00000  Uiso   1.00
H248   H     0.25431   0.34464   0.68132   0.00000  Uiso   1.00
H249   H     0.09289   0.12546   0.36439   0.00000  Uiso   1.00
H250   H     0.06482   0.11884   0.32190   0.00000  Uiso   1.00
H251   H     0.06402   0.18727   0.37324   0.00000  Uiso   1.00
H252   H     0.26267   0.05693   0.47474   0.00000  Uiso   1.00
H253   H     0.03437   0.17744   0.33255   0.00000  Uiso   1.00
H254   H     0.03213   0.15023   0.37586   0.00000  Uiso   1.00
H255   H     0.44638   0.34605   0.67698   0.00000  Uiso   1.00
H256   H     0.41820   0.38187   0.65684   0.00000  Uiso   1.00
H257   H     0.44506   0.34663   0.60434   0.00000  Uiso   1.00
H258   H     0.42791   0.30472   0.62439   0.00000  Uiso   1.00
H259   H     0.39666   0.33873   0.60555   0.00000  Uiso   1.00
H260   H     0.19775   0.32784   0.32535   0.00000  Uiso   1.00
H261   H     0.18706   0.37611   0.33162   0.00000  Uiso   1.00
H262   H     0.25001   0.39125   0.31719   0.00000  Uiso   1.00
H263   H     0.11807   0.40787   0.15104   0.00000  Uiso   1.00
H264   H     0.25000   0.35593   0.35296   0.00000  Uiso   1.00
H265   H     0.26055   0.34493   0.30316   0.00000  Uiso   1.00
H266   H     0.31844   0.11621   0.66455   0.00000  Uiso   1.00
H267   H     0.31026   0.16520   0.66467   0.00000  Uiso   1.00
H268   H     0.25854   0.13476   0.63613   0.00000  Uiso   1.00
H269   H     0.25289   0.10686   0.67841   0.00000  Uiso   1.00
H270   H     0.24550   0.15537   0.68164   0.00000  Uiso   1.00
H271   H     0.24043   0.41567   0.09492   0.00000  Uiso   1.00
H272   H     0.19801   0.43355   0.09501   0.00000  Uiso   1.00
H273   H     0.28385   0.06494   0.88372   0.00000  Uiso   1.00
H274   H     0.16061   0.42423   0.16885   0.00000  Uiso   1.00
H275   H     0.31658   0.05871   0.91687   0.00000  Uiso   1.00
H276   H     0.05235   0.31663   0.09504   0.00000  Uiso   1.00
H277   H     0.07954   0.27927   0.09490   0.00000  Uiso   1.00
H278   H     0.45604   0.17743   0.90839   0.00000  Uiso   1.00
H279   H     0.00044   0.16459   0.90785   0.00000  Uiso   1.00
H280   H     0.25876   0.08440   0.09509   0.00000  Uiso   1.00
H281   H     0.30137   0.06703   0.09483   0.00000  Uiso   1.00
H282   H     0.21624   0.43499   0.88366   0.00000  Uiso   1.00
H283   H     0.18345   0.44120   0.91672   0.00000  Uiso   1.00
H284   H     0.44773   0.18330   0.09500   0.00000  Uiso   1.00
H285   H     0.14059   0.48807   0.15688   0.00000  Uiso   1.00
H286   H     0.42049   0.22063   0.09482   0.00000  Uiso   1.00
H287   H     0.04396   0.32256   0.90845   0.00000  Uiso   1.00
H288   H     0.49957   0.33541   0.90791   0.00000  Uiso   1.00
H289   H     0.49171   0.16557   0.59487   0.00000  Uiso   1.00
H290   H     0.44899   0.18263   0.59509   0.00000  Uiso   1.00
H291   H     0.04451   0.32091   0.40632   0.00000  Uiso   1.00
H292   H     0.07621   0.28747   0.40751   0.00000  Uiso   1.00
H293   H     0.30120   0.06754   0.59503   0.00000  Uiso   1.00
H294   H     0.32905   0.03066   0.59493   0.00000  Uiso   1.00
H295   H     0.20726   0.42669   0.40844   0.00000  Uiso   1.00
H296   H     0.29626   0.03556   0.97377   0.00000  Uiso   1.00
H297   H     0.09710   0.47200   0.13940   0.00000  Uiso   1.00
H298   H     0.25184   0.41454   0.40779   0.00000  Uiso   1.00
H299   H     0.00792   0.33450   0.59518   0.00000  Uiso   1.00
H300   H     0.05066   0.31746   0.59468   0.00000  Uiso   1.00
H301   H     0.46601   0.18483   0.38364   0.00000  Uiso   1.00
H302   H     0.43313   0.19115   0.41658   0.00000  Uiso   1.00
H303   H     0.19888   0.43241   0.59496   0.00000  Uiso   1.00
H304   H     0.17104   0.46929   0.59473   0.00000  Uiso   1.00
H305   H     0.29293   0.07319   0.40846   0.00000  Uiso   1.00
H306   H     0.24837   0.08540   0.40800   0.00000  Uiso   1.00
H307   H     0.13841   0.46086   0.11337   0.00000  Uiso   1.00
H308   H     0.34282   0.07164   0.83150   0.00000  Uiso   1.00
H309   H     0.38518   0.09044   0.84636   0.00000  Uiso   1.00
H310   H     0.37339   0.03716   0.88585   0.00000  Uiso   1.00
H311   H     0.41054   0.02608   0.85376   0.00000  Uiso   1.00
H312   H     0.36529   0.00950   0.84342   0.00000  Uiso   1.00
H313   H     0.13418   0.18154   0.17099   0.00000  Uiso   1.00
H314   H     0.08964   0.20085   0.17943   0.00000  Uiso   1.00
H315   H     0.06798   0.17752   0.11626   0.00000  Uiso   1.00
H316   H     0.04776   0.28380   0.02717   0.00000  Uiso   1.00
H317   H     0.11248   0.15743   0.10737   0.00000  Uiso   1.00
H318   H     0.10734   0.20623   0.11087   0.00000  Uiso   1.00
H319   H     0.40430   0.29880   0.81647   0.00000  Uiso   1.00
H320   H     0.36404   0.32176   0.83404   0.00000  Uiso   1.00
H321   H     0.39721   0.29018   0.88674   0.00000  Uiso   1.00
H322   H     0.39768   0.33879   0.89426   0.00000  Uiso   1.00
H323   H     0.43788   0.31560   0.87607   0.00000  Uiso   1.00
H324   H     0.37982   0.09392   0.15064   0.00000  Uiso   1.00
H325   H     0.33797   0.07605   0.16861   0.00000  Uiso   1.00
H326   H     0.35911   0.01312   0.15447   0.00000  Uiso   1.00
H327   H     0.48655   0.19320   0.97468   0.00000  Uiso   1.00
H328   H     0.40227   0.03036   0.13741   0.00000  Uiso   1.00
H329   H     0.36077   0.04138   0.11170   0.00000  Uiso   1.00
H330   H     0.15723   0.42840   0.83151   0.00000  Uiso   1.00
H331   H     0.11490   0.40957   0.84635   0.00000  Uiso   1.00
H332   H     0.12664   0.46285   0.88587   0.00000  Uiso   1.00
H333   H     0.08949   0.47392   0.85376   0.00000  Uiso   1.00
H334   H     0.13474   0.49052   0.84347   0.00000  Uiso   1.00
H335   H     0.36556   0.31802   0.17145   0.00000  Uiso   1.00
H336   H     0.41024   0.29889   0.17953   0.00000  Uiso   1.00
H337   H     0.39193   0.29323   0.11117   0.00000  Uiso   1.00
H338   H     0.26889   0.05550   0.02755   0.00000  Uiso   1.00
H339   H     0.43124   0.32209   0.11609   0.00000  Uiso   1.00
H340   H     0.38660   0.34201   0.10755   0.00000  Uiso   1.00
H341   H     0.09576   0.20124   0.81646   0.00000  Uiso   1.00
H342   H     0.13604   0.17830   0.83402   0.00000  Uiso   1.00
H343   H     0.10290   0.20991   0.88672   0.00000  Uiso   1.00
H344   H     0.10245   0.16130   0.89426   0.00000  Uiso   1.00
H345   H     0.06222   0.18447   0.87607   0.00000  Uiso   1.00
H346   H     0.15706   0.12444   0.86447   0.00000  Uiso   1.00
H347   H     0.18510   0.13119   0.82201   0.00000  Uiso   1.00
H348   H     0.18603   0.06268   0.87320   0.00000  Uiso   1.00
H349   H     0.20358   0.46449   0.97365   0.00000  Uiso   1.00
H350   H     0.21565   0.07260   0.83253   0.00000  Uiso   1.00
H351   H     0.21788   0.09976   0.87588   0.00000  Uiso   1.00
H352   H     0.30285   0.40318   0.17773   0.00000  Uiso   1.00
H353   H     0.33080   0.36721   0.15754   0.00000  Uiso   1.00
H354   H     0.30301   0.40197   0.10516   0.00000  Uiso   1.00
H355   H     0.32053   0.44405   0.12443   0.00000  Uiso   1.00
H356   H     0.35145   0.40983   0.10541   0.00000  Uiso   1.00
H357   H     0.05549   0.41972   0.82937   0.00000  Uiso   1.00
H358   H     0.06491   0.37101   0.83316   0.00000  Uiso   1.00
H359   H     0.00082   0.35850   0.81882   0.00000  Uiso   1.00
H360   H     0.45226   0.21614   0.02712   0.00000  Uiso   1.00
H361   H     0.00323   0.39118   0.85736   0.00000  Uiso   1.00
H362   H     0.49169   0.40599   0.80896   0.00000  Uiso   1.00
H363   H     0.43170   0.13348   0.16467   0.00000  Uiso   1.00
H364   H     0.43993   0.08450   0.16502   0.00000  Uiso   1.00
H365   H     0.49169   0.11480   0.13650   0.00000  Uiso   1.00
H366   H     0.49720   0.14297   0.17860   0.00000  Uiso   1.00
H367   H     0.00465   0.09449   0.18219   0.00000  Uiso   1.00
H368   H     0.34312   0.37567   0.86450   0.00000  Uiso   1.00
H369   H     0.31501   0.36886   0.82207   0.00000  Uiso   1.00
H370   H     0.28444   0.42743   0.83257   0.00000  Uiso   1.00
H371   H     0.01346   0.30677   0.97473   0.00000  Uiso   1.00
H372   H     0.28231   0.40033   0.87596   0.00000  Uiso   1.00
H373   H     0.31412   0.43742   0.87319   0.00000  Uiso   1.00
H374   H     0.19663   0.09636   0.17731   0.00000  Uiso   1.00
H375   H     0.16851   0.13213   0.15699   0.00000  Uiso   1.00
H376   H     0.19589   0.09687   0.10473   0.00000  Uiso   1.00
H377   H     0.17846   0.05499   0.12458   0.00000  Uiso   1.00
H378   H     0.14745   0.08908   0.10547   0.00000  Uiso   1.00
H379   H     0.44457   0.08026   0.82931   0.00000  Uiso   1.00
H380   H     0.43517   0.12898   0.83314   0.00000  Uiso   1.00
H381   H     0.49924   0.14149   0.81880   0.00000  Uiso   1.00
H382   H     0.48086   0.19455   0.52752   0.00000  Uiso   1.00
H383   H     0.49686   0.10879   0.85731   0.00000  Uiso   1.00
H384   H     0.00836   0.09401   0.80889   0.00000  Uiso   1.00
H385   H     0.06695   0.36870   0.16545   0.00000  Uiso   1.00
H386   H     0.05832   0.41759   0.16770   0.00000  Uiso   1.00
H387   H     0.00625   0.38810   0.13919   0.00000  Uiso   1.00
H388   H     0.00202   0.35795   0.17986   0.00000  Uiso   1.00
H389   H     0.49396   0.40612   0.18615   0.00000  Uiso   1.00
H390   H     0.37040   0.15585   0.65054   0.00000  Uiso   1.00
H391   H     0.41219   0.17382   0.66861   0.00000  Uiso   1.00
H392   H     0.38950   0.20834   0.61156   0.00000  Uiso   1.00
N393   N     0.22491   0.43819   0.10355   0.00000  Uiso   1.00
N394   N     0.04995   0.29408   0.39803   0.00000  Uiso   1.00
N395   N     0.30337   0.04031   0.60345   0.00000  Uiso   1.00
N396   N     0.23316   0.43465   0.39930   0.00000  Uiso   1.00
N397   N     0.02397   0.31225   0.60354   0.00000  Uiso   1.00
N398   N     0.45016   0.20483   0.39728   0.00000  Uiso   1.00
N399   N     0.19669   0.45965   0.60334   0.00000  Uiso   1.00
N400   N     0.26698   0.06528   0.39938   0.00000  Uiso   1.00
N401   N     0.29965   0.04498   0.89750   0.00000  Uiso   1.00
N402   N     0.05404   0.28937   0.10345   0.00000  Uiso   1.00
N403   N     0.48209   0.18498   0.89929   0.00000  Uiso   1.00
N404   N     0.27460   0.06204   0.10357   0.00000  Uiso   1.00
N405   N     0.20039   0.45494   0.89738   0.00000  Uiso   1.00
N406   N     0.44600   0.21056   0.10340   0.00000  Uiso   1.00
N407   N     0.01791   0.31502   0.89934   0.00000  Uiso   1.00
N408   N     0.47580   0.18779   0.60358   0.00000  Uiso   1.00
O409   O     0.25000   0.00000   0.25000   0.00000  Uiso   1.00
O410   O     0.25000   0.46964   0.66317   0.00000  Uiso   1.00
O411   O     0.46964   0.25000   0.33683   0.00000  Uiso   1.00
O412   O     0.03036   0.25000   0.66317   0.00000  Uiso   1.00
O413   O     0.00000   0.21964   0.83683   0.00000  Uiso   1.00
O414   O     0.00000   0.28036   0.16317   0.00000  Uiso   1.00
O415   O     0.28036   0.00000   0.83683   0.00000  Uiso   1.00
O416   O     0.21964   0.00000   0.16317   0.00000  Uiso   1.00
O417   O     0.00000   0.28036   0.83683   0.00000  Uiso   1.00
O418   O     0.00000   0.21964   0.16317   0.00000  Uiso   1.00
O419   O     0.21964   0.00000   0.83683   0.00000  Uiso   1.00
O420   O     0.25000   0.00000   0.75000   0.00000  Uiso   1.00
O421   O     0.28036   0.00000   0.16317   0.00000  Uiso   1.00
O422   O     0.20725   0.07307   0.27282   0.00000  Uiso   1.00
O423   O     0.29274   0.42693   0.72718   0.00000  Uiso   1.00
O424   O     0.42693   0.20726   0.27282   0.00000  Uiso   1.00
O425   O     0.07307   0.29275   0.72718   0.00000  Uiso   1.00
O426   O     0.29274   0.42693   0.27282   0.00000  Uiso   1.00
O427   O     0.20725   0.07307   0.72718   0.00000  Uiso   1.00
O428   O     0.07307   0.29275   0.27282   0.00000  Uiso   1.00
O429   O     0.42693   0.20726   0.72718   0.00000  Uiso   1.00
O430   O     0.20725   0.42693   0.72718   0.00000  Uiso   1.00
O431   O    -0.00000   0.25000   0.25000   0.00000  Uiso   1.00
O432   O     0.29274   0.07307   0.27282   0.00000  Uiso   1.00
O433   O     0.42693   0.29275   0.72718   0.00000  Uiso   1.00
O434   O     0.07307   0.20726   0.27282   0.00000  Uiso   1.00
O435   O     0.29274   0.07307   0.72718   0.00000  Uiso   1.00
O436   O     0.20725   0.42693   0.27282   0.00000  Uiso   1.00
O437   O     0.07307   0.20726   0.72718   0.00000  Uiso   1.00
O438   O     0.42693   0.29275   0.27282   0.00000  Uiso   1.00
O439   O     0.45725   0.32307   0.77282   0.00000  Uiso   1.00
O440   O     0.04274   0.17693   0.22718   0.00000  Uiso   1.00
O441   O     0.17693   0.45726   0.77282   0.00000  Uiso   1.00
O442   O     0.00000   0.25000   0.75000   0.00000  Uiso   1.00
O443   O     0.32307   0.04275   0.22718   0.00000  Uiso   1.00
O444   O     0.04274   0.17693   0.77282   0.00000  Uiso   1.00
O445   O     0.45725   0.32307   0.22718   0.00000  Uiso   1.00
O446   O     0.32307   0.04275   0.77282   0.00000  Uiso   1.00
O447   O     0.17693   0.45726   0.22718   0.00000  Uiso   1.00
O448   O     0.45725   0.17693   0.22718   0.00000  Uiso   1.00
O449   O     0.04274   0.32307   0.77282   0.00000  Uiso   1.00
O450   O     0.17693   0.04275   0.22718   0.00000  Uiso   1.00
O451   O     0.32307   0.45726   0.77282   0.00000  Uiso   1.00
O452   O     0.04274   0.32307   0.22718   0.00000  Uiso   1.00
O453   O     0.25000   0.46964   0.33683   0.00000  Uiso   1.00
O454   O     0.45725   0.17693   0.77282   0.00000  Uiso   1.00
O455   O     0.32307   0.45726   0.22718   0.00000  Uiso   1.00
O456   O     0.17693   0.04275   0.77282   0.00000  Uiso   1.00
O457   O     0.11474   0.43647   0.20363   0.00000  Uiso   1.00
O458   O     0.38681   0.06192   0.79351   0.00000  Uiso   1.00
O459   O     0.09140   0.14420   0.17987   0.00000  Uiso   1.00
O460   O     0.40820   0.35542   0.82003   0.00000  Uiso   1.00
O461   O     0.38454   0.06418   0.20240   0.00000  Uiso   1.00
O462   O     0.11322   0.43809   0.79352   0.00000  Uiso   1.00
O463   O     0.40829   0.35553   0.17982   0.00000  Uiso   1.00
O464   O     0.25000   0.03036   0.66317   0.00000  Uiso   1.00
O465   O     0.09186   0.14462   0.82004   0.00000  Uiso   1.00
O466   O     0.14418   0.09037   0.81920   0.00000  Uiso   1.00
O467   O     0.35899   0.41140   0.18095   0.00000  Uiso   1.00
O468   O     0.05494   0.39219   0.77720   0.00000  Uiso   1.00
O469   O     0.44324   0.10912   0.21879   0.00000  Uiso   1.00
O470   O     0.35591   0.40970   0.81919   0.00000  Uiso   1.00
O471   O     0.14052   0.08816   0.18108   0.00000  Uiso   1.00
O472   O     0.44508   0.10781   0.77717   0.00000  Uiso   1.00
O473   O     0.05623   0.39128   0.22062   0.00000  Uiso   1.00
O474   O     0.36553   0.18571   0.70222   0.00000  Uiso   1.00
O475   O     0.03036   0.25000   0.33683   0.00000  Uiso   1.00
O476   O     0.13841   0.31014   0.29013   0.00000  Uiso   1.00
O477   O     0.34126   0.39406   0.67991   0.00000  Uiso   1.00
O478   O     0.15802   0.10523   0.32006   0.00000  Uiso   1.00
O479   O     0.13436   0.31436   0.70209   0.00000  Uiso   1.00
O480   O     0.36314   0.18818   0.29336   0.00000  Uiso   1.00
O481   O     0.15864   0.10587   0.67990   0.00000  Uiso   1.00
O482   O     0.34225   0.39501   0.32011   0.00000  Uiso   1.00
O483   O     0.39462   0.34080   0.31931   0.00000  Uiso   1.00
O484   O     0.10954   0.16191   0.68113   0.00000  Uiso   1.00
O485   O     0.30489   0.14222   0.27703   0.00000  Uiso   1.00
O486   O     0.46964   0.25000   0.66317   0.00000  Uiso   1.00
O487   O     0.19310   0.35923   0.71839   0.00000  Uiso   1.00
O488   O     0.10581   0.15959   0.31921   0.00000  Uiso   1.00
O489   O     0.39028   0.33795   0.68117   0.00000  Uiso   1.00
O490   O     0.19599   0.35726   0.27449   0.00000  Uiso   1.00
O491   O     0.30682   0.14080   0.71854   0.00000  Uiso   1.00
O492   O     0.25000   0.03036   0.33683   0.00000  Uiso   1.00
Zn493  Zn    0.20660   0.00000   0.21760   0.00000  Uiso   1.00
Zn494  Zn    0.04340   0.25000   0.28240   0.00000  Uiso   1.00
Zn495  Zn    0.25000   0.45660   0.71760   0.00000  Uiso   1.00
Zn496  Zn    0.25000   0.04340   0.28240   0.00000  Uiso   1.00
Zn497  Zn    0.04340   0.25000   0.71760   0.00000  Uiso   1.00
Zn498  Zn    0.45660   0.25000   0.28240   0.00000  Uiso   1.00
Zn499  Zn    0.25000   0.04340   0.71760   0.00000  Uiso   1.00
Zn500  Zn    0.25000   0.45660   0.28240   0.00000  Uiso   1.00
Zn501  Zn    0.29340   0.00000   0.78240   0.00000  Uiso   1.00
Zn502  Zn    0.00000   0.20660   0.21760   0.00000  Uiso   1.00
Zn503  Zn    0.00000   0.29340   0.78240   0.00000  Uiso   1.00
Zn504  Zn    0.29340   0.00000   0.21760   0.00000  Uiso   1.00
Zn505  Zn    0.20660   0.00000   0.78240   0.00000  Uiso   1.00
Zn506  Zn    0.00000   0.29340   0.21760   0.00000  Uiso   1.00
Zn507  Zn    0.00000   0.20660   0.78240   0.00000  Uiso   1.00
Zn508  Zn    0.45660   0.25000   0.71760   0.00000  Uiso   1.00
C509   C     0.73860   0.46919   0.04251   0.00000  Uiso   1.00
C510   C     0.52512   0.27047   0.45851   0.00000  Uiso   1.00
C511   C     0.84846   0.40235   0.74981   0.00000  Uiso   1.00
C512   C     0.90237   0.15103   0.25170   0.00000  Uiso   1.00
C513   C     0.59663   0.34973   0.74690   0.00000  Uiso   1.00
C514   C     0.84846   0.40232   0.25001   0.00000  Uiso   1.00
C515   C     0.65155   0.09765   0.74981   0.00000  Uiso   1.00
C516   C     0.59849   0.15234   0.75002   0.00000  Uiso   1.00
C517   C     0.90156   0.34767   0.24982   0.00000  Uiso   1.00
C518   C     0.65236   0.40104   0.75165   0.00000  Uiso   1.00
C519   C     0.84666   0.09971   0.24693   0.00000  Uiso   1.00
C520   C     0.90150   0.34765   0.75002   0.00000  Uiso   1.00
C521   C     0.77635   0.01975   0.54251   0.00000  Uiso   1.00
C522   C     0.59847   0.15236   0.24981   0.00000  Uiso   1.00
C523   C     0.84763   0.09897   0.75168   0.00000  Uiso   1.00
C524   C     0.65336   0.40029   0.24683   0.00000  Uiso   1.00
C525   C     0.74994   0.00004   0.10306   0.00000  Uiso   1.00
C526   C     0.75000   0.49998   0.89757   0.00000  Uiso   1.00
C527   C     0.50001   0.24998   0.10305   0.00000  Uiso   1.00
C528   C     0.50000   0.25000   0.89810   0.00000  Uiso   1.00
C529   C     0.99991   0.25001   0.60306   0.00000  Uiso   1.00
C530   C     0.99991   0.24971   0.39758   0.00000  Uiso   1.00
C531   C     0.75003   0.49998   0.60305   0.00000  Uiso   1.00
C532   C     0.74278   0.46800   0.45925   0.00000  Uiso   1.00
C533   C     0.75005   0.49998   0.39811   0.00000  Uiso   1.00
C534   C     0.63099   0.43074   0.16674   0.00000  Uiso   1.00
C535   C     0.62649   0.46509   0.14260   0.00000  Uiso   1.00
C536   C     0.87278   0.06681   0.83150   0.00000  Uiso   1.00
C537   C     0.88098   0.03275   0.85509   0.00000  Uiso   1.00
C538   C     0.60447   0.17779   0.16573   0.00000  Uiso   1.00
C539   C     0.59764   0.17983   0.12230   0.00000  Uiso   1.00
C540   C     0.89438   0.32212   0.83407   0.00000  Uiso   1.00
C541   C     0.90762   0.31634   0.87540   0.00000  Uiso   1.00
C542   C     0.86770   0.07036   0.16590   0.00000  Uiso   1.00
C543   C     0.51042   0.28113   0.54250   0.00000  Uiso   1.00
C544   C     0.87278   0.03668   0.14081   0.00000  Uiso   1.00
C545   C     0.62727   0.43321   0.83151   0.00000  Uiso   1.00
C546   C     0.61906   0.46726   0.85511   0.00000  Uiso   1.00
C547   C     0.89520   0.32185   0.16590   0.00000  Uiso   1.00
C548   C     0.90165   0.31970   0.12242   0.00000  Uiso   1.00
C549   C     0.60570   0.17793   0.83406   0.00000  Uiso   1.00
C550   C     0.59249   0.18373   0.87540   0.00000  Uiso   1.00
C551   C     0.67064   0.11045   0.83982   0.00000  Uiso   1.00
C552   C     0.69928   0.08465   0.85640   0.00000  Uiso   1.00
C553   C     0.82841   0.39706   0.16157   0.00000  Uiso   1.00
C554   C     0.97383   0.22959   0.45837   0.00000  Uiso   1.00
C555   C     0.82566   0.41438   0.12166   0.00000  Uiso   1.00
C556   C     0.54897   0.39252   0.81769   0.00000  Uiso   1.00
C557   C     0.50867   0.38666   0.82606   0.00000  Uiso   1.00
C558   C     0.94767   0.11080   0.17811   0.00000  Uiso   1.00
C559   C     0.98779   0.11613   0.16838   0.00000  Uiso   1.00
C560   C     0.82949   0.38962   0.83985   0.00000  Uiso   1.00
C561   C     0.80086   0.41542   0.85643   0.00000  Uiso   1.00
C562   C     0.67094   0.10233   0.16130   0.00000  Uiso   1.00
C563   C     0.67335   0.08464   0.12154   0.00000  Uiso   1.00
C564   C     0.95108   0.10746   0.81765   0.00000  Uiso   1.00
C565   C     0.72383   0.48013   0.54246   0.00000  Uiso   1.00
C566   C     0.99139   0.11333   0.82602   0.00000  Uiso   1.00
C567   C     0.55106   0.39081   0.17999   0.00000  Uiso   1.00
C568   C     0.51082   0.38539   0.17088   0.00000  Uiso   1.00
C569   C     0.88246   0.17947   0.66579   0.00000  Uiso   1.00
C570   C     0.87740   0.21308   0.64061   0.00000  Uiso   1.00
C571   C     0.62665   0.31326   0.32919   0.00000  Uiso   1.00
C572   C     0.63761   0.27876   0.35077   0.00000  Uiso   1.00
C573   C     0.85431   0.42762   0.66565   0.00000  Uiso   1.00
C574   C     0.84732   0.42961   0.62226   0.00000  Uiso   1.00
C575   C     0.64410   0.07190   0.33393   0.00000  Uiso   1.00
C576   C     0.75745   0.03189   0.45929   0.00000  Uiso   1.00
C577   C     0.65717   0.06598   0.37530   0.00000  Uiso   1.00
C578   C     0.61734   0.32065   0.66571   0.00000  Uiso   1.00
C579   C     0.62237   0.28709   0.64043   0.00000  Uiso   1.00
C580   C     0.87711   0.18339   0.33140   0.00000  Uiso   1.00
C581   C     0.86890   0.21752   0.35486   0.00000  Uiso   1.00
C582   C     0.64558   0.07229   0.66569   0.00000  Uiso   1.00
C583   C     0.65245   0.07029   0.62227   0.00000  Uiso   1.00
C584   C     0.85623   0.42837   0.33382   0.00000  Uiso   1.00
C585   C     0.84337   0.43438   0.37525   0.00000  Uiso   1.00
C586   C     0.92143   0.36088   0.33941   0.00000  Uiso   1.00
C587   C     0.73773   0.46936   0.08292   0.00000  Uiso   1.00
C588   C     0.95010   0.33504   0.35586   0.00000  Uiso   1.00
C589   C     0.57915   0.14774   0.66125   0.00000  Uiso   1.00
C590   C     0.57690   0.16534   0.62144   0.00000  Uiso   1.00
C591   C     0.79886   0.14267   0.31750   0.00000  Uiso   1.00
C592   C     0.75855   0.13678   0.32583   0.00000  Uiso   1.00
C593   C     0.69737   0.36117   0.67770   0.00000  Uiso   1.00
C594   C     0.73747   0.36646   0.66784   0.00000  Uiso   1.00
C595   C     0.57933   0.13951   0.33977   0.00000  Uiso   1.00
C596   C     0.55074   0.16533   0.35640   0.00000  Uiso   1.00
C597   C     0.92060   0.35206   0.66115   0.00000  Uiso   1.00
C598   C     0.77518   0.02149   0.91798   0.00000  Uiso   1.00
C599   C     0.92271   0.33436   0.62138   0.00000  Uiso   1.00
C600   C     0.70313   0.35565   0.31474   0.00000  Uiso   1.00
C601   C     0.74343   0.36237   0.32228   0.00000  Uiso   1.00
C602   C     0.80247   0.13895   0.67785   0.00000  Uiso   1.00
C603   C     0.76236   0.13363   0.66803   0.00000  Uiso   1.00
C604   C     0.52656   0.26973   0.08289   0.00000  Uiso   1.00
C605   C     0.77566   0.02037   0.95845   0.00000  Uiso   1.00
C606   C     0.99164   0.21791   0.91887   0.00000  Uiso   1.00
C607   C     0.76201   0.03076   0.08293   0.00000  Uiso   1.00
C608   C     0.72480   0.47848   0.91792   0.00000  Uiso   1.00
C609   C     0.97347   0.23022   0.08286   0.00000  Uiso   1.00
C610   C     0.50836   0.28208   0.91889   0.00000  Uiso   1.00
C611   C     0.98797   0.21922   0.58293   0.00000  Uiso   1.00
C612   C     0.52501   0.27106   0.41811   0.00000  Uiso   1.00
C613   C     0.77625   0.02018   0.58289   0.00000  Uiso   1.00
C614   C     0.74221   0.46774   0.41887   0.00000  Uiso   1.00
C615   C     0.51154   0.28090   0.58292   0.00000  Uiso   1.00
C616   C     0.52661   0.26933   0.04250   0.00000  Uiso   1.00
C617   C     0.97454   0.22834   0.41787   0.00000  Uiso   1.00
C618   C     0.72385   0.47976   0.58284   0.00000  Uiso   1.00
C619   C     0.75795   0.03218   0.41891   0.00000  Uiso   1.00
C620   C     0.74987   0.00005   0.02188   0.00000  Uiso   1.00
C621   C     0.74991   0.00003   0.97899   0.00000  Uiso   1.00
C622   C     0.50001   0.24998   0.02212   0.00000  Uiso   1.00
C623   C     0.50000   0.24999   0.97959   0.00000  Uiso   1.00
C624   C     0.99936   0.25017   0.52189   0.00000  Uiso   1.00
C625   C     0.99937   0.25014   0.47903   0.00000  Uiso   1.00
C626   C     0.75011   0.49993   0.52212   0.00000  Uiso   1.00
C627   C     0.99216   0.21817   0.95925   0.00000  Uiso   1.00
C628   C     0.75012   0.49993   0.47959   0.00000  Uiso   1.00
C629   C     0.75001  -0.00000   0.35533   0.00000  Uiso   1.00
C630   C     0.75000  -0.00000   0.64509   0.00000  Uiso   1.00
C631   C     0.99999   0.24994   0.35516   0.00000  Uiso   1.00
C632   C     0.99999   0.25000   0.64506   0.00000  Uiso   1.00
C633   C     0.50000   0.25000   0.85533   0.00000  Uiso   1.00
C634   C     0.50000   0.25000   0.14509   0.00000  Uiso   1.00
C635   C     0.75000  -0.00000   0.85515   0.00000  Uiso   1.00
C636   C     0.74999   0.00002   0.14506   0.00000  Uiso   1.00
C637   C     0.68001   0.07001   0.24983   0.00000  Uiso   1.00
C638   C     0.76109   0.03094   0.04251   0.00000  Uiso   1.00
C639   C     0.81997   0.42998   0.75015   0.00000  Uiso   1.00
C640   C     0.93032   0.17945   0.25084   0.00000  Uiso   1.00
C641   C     0.56941   0.32073   0.74882   0.00000  Uiso   1.00
C642   C     0.81999   0.42999   0.24983   0.00000  Uiso   1.00
C643   C     0.68003   0.07002   0.75015   0.00000  Uiso   1.00
C644   C     0.56976   0.32048   0.25078   0.00000  Uiso   1.00
C645   C     0.93058   0.17928   0.74882   0.00000  Uiso   1.00
C646   C     0.68031   0.42945   0.75083   0.00000  Uiso   1.00
C647   C     0.81942   0.07072   0.24883   0.00000  Uiso   1.00
C648   C     0.93001   0.32001   0.74983   0.00000  Uiso   1.00
C649   C     0.72422   0.47966   0.95839   0.00000  Uiso   1.00
C650   C     0.56997   0.17998   0.25015   0.00000  Uiso   1.00
C651   C     0.81969   0.07055   0.75084   0.00000  Uiso   1.00
C652   C     0.68057   0.42929   0.24882   0.00000  Uiso   1.00
C653   C     0.56999   0.17999   0.74983   0.00000  Uiso   1.00
C654   C     0.93004   0.32003   0.25015   0.00000  Uiso   1.00
C655   C     0.62031   0.40582   0.22622   0.00000  Uiso   1.00
C656   C     0.88079   0.09327   0.77222   0.00000  Uiso   1.00
C657   C     0.60845   0.13552   0.21461   0.00000  Uiso   1.00
C658   C     0.89133   0.36435   0.78528   0.00000  Uiso   1.00
C659   C     0.87932   0.09451   0.22556   0.00000  Uiso   1.00
C660   C     0.97342   0.23061   0.04248   0.00000  Uiso   1.00
C661   C     0.61922   0.40673   0.77221   0.00000  Uiso   1.00
C662   C     0.89140   0.36434   0.21459   0.00000  Uiso   1.00
C663   C     0.60870   0.13568   0.78529   0.00000  Uiso   1.00
C664   C     0.63508   0.10807   0.78502   0.00000  Uiso   1.00
C665   C     0.86530   0.39213   0.21482   0.00000  Uiso   1.00
C666   C     0.59060   0.38198   0.76806   0.00000  Uiso   1.00
C667   C     0.90799   0.11907   0.22980   0.00000  Uiso   1.00
C668   C     0.86496   0.39196   0.78502   0.00000  Uiso   1.00
C669   C     0.63450   0.10769   0.21485   0.00000  Uiso   1.00
C670   C     0.90940   0.11802   0.76805   0.00000  Uiso   1.00
C671   C     0.50784   0.28181   0.95927   0.00000  Uiso   1.00
C672   C     0.59173   0.38118   0.23060   0.00000  Uiso   1.00
C673   C     0.87072   0.15543   0.72546   0.00000  Uiso   1.00
C674   C     0.63158   0.34248   0.27086   0.00000  Uiso   1.00
C675   C     0.85838   0.38545   0.71463   0.00000  Uiso   1.00
C676   C     0.64126   0.11428   0.28529   0.00000  Uiso   1.00
C677   C     0.62922   0.34460   0.72539   0.00000  Uiso   1.00
C678   C     0.86919   0.15677   0.27215   0.00000  Uiso   1.00
C679   C     0.64157   0.11451   0.71463   0.00000  Uiso   1.00
C680   C     0.85888   0.38585   0.28531   0.00000  Uiso   1.00
C681   C     0.88529   0.35827   0.28506   0.00000  Uiso   1.00
C682   C     0.98854   0.21915   0.54251   0.00000  Uiso   1.00
C683   C     0.61553   0.14235   0.71487   0.00000  Uiso   1.00
C684   C     0.84058   0.13200   0.26799   0.00000  Uiso   1.00
C685   C     0.65790   0.36915   0.72961   0.00000  Uiso   1.00
C686   C     0.61491   0.14191   0.28502   0.00000  Uiso   1.00
C687   C     0.88440   0.35759   0.71488   0.00000  Uiso   1.00
C688   C     0.66001   0.36752   0.26681   0.00000  Uiso   1.00
C689   C     0.84205   0.13087   0.72969   0.00000  Uiso   1.00
C690   C     0.59784   0.34877   0.25156   0.00000  Uiso   1.00
C691   C     0.90335   0.15028   0.74691   0.00000  Uiso   1.00
C692   C     0.65151   0.09766   0.25001   0.00000  Uiso   1.00
H693   H     0.73073   0.44464   0.02754   0.00000  Uiso   1.00
H694   H     0.54566   0.28597   0.47360   0.00000  Uiso   1.00
H695   H     0.89099   0.23670   0.65428   0.00000  Uiso   1.00
H696   H     0.84791   0.21936   0.63708   0.00000  Uiso   1.00
H697   H     0.59664   0.31695   0.33148   0.00000  Uiso   1.00
H698   H     0.63891   0.33688   0.34415   0.00000  Uiso   1.00
H699   H     0.63400   0.28261   0.38241   0.00000  Uiso   1.00
H700   H     0.66673   0.27207   0.34527   0.00000  Uiso   1.00
H701   H     0.62058   0.25572   0.34091   0.00000  Uiso   1.00
H702   H     0.88404   0.43135   0.67080   0.00000  Uiso   1.00
H703   H     0.83955   0.45072   0.67937   0.00000  Uiso   1.00
H704   H     0.85698   0.45599   0.61075   0.00000  Uiso   1.00
H705   H     0.79726   0.03457   0.52719   0.00000  Uiso   1.00
H706   H     0.81764   0.42728   0.61634   0.00000  Uiso   1.00
H707   H     0.86211   0.40719   0.60729   0.00000  Uiso   1.00
H708   H     0.65406   0.04863   0.31629   0.00000  Uiso   1.00
H709   H     0.61376   0.07158   0.33376   0.00000  Uiso   1.00
H710   H     0.64664   0.03982   0.38651   0.00000  Uiso   1.00
H711   H     0.64724   0.08841   0.39418   0.00000  Uiso   1.00
H712   H     0.68743   0.06513   0.37608   0.00000  Uiso   1.00
H713   H     0.62933   0.34431   0.65050   0.00000  Uiso   1.00
H714   H     0.58761   0.32625   0.66860   0.00000  Uiso   1.00
H715   H     0.61018   0.29187   0.61142   0.00000  Uiso   1.00
H716   H     0.73758   0.44294   0.47467   0.00000  Uiso   1.00
H717   H     0.60886   0.26343   0.65407   0.00000  Uiso   1.00
H718   H     0.65186   0.28087   0.63681   0.00000  Uiso   1.00
H719   H     0.90706   0.17853   0.33148   0.00000  Uiso   1.00
H720   H     0.86468   0.15982   0.34630   0.00000  Uiso   1.00
H721   H     0.87646   0.21321   0.38565   0.00000  Uiso   1.00
H722   H     0.83934   0.22420   0.35346   0.00000  Uiso   1.00
H723   H     0.88461   0.24073   0.34315   0.00000  Uiso   1.00
H724   H     0.61588   0.06853   0.67091   0.00000  Uiso   1.00
H725   H     0.66041   0.04922   0.67937   0.00000  Uiso   1.00
H726   H     0.68210   0.07264   0.61628   0.00000  Uiso   1.00
H727   H     0.51795   0.30576   0.52751   0.00000  Uiso   1.00
H728   H     0.63759   0.09269   0.60734   0.00000  Uiso   1.00
H729   H     0.64278   0.04388   0.61079   0.00000  Uiso   1.00
H730   H     0.84615   0.45159   0.31618   0.00000  Uiso   1.00
H731   H     0.88657   0.42871   0.33350   0.00000  Uiso   1.00
H732   H     0.85395   0.46057   0.38635   0.00000  Uiso   1.00
H733   H     0.85342   0.41200   0.39412   0.00000  Uiso   1.00
H734   H     0.81312   0.43521   0.37620   0.00000  Uiso   1.00
H735   H     0.90821   0.37515   0.36410   0.00000  Uiso   1.00
H736   H     0.93581   0.38140   0.32123   0.00000  Uiso   1.00
H737   H     0.93691   0.31331   0.37307   0.00000  Uiso   1.00
H738   H     0.95321   0.21438   0.47363   0.00000  Uiso   1.00
H739   H     0.96609   0.32265   0.33189   0.00000  Uiso   1.00
H740   H     0.96907   0.35017   0.37492   0.00000  Uiso   1.00
H741   H     0.55343   0.15379   0.67714   0.00000  Uiso   1.00
H742   H     0.58154   0.11792   0.65701   0.00000  Uiso   1.00
H743   H     0.55447   0.15303   0.60451   0.00000  Uiso   1.00
H744   H     0.57171   0.19499   0.62438   0.00000  Uiso   1.00
H745   H     0.60288   0.16092   0.60553   0.00000  Uiso   1.00
H746   H     0.80532   0.16991   0.32910   0.00000  Uiso   1.00
H747   H     0.81479   0.12122   0.33308   0.00000  Uiso   1.00
H748   H     0.75076   0.10858   0.31869   0.00000  Uiso   1.00
H749   H     0.70294   0.46530   0.52709   0.00000  Uiso   1.00
H750   H     0.75306   0.14139   0.35710   0.00000  Uiso   1.00
H751   H     0.74157   0.15602   0.30862   0.00000  Uiso   1.00
H752   H     0.68140   0.38397   0.66450   0.00000  Uiso   1.00
H753   H     0.68952   0.33498   0.66445   0.00000  Uiso   1.00
H754   H     0.74122   0.36544   0.63592   0.00000  Uiso   1.00
H755   H     0.74701   0.39317   0.67832   0.00000  Uiso   1.00
H756   H     0.75431   0.34464   0.68132   0.00000  Uiso   1.00
H757   H     0.59289   0.12546   0.36439   0.00000  Uiso   1.00
H758   H     0.56482   0.11884   0.32190   0.00000  Uiso   1.00
H759   H     0.56402   0.18727   0.37324   0.00000  Uiso   1.00
H760   H     0.76267   0.05693   0.47474   0.00000  Uiso   1.00
H761   H     0.53437   0.17744   0.33255   0.00000  Uiso   1.00
H762   H     0.53213   0.15023   0.37586   0.00000  Uiso   1.00
H763   H     0.94638   0.34605   0.67698   0.00000  Uiso   1.00
H764   H     0.91820   0.38187   0.65684   0.00000  Uiso   1.00
H765   H     0.94506   0.34663   0.60434   0.00000  Uiso   1.00
H766   H     0.92791   0.30472   0.62439   0.00000  Uiso   1.00
H767   H     0.89666   0.33873   0.60555   0.00000  Uiso   1.00
H768   H     0.69775   0.32784   0.32535   0.00000  Uiso   1.00
H769   H     0.68706   0.37611   0.33162   0.00000  Uiso   1.00
H770   H     0.75001   0.39125   0.31719   0.00000  Uiso   1.00
H771   H     0.61807   0.40787   0.15104   0.00000  Uiso   1.00
H772   H     0.75000   0.35593   0.35296   0.00000  Uiso   1.00
H773   H     0.76055   0.34493   0.30316   0.00000  Uiso   1.00
H774   H     0.81844   0.11621   0.66455   0.00000  Uiso   1.00
H775   H     0.81026   0.16520   0.66467   0.00000  Uiso   1.00
H776   H     0.75854   0.13476   0.63613   0.00000  Uiso   1.00
H777   H     0.75289   0.10686   0.67841   0.00000  Uiso   1.00
H778   H     0.74550   0.15537   0.68164   0.00000  Uiso   1.00
H779   H     0.74043   0.41567   0.09492   0.00000  Uiso   1.00
H780   H     0.69801   0.43355   0.09501   0.00000  Uiso   1.00
H781   H     0.78385   0.06494   0.88372   0.00000  Uiso   1.00
H782   H     0.66061   0.42423   0.16885   0.00000  Uiso   1.00
H783   H     0.81658   0.05871   0.91687   0.00000  Uiso   1.00
H784   H     0.55235   0.31663   0.09504   0.00000  Uiso   1.00
H785   H     0.57954   0.27927   0.09490   0.00000  Uiso   1.00
H786   H     0.95604   0.17743   0.90839   0.00000  Uiso   1.00
H787   H     0.50044   0.16459   0.90785   0.00000  Uiso   1.00
H788   H     0.75876   0.08440   0.09509   0.00000  Uiso   1.00
H789   H     0.80137   0.06703   0.09483   0.00000  Uiso   1.00
H790   H     0.71624   0.43499   0.88366   0.00000  Uiso   1.00
H791   H     0.68345   0.44120   0.91672   0.00000  Uiso   1.00
H792   H     0.94773   0.18330   0.09500   0.00000  Uiso   1.00
H793   H     0.64059   0.48807   0.15688   0.00000  Uiso   1.00
H794   H     0.92049   0.22063   0.09482   0.00000  Uiso   1.00
H795   H     0.54396   0.32256   0.90845   0.00000  Uiso   1.00
H796   H     0.99957   0.33541   0.90791   0.00000  Uiso   1.00
H797   H     0.99171   0.16557   0.59487   0.00000  Uiso   1.00
H798   H     0.94899   0.18263   0.59509   0.00000  Uiso   1.00
H799   H     0.54451   0.32091   0.40632   0.00000  Uiso   1.00
H800   H     0.57621   0.28747   0.40751   0.00000  Uiso   1.00
H801   H     0.80120   0.06754   0.59503   0.00000  Uiso   1.00
H802   H     0.82905   0.03066   0.59493   0.00000  Uiso   1.00
H803   H     0.70726   0.42669   0.40844   0.00000  Uiso   1.00
H804   H     0.79626   0.03556   0.97377   0.00000  Uiso   1.00
H805   H     0.59710   0.47200   0.13940   0.00000  Uiso   1.00
H806   H     0.75184   0.41454   0.40779   0.00000  Uiso   1.00
H807   H     0.50792   0.33450   0.59518   0.00000  Uiso   1.00
H808   H     0.55066   0.31746   0.59468   0.00000  Uiso   1.00
H809   H     0.96601   0.18483   0.38364   0.00000  Uiso   1.00
H810   H     0.93313   0.19115   0.41658   0.00000  Uiso   1.00
H811   H     0.69888   0.43241   0.59496   0.00000  Uiso   1.00
H812   H     0.67104   0.46929   0.59473   0.00000  Uiso   1.00
H813   H     0.79293   0.07319   0.40846   0.00000  Uiso   1.00
H814   H     0.74837   0.08540   0.40800   0.00000  Uiso   1.00
H815   H     0.63841   0.46086   0.11337   0.00000  Uiso   1.00
H816   H     0.84282   0.07164   0.83150   0.00000  Uiso   1.00
H817   H     0.88518   0.09044   0.84636   0.00000  Uiso   1.00
H818   H     0.87339   0.03716   0.88585   0.00000  Uiso   1.00
H819   H     0.91054   0.02608   0.85376   0.00000  Uiso   1.00
H820   H     0.86529   0.00950   0.84342   0.00000  Uiso   1.00
H821   H     0.63418   0.18154   0.17099   0.00000  Uiso   1.00
H822   H     0.58964   0.20085   0.17943   0.00000  Uiso   1.00
H823   H     0.56798   0.17752   0.11626   0.00000  Uiso   1.00
H824   H     0.54776   0.28380   0.02717   0.00000  Uiso   1.00
H825   H     0.61248   0.15743   0.10737   0.00000  Uiso   1.00
H826   H     0.60734   0.20623   0.11087   0.00000  Uiso   1.00
H827   H     0.90430   0.29880   0.81647   0.00000  Uiso   1.00
H828   H     0.86404   0.32176   0.83404   0.00000  Uiso   1.00
H829   H     0.89721   0.29018   0.88674   0.00000  Uiso   1.00
H830   H     0.89768   0.33879   0.89426   0.00000  Uiso   1.00
H831   H     0.93788   0.31560   0.87607   0.00000  Uiso   1.00
H832   H     0.87982   0.09392   0.15064   0.00000  Uiso   1.00
H833   H     0.83797   0.07605   0.16861   0.00000  Uiso   1.00
H834   H     0.85911   0.01312   0.15447   0.00000  Uiso   1.00
H835   H     0.98655   0.19320   0.97468   0.00000  Uiso   1.00
H836   H     0.90227   0.03036   0.13741   0.00000  Uiso   1.00
H837   H     0.86077   0.04138   0.11170   0.00000  Uiso   1.00
H838   H     0.65723   0.42840   0.83151   0.00000  Uiso   1.00
H839   H     0.61490   0.40957   0.84635   0.00000  Uiso   1.00
H840   H     0.62664   0.46285   0.88587   0.00000  Uiso   1.00
H841   H     0.58949   0.47392   0.85376   0.00000  Uiso   1.00
H842   H     0.63474   0.49052   0.84347   0.00000  Uiso   1.00
H843   H     0.86556   0.31802   0.17145   0.00000  Uiso   1.00
H844   H     0.91024   0.29889   0.17953   0.00000  Uiso   1.00
H845   H     0.89193   0.29323   0.11117   0.00000  Uiso   1.00
H846   H     0.76889   0.05550   0.02755   0.00000  Uiso   1.00
H847   H     0.93124   0.32209   0.11609   0.00000  Uiso   1.00
H848   H     0.88660   0.34201   0.10755   0.00000  Uiso   1.00
H849   H     0.59576   0.20124   0.81646   0.00000  Uiso   1.00
H850   H     0.63604   0.17830   0.83402   0.00000  Uiso   1.00
H851   H     0.60290   0.20991   0.88672   0.00000  Uiso   1.00
H852   H     0.60245   0.16130   0.89426   0.00000  Uiso   1.00
H853   H     0.56222   0.18447   0.87607   0.00000  Uiso   1.00
H854   H     0.65706   0.12444   0.86447   0.00000  Uiso   1.00
H855   H     0.68510   0.13119   0.82201   0.00000  Uiso   1.00
H856   H     0.68603   0.06268   0.87320   0.00000  Uiso   1.00
H857   H     0.70358   0.46449   0.97365   0.00000  Uiso   1.00
H858   H     0.71565   0.07260   0.83253   0.00000  Uiso   1.00
H859   H     0.71788   0.09976   0.87588   0.00000  Uiso   1.00
H860   H     0.80285   0.40318   0.17773   0.00000  Uiso   1.00
H861   H     0.83080   0.36721   0.15754   0.00000  Uiso   1.00
H862   H     0.80301   0.40197   0.10516   0.00000  Uiso   1.00
H863   H     0.82053   0.44405   0.12443   0.00000  Uiso   1.00
H864   H     0.85145   0.40983   0.10541   0.00000  Uiso   1.00
H865   H     0.55549   0.41972   0.82937   0.00000  Uiso   1.00
H866   H     0.56491   0.37101   0.83316   0.00000  Uiso   1.00
H867   H     0.50082   0.35850   0.81882   0.00000  Uiso   1.00
H868   H     0.95226   0.21614   0.02712   0.00000  Uiso   1.00
H869   H     0.50323   0.39118   0.85736   0.00000  Uiso   1.00
H870   H     0.99169   0.40599   0.80896   0.00000  Uiso   1.00
H871   H     0.93170   0.13348   0.16467   0.00000  Uiso   1.00
H872   H     0.93993   0.08450   0.16502   0.00000  Uiso   1.00
H873   H     0.99169   0.11480   0.13650   0.00000  Uiso   1.00
H874   H     0.99720   0.14297   0.17860   0.00000  Uiso   1.00
H875   H     0.50465   0.09449   0.18219   0.00000  Uiso   1.00
H876   H     0.84312   0.37567   0.86450   0.00000  Uiso   1.00
H877   H     0.81501   0.36886   0.82207   0.00000  Uiso   1.00
H878   H     0.78444   0.42743   0.83257   0.00000  Uiso   1.00
H879   H     0.51346   0.30677   0.97473   0.00000  Uiso   1.00
H880   H     0.78231   0.40033   0.87596   0.00000  Uiso   1.00
H881   H     0.81412   0.43742   0.87319   0.00000  Uiso   1.00
H882   H     0.69663   0.09636   0.17731   0.00000  Uiso   1.00
H883   H     0.66851   0.13213   0.15699   0.00000  Uiso   1.00
H884   H     0.69589   0.09687   0.10473   0.00000  Uiso   1.00
H885   H     0.67846   0.05499   0.12458   0.00000  Uiso   1.00
H886   H     0.64745   0.08908   0.10547   0.00000  Uiso   1.00
H887   H     0.94457   0.08026   0.82931   0.00000  Uiso   1.00
H888   H     0.93517   0.12898   0.83314   0.00000  Uiso   1.00
H889   H     0.99924   0.14149   0.81880   0.00000  Uiso   1.00
H890   H     0.98086   0.19455   0.52752   0.00000  Uiso   1.00
H891   H     0.99686   0.10879   0.85731   0.00000  Uiso   1.00
H892   H     0.50836   0.09401   0.80889   0.00000  Uiso   1.00
H893   H     0.56695   0.36870   0.16545   0.00000  Uiso   1.00
H894   H     0.55832   0.41759   0.16770   0.00000  Uiso   1.00
H895   H     0.50625   0.38810   0.13919   0.00000  Uiso   1.00
H896   H     0.50202   0.35795   0.17986   0.00000  Uiso   1.00
H897   H     0.99396   0.40612   0.18615   0.00000  Uiso   1.00
H898   H     0.87040   0.15585   0.65054   0.00000  Uiso   1.00
H899   H     0.91219   0.17382   0.66861   0.00000  Uiso   1.00
H900   H     0.88950   0.20834   0.61156   0.00000  Uiso   1.00
N901   N     0.72491   0.43819   0.10355   0.00000  Uiso   1.00
N902   N     0.54995   0.29408   0.39803   0.00000  Uiso   1.00
N903   N     0.80337   0.04031   0.60345   0.00000  Uiso   1.00
N904   N     0.73316   0.43465   0.39930   0.00000  Uiso   1.00
N905   N     0.52397   0.31225   0.60354   0.00000  Uiso   1.00
N906   N     0.95016   0.20483   0.39728   0.00000  Uiso   1.00
N907   N     0.69669   0.45965   0.60334   0.00000  Uiso   1.00
N908   N     0.76698   0.06528   0.39938   0.00000  Uiso   1.00
N909   N     0.79965   0.04498   0.89750   0.00000  Uiso   1.00
N910   N     0.55404   0.28937   0.10345   0.00000  Uiso   1.00
N911   N     0.98209   0.18498   0.89929   0.00000  Uiso   1.00
N912   N     0.77460   0.06204   0.10357   0.00000  Uiso   1.00
N913   N     0.70039   0.45494   0.89738   0.00000  Uiso   1.00
N914   N     0.94600   0.21056   0.10340   0.00000  Uiso   1.00
N915   N     0.51791   0.31502   0.89934   0.00000  Uiso   1.00
N916   N     0.97580   0.18779   0.60358   0.00000  Uiso   1.00
O917   O     0.75000   0.00000   0.25000   0.00000  Uiso   1.00
O918   O     0.75000   0.46964   0.66317   0.00000  Uiso   1.00
O919   O     0.96964   0.25000   0.33683   0.00000  Uiso   1.00
O920   O     0.53036   0.25000   0.66317   0.00000  Uiso   1.00
O921   O     0.50000   0.21964   0.83683   0.00000  Uiso   1.00
O922   O     0.50000   0.28036   0.16317   0.00000  Uiso   1.00
O923   O     0.78036   0.00000   0.83683   0.00000  Uiso   1.00
O924   O     0.71964   0.00000   0.16317   0.00000  Uiso   1.00
O925   O     0.50000   0.28036   0.83683   0.00000  Uiso   1.00
O926   O     0.50000   0.21964   0.16317   0.00000  Uiso   1.00
O927   O     0.71964   0.00000   0.83683   0.00000  Uiso   1.00
O928   O     0.75000   0.00000   0.75000   0.00000  Uiso   1.00
O929   O     0.78036   0.00000   0.16317   0.00000  Uiso   1.00
O930   O     0.70725   0.07307   0.27282   0.00000  Uiso   1.00
O931   O     0.79274   0.42693   0.72718   0.00000  Uiso   1.00
O932   O     0.92693   0.20726   0.27282   0.00000  Uiso   1.00
O933   O     0.57307   0.29275   0.72718   0.00000  Uiso   1.00
O934   O     0.79274   0.42693   0.27282   0.00000  Uiso   1.00
O935   O     0.70725   0.07307   0.72718   0.00000  Uiso   1.00
O936   O     0.57307   0.29275   0.27282   0.00000  Uiso   1.00
O937   O     0.92693   0.20726   0.72718   0.00000  Uiso   1.00
O938   O     0.70725   0.42693   0.72718   0.00000  Uiso   1.00
O939   O     0.50000   0.25000   0.25000   0.00000  Uiso   1.00
O940   O     0.79274   0.07307   0.27282   0.00000  Uiso   1.00
O941   O     0.92693   0.29275   0.72718   0.00000  Uiso   1.00
O942   O     0.57307   0.20726   0.27282   0.00000  Uiso   1.00
O943   O     0.79274   0.07307   0.72718   0.00000  Uiso   1.00
O944   O     0.70725   0.42693   0.27282   0.00000  Uiso   1.00
O945   O     0.57307   0.20726   0.72718   0.00000  Uiso   1.00
O946   O     0.92693   0.29275   0.27282   0.00000  Uiso   1.00
O947   O     0.95725   0.32307   0.77282   0.00000  Uiso   1.00
O948   O     0.54274   0.17693   0.22718   0.00000  Uiso   1.00
O949   O     0.67693   0.45726   0.77282   0.00000  Uiso   1.00
O950   O     0.50000   0.25000   0.75000   0.00000  Uiso   1.00
O951   O     0.82307   0.04275   0.22718   0.00000  Uiso   1.00
O952   O     0.54274   0.17693   0.77282   0.00000  Uiso   1.00
O953   O     0.95725   0.32307   0.22718   0.00000  Uiso   1.00
O954   O     0.82307   0.04275   0.77282   0.00000  Uiso   1.00
O955   O     0.67693   0.45726   0.22718   0.00000  Uiso   1.00
O956   O     0.95725   0.17693   0.22718   0.00000  Uiso   1.00
O957   O     0.54274   0.32307   0.77282   0.00000  Uiso   1.00
O958   O     0.67693   0.04275   0.22718   0.00000  Uiso   1.00
O959   O     0.82307   0.45726   0.77282   0.00000  Uiso   1.00
O960   O     0.54274   0.32307   0.22718   0.00000  Uiso   1.00
O961   O     0.75000   0.46964   0.33683   0.00000  Uiso   1.00
O962   O     0.95725   0.17693   0.77282   0.00000  Uiso   1.00
O963   O     0.82307   0.45726   0.22718   0.00000  Uiso   1.00
O964   O     0.67693   0.04275   0.77282   0.00000  Uiso   1.00
O965   O     0.61474   0.43647   0.20363   0.00000  Uiso   1.00
O966   O     0.88681   0.06192   0.79351   0.00000  Uiso   1.00
O967   O     0.59140   0.14420   0.17987   0.00000  Uiso   1.00
O968   O     0.90820   0.35542   0.82003   0.00000  Uiso   1.00
O969   O     0.88454   0.06418   0.20240   0.00000  Uiso   1.00
O970   O     0.61322   0.43809   0.79352   0.00000  Uiso   1.00
O971   O     0.90829   0.35553   0.17982   0.00000  Uiso   1.00
O972   O     0.75000   0.03036   0.66317   0.00000  Uiso   1.00
O973   O     0.59186   0.14462   0.82004   0.00000  Uiso   1.00
O974   O     0.64418   0.09037   0.81920   0.00000  Uiso   1.00
O975   O     0.85899   0.41140   0.18095   0.00000  Uiso   1.00
O976   O     0.55494   0.39219   0.77720   0.00000  Uiso   1.00
O977   O     0.94324   0.10912   0.21879   0.00000  Uiso   1.00
O978   O     0.85591   0.40970   0.81919   0.00000  Uiso   1.00
O979   O     0.64052   0.08816   0.18108   0.00000  Uiso   1.00
O980   O     0.94508   0.10781   0.77717   0.00000  Uiso   1.00
O981   O     0.55623   0.39128   0.22062   0.00000  Uiso   1.00
O982   O     0.86553   0.18571   0.70222   0.00000  Uiso   1.00
O983   O     0.53036   0.25000   0.33683   0.00000  Uiso   1.00
O984   O     0.63841   0.31014   0.29013   0.00000  Uiso   1.00
O985   O     0.84126   0.39406   0.67991   0.00000  Uiso   1.00
O986   O     0.65802   0.10523   0.32006   0.00000  Uiso   1.00
O987   O     0.63436   0.31436   0.70209   0.00000  Uiso   1.00
O988   O     0.86314   0.18818   0.29336   0.00000  Uiso   1.00
O989   O     0.65864   0.10587   0.67990   0.00000  Uiso   1.00
O990   O     0.84225   0.39501   0.32011   0.00000  Uiso   1.00
O991   O     0.89462   0.34080   0.31931   0.00000  Uiso   1.00
O992   O     0.60954   0.16191   0.68113   0.00000  Uiso   1.00
O993   O     0.80489   0.14222   0.27703   0.00000  Uiso   1.00
O994   O     0.96964   0.25000   0.66317   0.00000  Uiso   1.00
O995   O     0.69310   0.35923   0.71839   0.00000  Uiso   1.00
O996   O     0.60581   0.15959   0.31921   0.00000  Uiso   1.00
O997   O     0.89028   0.33795   0.68117   0.00000  Uiso   1.00
O998   O     0.69599   0.35726   0.27449   0.00000  Uiso   1.00
O999   O     0.80682   0.14080   0.71854   0.00000  Uiso   1.00
O1000  O     0.75000   0.03036   0.33683   0.00000  Uiso   1.00
Zn1001 Zn    0.70660   0.00000   0.21760   0.00000  Uiso   1.00
Zn1002 Zn    0.54340   0.25000   0.28240   0.00000  Uiso   1.00
Zn1003 Zn    0.75000   0.45660   0.71760   0.00000  Uiso   1.00
Zn1004 Zn    0.75000   0.04340   0.28240   0.00000  Uiso   1.00
Zn1005 Zn    0.54340   0.25000   0.71760   0.00000  Uiso   1.00
Zn1006 Zn    0.95660   0.25000   0.28240   0.00000  Uiso   1.00
Zn1007 Zn    0.75000   0.04340   0.71760   0.00000  Uiso   1.00
Zn1008 Zn    0.75000   0.45660   0.28240   0.00000  Uiso   1.00
Zn1009 Zn    0.79340   0.00000   0.78240   0.00000  Uiso   1.00
Zn1010 Zn    0.50000   0.20660   0.21760   0.00000  Uiso   1.00
Zn1011 Zn    0.50000   0.29340   0.78240   0.00000  Uiso   1.00
Zn1012 Zn    0.79340   0.00000   0.21760   0.00000  Uiso   1.00
Zn1013 Zn    0.70660   0.00000   0.78240   0.00000  Uiso   1.00
Zn1014 Zn    0.50000   0.29340   0.21760   0.00000  Uiso   1.00
Zn1015 Zn    0.50000   0.20660   0.78240   0.00000  Uiso   1.00
Zn1016 Zn    0.95660   0.25000   0.71760   0.00000  Uiso   1.00
C1017  C     0.23860   0.96919   0.04251   0.00000  Uiso   1.00
C1018  C     0.02512   0.77047   0.45851   0.00000  Uiso   1.00
C1019  C     0.34846   0.90235   0.74981   0.00000  Uiso   1.00
C1020  C     0.40237   0.65103   0.25170   0.00000  Uiso   1.00
C1021  C     0.09663   0.84973   0.74690   0.00000  Uiso   1.00
C1022  C     0.34846   0.90232   0.25001   0.00000  Uiso   1.00
C1023  C     0.15155   0.59765   0.74981   0.00000  Uiso   1.00
C1024  C     0.09849   0.65234   0.75002   0.00000  Uiso   1.00
C1025  C     0.40156   0.84767   0.24982   0.00000  Uiso   1.00
C1026  C     0.15236   0.90104   0.75165   0.00000  Uiso   1.00
C1027  C     0.34666   0.59971   0.24693   0.00000  Uiso   1.00
C1028  C     0.40150   0.84765   0.75002   0.00000  Uiso   1.00
C1029  C     0.27635   0.51975   0.54251   0.00000  Uiso   1.00
C1030  C     0.09847   0.65236   0.24981   0.00000  Uiso   1.00
C1031  C     0.34763   0.59897   0.75168   0.00000  Uiso   1.00
C1032  C     0.15336   0.90029   0.24683   0.00000  Uiso   1.00
C1033  C     0.24994   0.50004   0.10306   0.00000  Uiso   1.00
C1034  C     0.25000   0.99998   0.89757   0.00000  Uiso   1.00
C1035  C     0.00001   0.74998   0.10305   0.00000  Uiso   1.00
C1036  C    -0.00000   0.75000   0.89810   0.00000  Uiso   1.00
C1037  C     0.49991   0.75001   0.60306   0.00000  Uiso   1.00
C1038  C     0.49991   0.74971   0.39758   0.00000  Uiso   1.00
C1039  C     0.25003   0.99998   0.60305   0.00000  Uiso   1.00
C1040  C     0.24278   0.96800   0.45925   0.00000  Uiso   1.00
C1041  C     0.25005   0.99998   0.39811   0.00000  Uiso   1.00
C1042  C     0.13099   0.93074   0.16674   0.00000  Uiso   1.00
C1043  C     0.12649   0.96509   0.14260   0.00000  Uiso   1.00
C1044  C     0.37278   0.56681   0.83150   0.00000  Uiso   1.00
C1045  C     0.38098   0.53275   0.85509   0.00000  Uiso   1.00
C1046  C     0.10447   0.67779   0.16573   0.00000  Uiso   1.00
C1047  C     0.09764   0.67983   0.12230   0.00000  Uiso   1.00
C1048  C     0.39438   0.82212   0.83407   0.00000  Uiso   1.00
C1049  C     0.40762   0.81634   0.87540   0.00000  Uiso   1.00
C1050  C     0.36770   0.57036   0.16590   0.00000  Uiso   1.00
C1051  C     0.01042   0.78113   0.54250   0.00000  Uiso   1.00
C1052  C     0.37278   0.53668   0.14081   0.00000  Uiso   1.00
C1053  C     0.12727   0.93321   0.83151   0.00000  Uiso   1.00
C1054  C     0.11906   0.96726   0.85511   0.00000  Uiso   1.00
C1055  C     0.39520   0.82185   0.16590   0.00000  Uiso   1.00
C1056  C     0.40165   0.81970   0.12242   0.00000  Uiso   1.00
C1057  C     0.10570   0.67793   0.83406   0.00000  Uiso   1.00
C1058  C     0.09249   0.68373   0.87540   0.00000  Uiso   1.00
C1059  C     0.17064   0.61045   0.83982   0.00000  Uiso   1.00
C1060  C     0.19928   0.58465   0.85640   0.00000  Uiso   1.00
C1061  C     0.32841   0.89706   0.16157   0.00000  Uiso   1.00
C1062  C     0.47383   0.72959   0.45837   0.00000  Uiso   1.00
C1063  C     0.32566   0.91438   0.12166   0.00000  Uiso   1.00
C1064  C     0.04897   0.89252   0.81769   0.00000  Uiso   1.00
C1065  C     0.00867   0.88666   0.82606   0.00000  Uiso   1.00
C1066  C     0.44767   0.61080   0.17811   0.00000  Uiso   1.00
C1067  C     0.48779   0.61613   0.16838   0.00000  Uiso   1.00
C1068  C     0.32949   0.88962   0.83985   0.00000  Uiso   1.00
C1069  C     0.30086   0.91542   0.85643   0.00000  Uiso   1.00
C1070  C     0.17094   0.60233   0.16130   0.00000  Uiso   1.00
C1071  C     0.17335   0.58464   0.12154   0.00000  Uiso   1.00
C1072  C     0.45108   0.60746   0.81765   0.00000  Uiso   1.00
C1073  C     0.22383   0.98013   0.54246   0.00000  Uiso   1.00
C1074  C     0.49139   0.61333   0.82602   0.00000  Uiso   1.00
C1075  C     0.05106   0.89081   0.17999   0.00000  Uiso   1.00
C1076  C     0.01082   0.88539   0.17088   0.00000  Uiso   1.00
C1077  C     0.38246   0.67947   0.66579   0.00000  Uiso   1.00
C1078  C     0.37740   0.71308   0.64061   0.00000  Uiso   1.00
C1079  C     0.12665   0.81326   0.32919   0.00000  Uiso   1.00
C1080  C     0.13761   0.77876   0.35077   0.00000  Uiso   1.00
C1081  C     0.35431   0.92762   0.66565   0.00000  Uiso   1.00
C1082  C     0.34732   0.92961   0.62226   0.00000  Uiso   1.00
C1083  C     0.14410   0.57190   0.33393   0.00000  Uiso   1.00
C1084  C     0.25745   0.53189   0.45929   0.00000  Uiso   1.00
C1085  C     0.15717   0.56598   0.37530   0.00000  Uiso   1.00
C1086  C     0.11734   0.82065   0.66571   0.00000  Uiso   1.00
C1087  C     0.12237   0.78709   0.64043   0.00000  Uiso   1.00
C1088  C     0.37711   0.68339   0.33140   0.00000  Uiso   1.00
C1089  C     0.36890   0.71752   0.35486   0.00000  Uiso   1.00
C1090  C     0.14558   0.57229   0.66569   0.00000  Uiso   1.00
C1091  C     0.15245   0.57029   0.62227   0.00000  Uiso   1.00
C1092  C     0.35623   0.92837   0.33382   0.00000  Uiso   1.00
C1093  C     0.34337   0.93438   0.37525   0.00000  Uiso   1.00
C1094  C     0.42143   0.86088   0.33941   0.00000  Uiso   1.00
C1095  C     0.23773   0.96936   0.08292   0.00000  Uiso   1.00
C1096  C     0.45010   0.83504   0.35586   0.00000  Uiso   1.00
C1097  C     0.07915   0.64774   0.66125   0.00000  Uiso   1.00
C1098  C     0.07690   0.66534   0.62144   0.00000  Uiso   1.00
C1099  C     0.29886   0.64267   0.31750   0.00000  Uiso   1.00
C1100  C     0.25855   0.63678   0.32583   0.00000  Uiso   1.00
C1101  C     0.19737   0.86117   0.67770   0.00000  Uiso   1.00
C1102  C     0.23747   0.86646   0.66784   0.00000  Uiso   1.00
C1103  C     0.07933   0.63951   0.33977   0.00000  Uiso   1.00
C1104  C     0.05074   0.66533   0.35640   0.00000  Uiso   1.00
C1105  C     0.42060   0.85206   0.66115   0.00000  Uiso   1.00
C1106  C     0.27518   0.52149   0.91798   0.00000  Uiso   1.00
C1107  C     0.42271   0.83436   0.62138   0.00000  Uiso   1.00
C1108  C     0.20313   0.85565   0.31474   0.00000  Uiso   1.00
C1109  C     0.24343   0.86237   0.32228   0.00000  Uiso   1.00
C1110  C     0.30247   0.63895   0.67785   0.00000  Uiso   1.00
C1111  C     0.26236   0.63363   0.66803   0.00000  Uiso   1.00
C1112  C     0.02656   0.76973   0.08289   0.00000  Uiso   1.00
C1113  C     0.27566   0.52037   0.95845   0.00000  Uiso   1.00
C1114  C     0.49164   0.71791   0.91887   0.00000  Uiso   1.00
C1115  C     0.26201   0.53076   0.08293   0.00000  Uiso   1.00
C1116  C     0.22480   0.97848   0.91792   0.00000  Uiso   1.00
C1117  C     0.47347   0.73022   0.08286   0.00000  Uiso   1.00
C1118  C     0.00836   0.78208   0.91889   0.00000  Uiso   1.00
C1119  C     0.48797   0.71922   0.58293   0.00000  Uiso   1.00
C1120  C     0.02501   0.77106   0.41811   0.00000  Uiso   1.00
C1121  C     0.27625   0.52018   0.58289   0.00000  Uiso   1.00
C1122  C     0.24221   0.96774   0.41887   0.00000  Uiso   1.00
C1123  C     0.01154   0.78090   0.58292   0.00000  Uiso   1.00
C1124  C     0.02661   0.76933   0.04250   0.00000  Uiso   1.00
C1125  C     0.47454   0.72834   0.41787   0.00000  Uiso   1.00
C1126  C     0.22385   0.97976   0.58284   0.00000  Uiso   1.00
C1127  C     0.25795   0.53218   0.41891   0.00000  Uiso   1.00
C1128  C     0.24987   0.50005   0.02188   0.00000  Uiso   1.00
C1129  C     0.24991   0.50003   0.97899   0.00000  Uiso   1.00
C1130  C     0.00001   0.74998   0.02212   0.00000  Uiso   1.00
C1131  C     0.00000   0.74999   0.97959   0.00000  Uiso   1.00
C1132  C     0.49936   0.75017   0.52189   0.00000  Uiso   1.00
C1133  C     0.49937   0.75014   0.47903   0.00000  Uiso   1.00
C1134  C     0.25011   0.99993   0.52212   0.00000  Uiso   1.00
C1135  C     0.49216   0.71817   0.95925   0.00000  Uiso   1.00
C1136  C     0.25012   0.99993   0.47959   0.00000  Uiso   1.00
C1137  C     0.25001   0.50000   0.35533   0.00000  Uiso   1.00
C1138  C     0.25000   0.50000   0.64509   0.00000  Uiso   1.00
C1139  C     0.49999   0.74994   0.35516   0.00000  Uiso   1.00
C1140  C     0.49999   0.75000   0.64506   0.00000  Uiso   1.00
C1141  C    -0.00000   0.75000   0.85533   0.00000  Uiso   1.00
C1142  C     0.00000   0.75000   0.14509   0.00000  Uiso   1.00
C1143  C     0.25000   0.50000   0.85515   0.00000  Uiso   1.00
C1144  C     0.24999   0.50002   0.14506   0.00000  Uiso   1.00
C1145  C     0.18001   0.57001   0.24983   0.00000  Uiso   1.00
C1146  C     0.26109   0.53094   0.04251   0.00000  Uiso   1.00
C1147  C     0.31997   0.92998   0.75015   0.00000  Uiso   1.00
C1148  C     0.43032   0.67945   0.25084   0.00000  Uiso   1.00
C1149  C     0.06941   0.82073   0.74882   0.00000  Uiso   1.00
C1150  C     0.31999   0.92999   0.24983   0.00000  Uiso   1.00
C1151  C     0.18003   0.57002   0.75015   0.00000  Uiso   1.00
C1152  C     0.06976   0.82048   0.25078   0.00000  Uiso   1.00
C1153  C     0.43058   0.67928   0.74882   0.00000  Uiso   1.00
C1154  C     0.18031   0.92945   0.75083   0.00000  Uiso   1.00
C1155  C     0.31942   0.57072   0.24883   0.00000  Uiso   1.00
C1156  C     0.43001   0.82001   0.74983   0.00000  Uiso   1.00
C1157  C     0.22422   0.97966   0.95839   0.00000  Uiso   1.00
C1158  C     0.06997   0.67998   0.25015   0.00000  Uiso   1.00
C1159  C     0.31969   0.57055   0.75084   0.00000  Uiso   1.00
C1160  C     0.18057   0.92929   0.24882   0.00000  Uiso   1.00
C1161  C     0.06999   0.67999   0.74983   0.00000  Uiso   1.00
C1162  C     0.43004   0.82003   0.25015   0.00000  Uiso   1.00
C1163  C     0.12031   0.90582   0.22622   0.00000  Uiso   1.00
C1164  C     0.38079   0.59327   0.77222   0.00000  Uiso   1.00
C1165  C     0.10845   0.63552   0.21461   0.00000  Uiso   1.00
C1166  C     0.39133   0.86435   0.78528   0.00000  Uiso   1.00
C1167  C     0.37932   0.59451   0.22556   0.00000  Uiso   1.00
C1168  C     0.47342   0.73061   0.04248   0.00000  Uiso   1.00
C1169  C     0.11922   0.90673   0.77221   0.00000  Uiso   1.00
C1170  C     0.39140   0.86434   0.21459   0.00000  Uiso   1.00
C1171  C     0.10870   0.63568   0.78529   0.00000  Uiso   1.00
C1172  C     0.13508   0.60807   0.78502   0.00000  Uiso   1.00
C1173  C     0.36530   0.89213   0.21482   0.00000  Uiso   1.00
C1174  C     0.09060   0.88198   0.76806   0.00000  Uiso   1.00
C1175  C     0.40799   0.61907   0.22980   0.00000  Uiso   1.00
C1176  C     0.36496   0.89196   0.78502   0.00000  Uiso   1.00
C1177  C     0.13450   0.60769   0.21485   0.00000  Uiso   1.00
C1178  C     0.40940   0.61802   0.76805   0.00000  Uiso   1.00
C1179  C     0.00784   0.78181   0.95927   0.00000  Uiso   1.00
C1180  C     0.09173   0.88118   0.23060   0.00000  Uiso   1.00
C1181  C     0.37072   0.65543   0.72546   0.00000  Uiso   1.00
C1182  C     0.13158   0.84248   0.27086   0.00000  Uiso   1.00
C1183  C     0.35838   0.88545   0.71463   0.00000  Uiso   1.00
C1184  C     0.14126   0.61428   0.28529   0.00000  Uiso   1.00
C1185  C     0.12922   0.84460   0.72539   0.00000  Uiso   1.00
C1186  C     0.36919   0.65677   0.27215   0.00000  Uiso   1.00
C1187  C     0.14157   0.61451   0.71463   0.00000  Uiso   1.00
C1188  C     0.35888   0.88585   0.28531   0.00000  Uiso   1.00
C1189  C     0.38529   0.85827   0.28506   0.00000  Uiso   1.00
C1190  C     0.48854   0.71915   0.54251   0.00000  Uiso   1.00
C1191  C     0.11553   0.64235   0.71487   0.00000  Uiso   1.00
C1192  C     0.34058   0.63200   0.26799   0.00000  Uiso   1.00
C1193  C     0.15790   0.86915   0.72961   0.00000  Uiso   1.00
C1194  C     0.11491   0.64191   0.28502   0.00000  Uiso   1.00
C1195  C     0.38440   0.85759   0.71488   0.00000  Uiso   1.00
C1196  C     0.16001   0.86752   0.26681   0.00000  Uiso   1.00
C1197  C     0.34205   0.63087   0.72969   0.00000  Uiso   1.00
C1198  C     0.09784   0.84877   0.25156   0.00000  Uiso   1.00
C1199  C     0.40335   0.65028   0.74691   0.00000  Uiso   1.00
C1200  C     0.15151   0.59766   0.25001   0.00000  Uiso   1.00
H1201  H     0.23073   0.94464   0.02754   0.00000  Uiso   1.00
H1202  H     0.04566   0.78597   0.47360   0.00000  Uiso   1.00
H1203  H     0.39099   0.73670   0.65428   0.00000  Uiso   1.00
H1204  H     0.34791   0.71936   0.63708   0.00000  Uiso   1.00
H1205  H     0.09664   0.81695   0.33148   0.00000  Uiso   1.00
H1206  H     0.13891   0.83688   0.34415   0.00000  Uiso   1.00
H1207  H     0.13400   0.78261   0.38241   0.00000  Uiso   1.00
H1208  H     0.16673   0.77207   0.34527   0.00000  Uiso   1.00
H1209  H     0.12058   0.75572   0.34091   0.00000  Uiso   1.00
H1210  H     0.38404   0.93135   0.67080   0.00000  Uiso   1.00
H1211  H     0.33955   0.95072   0.67937   0.00000  Uiso   1.00
H1212  H     0.35698   0.95599   0.61075   0.00000  Uiso   1.00
H1213  H     0.29726   0.53457   0.52719   0.00000  Uiso   1.00
H1214  H     0.31764   0.92728   0.61634   0.00000  Uiso   1.00
H1215  H     0.36211   0.90719   0.60729   0.00000  Uiso   1.00
H1216  H     0.15406   0.54863   0.31629   0.00000  Uiso   1.00
H1217  H     0.11376   0.57158   0.33376   0.00000  Uiso   1.00
H1218  H     0.14664   0.53982   0.38651   0.00000  Uiso   1.00
H1219  H     0.14724   0.58841   0.39418   0.00000  Uiso   1.00
H1220  H     0.18743   0.56513   0.37608   0.00000  Uiso   1.00
H1221  H     0.12933   0.84431   0.65050   0.00000  Uiso   1.00
H1222  H     0.08761   0.82625   0.66860   0.00000  Uiso   1.00
H1223  H     0.11018   0.79187   0.61142   0.00000  Uiso   1.00
H1224  H     0.23758   0.94294   0.47467   0.00000  Uiso   1.00
H1225  H     0.10886   0.76343   0.65407   0.00000  Uiso   1.00
H1226  H     0.15186   0.78087   0.63681   0.00000  Uiso   1.00
H1227  H     0.40706   0.67853   0.33148   0.00000  Uiso   1.00
H1228  H     0.36468   0.65982   0.34630   0.00000  Uiso   1.00
H1229  H     0.37646   0.71321   0.38565   0.00000  Uiso   1.00
H1230  H     0.33934   0.72420   0.35346   0.00000  Uiso   1.00
H1231  H     0.38461   0.74073   0.34315   0.00000  Uiso   1.00
H1232  H     0.11588   0.56853   0.67091   0.00000  Uiso   1.00
H1233  H     0.16041   0.54922   0.67937   0.00000  Uiso   1.00
H1234  H     0.18210   0.57264   0.61628   0.00000  Uiso   1.00
H1235  H     0.01795   0.80576   0.52751   0.00000  Uiso   1.00
H1236  H     0.13759   0.59269   0.60734   0.00000  Uiso   1.00
H1237  H     0.14278   0.54388   0.61079   0.00000  Uiso   1.00
H1238  H     0.34615   0.95159   0.31618   0.00000  Uiso   1.00
H1239  H     0.38657   0.92871   0.33350   0.00000  Uiso   1.00
H1240  H     0.35395   0.96057   0.38635   0.00000  Uiso   1.00
H1241  H     0.35342   0.91200   0.39412   0.00000  Uiso   1.00
H1242  H     0.31312   0.93521   0.37620   0.00000  Uiso   1.00
H1243  H     0.40821   0.87515   0.36410   0.00000  Uiso   1.00
H1244  H     0.43581   0.88140   0.32123   0.00000  Uiso   1.00
H1245  H     0.43691   0.81331   0.37307   0.00000  Uiso   1.00
H1246  H     0.45321   0.71438   0.47363   0.00000  Uiso   1.00
H1247  H     0.46609   0.82265   0.33189   0.00000  Uiso   1.00
H1248  H     0.46907   0.85017   0.37492   0.00000  Uiso   1.00
H1249  H     0.05343   0.65379   0.67714   0.00000  Uiso   1.00
H1250  H     0.08154   0.61792   0.65701   0.00000  Uiso   1.00
H1251  H     0.05447   0.65303   0.60451   0.00000  Uiso   1.00
H1252  H     0.07171   0.69499   0.62438   0.00000  Uiso   1.00
H1253  H     0.10288   0.66092   0.60553   0.00000  Uiso   1.00
H1254  H     0.30532   0.66991   0.32910   0.00000  Uiso   1.00
H1255  H     0.31479   0.62122   0.33308   0.00000  Uiso   1.00
H1256  H     0.25076   0.60858   0.31869   0.00000  Uiso   1.00
H1257  H     0.20294   0.96530   0.52709   0.00000  Uiso   1.00
H1258  H     0.25306   0.64139   0.35710   0.00000  Uiso   1.00
H1259  H     0.24157   0.65602   0.30862   0.00000  Uiso   1.00
H1260  H     0.18140   0.88397   0.66450   0.00000  Uiso   1.00
H1261  H     0.18952   0.83498   0.66445   0.00000  Uiso   1.00
H1262  H     0.24122   0.86544   0.63592   0.00000  Uiso   1.00
H1263  H     0.24701   0.89317   0.67832   0.00000  Uiso   1.00
H1264  H     0.25431   0.84464   0.68132   0.00000  Uiso   1.00
H1265  H     0.09289   0.62546   0.36439   0.00000  Uiso   1.00
H1266  H     0.06482   0.61884   0.32190   0.00000  Uiso   1.00
H1267  H     0.06402   0.68727   0.37324   0.00000  Uiso   1.00
H1268  H     0.26267   0.55693   0.47474   0.00000  Uiso   1.00
H1269  H     0.03437   0.67744   0.33255   0.00000  Uiso   1.00
H1270  H     0.03213   0.65023   0.37586   0.00000  Uiso   1.00
H1271  H     0.44638   0.84605   0.67698   0.00000  Uiso   1.00
H1272  H     0.41820   0.88187   0.65684   0.00000  Uiso   1.00
H1273  H     0.44506   0.84663   0.60434   0.00000  Uiso   1.00
H1274  H     0.42791   0.80472   0.62439   0.00000  Uiso   1.00
H1275  H     0.39666   0.83873   0.60555   0.00000  Uiso   1.00
H1276  H     0.19775   0.82784   0.32535   0.00000  Uiso   1.00
H1277  H     0.18706   0.87611   0.33162   0.00000  Uiso   1.00
H1278  H     0.25001   0.89125   0.31719   0.00000  Uiso   1.00
H1279  H     0.11807   0.90787   0.15104   0.00000  Uiso   1.00
H1280  H     0.25000   0.85593   0.35296   0.00000  Uiso   1.00
H1281  H     0.26055   0.84493   0.30316   0.00000  Uiso   1.00
H1282  H     0.31844   0.61621   0.66455   0.00000  Uiso   1.00
H1283  H     0.31026   0.66520   0.66467   0.00000  Uiso   1.00
H1284  H     0.25854   0.63476   0.63613   0.00000  Uiso   1.00
H1285  H     0.25289   0.60686   0.67841   0.00000  Uiso   1.00
H1286  H     0.24550   0.65537   0.68164   0.00000  Uiso   1.00
H1287  H     0.24043   0.91567   0.09492   0.00000  Uiso   1.00
H1288  H     0.19801   0.93355   0.09501   0.00000  Uiso   1.00
H1289  H     0.28385   0.56494   0.88372   0.00000  Uiso   1.00
H1290  H     0.16061   0.92423   0.16885   0.00000  Uiso   1.00
H1291  H     0.31658   0.55871   0.91687   0.00000  Uiso   1.00
H1292  H     0.05235   0.81663   0.09504   0.00000  Uiso   1.00
H1293  H     0.07954   0.77927   0.09490   0.00000  Uiso   1.00
H1294  H     0.45604   0.67743   0.90839   0.00000  Uiso   1.00
H1295  H     0.00044   0.66459   0.90785   0.00000  Uiso   1.00
H1296  H     0.25876   0.58440   0.09509   0.00000  Uiso   1.00
H1297  H     0.30137   0.56703   0.09483   0.00000  Uiso   1.00
H1298  H     0.21624   0.93499   0.88366   0.00000  Uiso   1.00
H1299  H     0.18345   0.94120   0.91672   0.00000  Uiso   1.00
H1300  H     0.44773   0.68330   0.09500   0.00000  Uiso   1.00
H1301  H     0.14059   0.98807   0.15688   0.00000  Uiso   1.00
H1302  H     0.42049   0.72063   0.09482   0.00000  Uiso   1.00
H1303  H     0.04396   0.82256   0.90845   0.00000  Uiso   1.00
H1304  H     0.49957   0.83541   0.90791   0.00000  Uiso   1.00
H1305  H     0.49171   0.66557   0.59487   0.00000  Uiso   1.00
H1306  H     0.44899   0.68263   0.59509   0.00000  Uiso   1.00
H1307  H     0.04451   0.82091   0.40632   0.00000  Uiso   1.00
H1308  H     0.07621   0.78747   0.40751   0.00000  Uiso   1.00
H1309  H     0.30120   0.56754   0.59503   0.00000  Uiso   1.00
H1310  H     0.32905   0.53066   0.59493   0.00000  Uiso   1.00
H1311  H     0.20726   0.92669   0.40844   0.00000  Uiso   1.00
H1312  H     0.29626   0.53556   0.97377   0.00000  Uiso   1.00
H1313  H     0.09710   0.97200   0.13940   0.00000  Uiso   1.00
H1314  H     0.25184   0.91454   0.40779   0.00000  Uiso   1.00
H1315  H     0.00792   0.83450   0.59518   0.00000  Uiso   1.00
H1316  H     0.05066   0.81746   0.59468   0.00000  Uiso   1.00
H1317  H     0.46601   0.68483   0.38364   0.00000  Uiso   1.00
H1318  H     0.43313   0.69115   0.41658   0.00000  Uiso   1.00
H1319  H     0.19888   0.93241   0.59496   0.00000  Uiso   1.00
H1320  H     0.17104   0.96929   0.59473   0.00000  Uiso   1.00
H1321  H     0.29293   0.57319   0.40846   0.00000  Uiso   1.00
H1322  H     0.24837   0.58540   0.40800   0.00000  Uiso   1.00
H1323  H     0.13841   0.96086   0.11337   0.00000  Uiso   1.00
H1324  H     0.34282   0.57164   0.83150   0.00000  Uiso   1.00
H1325  H     0.38518   0.59044   0.84636   0.00000  Uiso   1.00
H1326  H     0.37339   0.53716   0.88585   0.00000  Uiso   1.00
H1327  H     0.41054   0.52608   0.85376   0.00000  Uiso   1.00
H1328  H     0.36529   0.50950   0.84342   0.00000  Uiso   1.00
H1329  H     0.13418   0.68154   0.17099   0.00000  Uiso   1.00
H1330  H     0.08964   0.70085   0.17943   0.00000  Uiso   1.00
H1331  H     0.06798   0.67752   0.11626   0.00000  Uiso   1.00
H1332  H     0.04776   0.78380   0.02717   0.00000  Uiso   1.00
H1333  H     0.11248   0.65743   0.10737   0.00000  Uiso   1.00
H1334  H     0.10734   0.70623   0.11087   0.00000  Uiso   1.00
H1335  H     0.40430   0.79880   0.81647   0.00000  Uiso   1.00
H1336  H     0.36404   0.82176   0.83404   0.00000  Uiso   1.00
H1337  H     0.39721   0.79018   0.88674   0.00000  Uiso   1.00
H1338  H     0.39768   0.83879   0.89426   0.00000  Uiso   1.00
H1339  H     0.43788   0.81560   0.87607   0.00000  Uiso   1.00
H1340  H     0.37982   0.59392   0.15064   0.00000  Uiso   1.00
H1341  H     0.33797   0.57605   0.16861   0.00000  Uiso   1.00
H1342  H     0.35911   0.51312   0.15447   0.00000  Uiso   1.00
H1343  H     0.48655   0.69320   0.97468   0.00000  Uiso   1.00
H1344  H     0.40227   0.53036   0.13741   0.00000  Uiso   1.00
H1345  H     0.36077   0.54138   0.11170   0.00000  Uiso   1.00
H1346  H     0.15723   0.92840   0.83151   0.00000  Uiso   1.00
H1347  H     0.11490   0.90957   0.84635   0.00000  Uiso   1.00
H1348  H     0.12664   0.96285   0.88587   0.00000  Uiso   1.00
H1349  H     0.08949   0.97392   0.85376   0.00000  Uiso   1.00
H1350  H     0.13474   0.99052   0.84347   0.00000  Uiso   1.00
H1351  H     0.36556   0.81802   0.17145   0.00000  Uiso   1.00
H1352  H     0.41024   0.79889   0.17953   0.00000  Uiso   1.00
H1353  H     0.39193   0.79323   0.11117   0.00000  Uiso   1.00
H1354  H     0.26889   0.55550   0.02755   0.00000  Uiso   1.00
H1355  H     0.43124   0.82209   0.11609   0.00000  Uiso   1.00
H1356  H     0.38660   0.84201   0.10755   0.00000  Uiso   1.00
H1357  H     0.09576   0.70124   0.81646   0.00000  Uiso   1.00
H1358  H     0.13604   0.67830   0.83402   0.00000  Uiso   1.00
H1359  H     0.10290   0.70991   0.88672   0.00000  Uiso   1.00
H1360  H     0.10245   0.66130   0.89426   0.00000  Uiso   1.00
H1361  H     0.06222   0.68447   0.87607   0.00000  Uiso   1.00
H1362  H     0.15706   0.62444   0.86447   0.00000  Uiso   1.00
H1363  H     0.18510   0.63119   0.82201   0.00000  Uiso   1.00
H1364  H     0.18603   0.56268   0.87320   0.00000  Uiso   1.00
H1365  H     0.20358   0.96449   0.97365   0.00000  Uiso   1.00
H1366  H     0.21565   0.57260   0.83253   0.00000  Uiso   1.00
H1367  H     0.21788   0.59976   0.87588   0.00000  Uiso   1.00
H1368  H     0.30285   0.90318   0.17773   0.00000  Uiso   1.00
H1369  H     0.33080   0.86721   0.15754   0.00000  Uiso   1.00
H1370  H     0.30301   0.90197   0.10516   0.00000  Uiso   1.00
H1371  H     0.32053   0.94405   0.12443   0.00000  Uiso   1.00
H1372  H     0.35145   0.90983   0.10541   0.00000  Uiso   1.00
H1373  H     0.05549   0.91972   0.82937   0.00000  Uiso   1.00
H1374  H     0.06491   0.87101   0.83316   0.00000  Uiso   1.00
H1375  H     0.00082   0.85850   0.81882   0.00000  Uiso   1.00
H1376  H     0.45226   0.71614   0.02712   0.00000  Uiso   1.00
H1377  H     0.00323   0.89118   0.85736   0.00000  Uiso   1.00
H1378  H     0.49169   0.90599   0.80896   0.00000  Uiso   1.00
H1379  H     0.43170   0.63348   0.16467   0.00000  Uiso   1.00
H1380  H     0.43993   0.58450   0.16502   0.00000  Uiso   1.00
H1381  H     0.49169   0.61480   0.13650   0.00000  Uiso   1.00
H1382  H     0.49720   0.64297   0.17860   0.00000  Uiso   1.00
H1383  H     0.00465   0.59449   0.18219   0.00000  Uiso   1.00
H1384  H     0.34312   0.87567   0.86450   0.00000  Uiso   1.00
H1385  H     0.31501   0.86886   0.82207   0.00000  Uiso   1.00
H1386  H     0.28444   0.92743   0.83257   0.00000  Uiso   1.00
H1387  H     0.01346   0.80677   0.97473   0.00000  Uiso   1.00
H1388  H     0.28231   0.90033   0.87596   0.00000  Uiso   1.00
H1389  H     0.31412   0.93742   0.87319   0.00000  Uiso   1.00
H1390  H     0.19663   0.59636   0.17731   0.00000  Uiso   1.00
H1391  H     0.16851   0.63213   0.15699   0.00000  Uiso   1.00
H1392  H     0.19589   0.59687   0.10473   0.00000  Uiso   1.00
H1393  H     0.17846   0.55499   0.12458   0.00000  Uiso   1.00
H1394  H     0.14745   0.58908   0.10547   0.00000  Uiso   1.00
H1395  H     0.44457   0.58026   0.82931   0.00000  Uiso   1.00
H1396  H     0.43517   0.62898   0.83314   0.00000  Uiso   1.00
H1397  H     0.49924   0.64149   0.81880   0.00000  Uiso   1.00
H1398  H     0.48086   0.69455   0.52752   0.00000  Uiso   1.00
H1399  H     0.49686   0.60879   0.85731   0.00000  Uiso   1.00
H1400  H     0.00836   0.59401   0.80889   0.00000  Uiso   1.00
H1401  H     0.06695   0.86870   0.16545   0.00000  Uiso   1.00
H1402  H     0.05832   0.91759   0.16770   0.00000  Uiso   1.00
H1403  H     0.00625   0.88810   0.13919   0.00000  Uiso   1.00
H1404  H     0.00202   0.85795   0.17986   0.00000  Uiso   1.00
H1405  H     0.49396   0.90612   0.18615   0.00000  Uiso   1.00
H1406  H     0.37040   0.65585   0.65054   0.00000  Uiso   1.00
H1407  H     0.41219   0.67382   0.66861   0.00000  Uiso   1.00
H1408  H     0.38950   0.70834   0.61156   0.00000  Uiso   1.00
N1409  N     0.22491   0.93819   0.10355   0.00000  Uiso   1.00
N1410  N     0.04995   0.79408   0.39803   0.00000  Uiso   1.00
N1411  N     0.30337   0.54031   0.60345   0.00000  Uiso   1.00
N1412  N     0.23316   0.93465   0.39930   0.00000  Uiso   1.00
N1413  N     0.02397   0.81225   0.60354   0.00000  Uiso   1.00
N1414  N     0.45016   0.70483   0.39728   0.00000  Uiso   1.00
N1415  N     0.19669   0.95965   0.60334   0.00000  Uiso   1.00
N1416  N     0.26698   0.56528   0.39938   0.00000  Uiso   1.00
N1417  N     0.29965   0.54498   0.89750   0.00000  Uiso   1.00
N1418  N     0.05404   0.78937   0.10345   0.00000  Uiso   1.00
N1419  N     0.48209   0.68498   0.89929   0.00000  Uiso   1.00
N1420  N     0.27460   0.56204   0.10357   0.00000  Uiso   1.00
N1421  N     0.20039   0.95494   0.89738   0.00000  Uiso   1.00
N1422  N     0.44600   0.71056   0.10340   0.00000  Uiso   1.00
N1423  N     0.01791   0.81502   0.89934   0.00000  Uiso   1.00
N1424  N     0.47580   0.68779   0.60358   0.00000  Uiso   1.00
O1425  O     0.25000   0.50000   0.25000   0.00000  Uiso   1.00
O1426  O     0.25000   0.96964   0.66317   0.00000  Uiso   1.00
O1427  O     0.46964   0.75000   0.33683   0.00000  Uiso   1.00
O1428  O     0.03036   0.75000   0.66317   0.00000  Uiso   1.00
O1429  O     0.00000   0.71964   0.83683   0.00000  Uiso   1.00
O1430  O     0.00000   0.78036   0.16317   0.00000  Uiso   1.00
O1431  O     0.28036   0.50000   0.83683   0.00000  Uiso   1.00
O1432  O     0.21964   0.50000   0.16317   0.00000  Uiso   1.00
O1433  O     0.00000   0.78036   0.83683   0.00000  Uiso   1.00
O1434  O     0.00000   0.71964   0.16317   0.00000  Uiso   1.00
O1435  O     0.21964   0.50000   0.83683   0.00000  Uiso   1.00
O1436  O     0.25000   0.50000   0.75000   0.00000  Uiso   1.00
O1437  O     0.28036   0.50000   0.16317   0.00000  Uiso   1.00
O1438  O     0.20725   0.57307   0.27282   0.00000  Uiso   1.00
O1439  O     0.29274   0.92693   0.72718   0.00000  Uiso   1.00
O1440  O     0.42693   0.70726   0.27282   0.00000  Uiso   1.00
O1441  O     0.07307   0.79275   0.72718   0.00000  Uiso   1.00
O1442  O     0.29274   0.92693   0.27282   0.00000  Uiso   1.00
O1443  O     0.20725   0.57307   0.72718   0.00000  Uiso   1.00
O1444  O     0.07307   0.79275   0.27282   0.00000  Uiso   1.00
O1445  O     0.42693   0.70726   0.72718   0.00000  Uiso   1.00
O1446  O     0.20725   0.92693   0.72718   0.00000  Uiso   1.00
O1447  O    -0.00000   0.75000   0.25000   0.00000  Uiso   1.00
O1448  O     0.29274   0.57307   0.27282   0.00000  Uiso   1.00
O1449  O     0.42693   0.79275   0.72718   0.00000  Uiso   1.00
O1450  O     0.07307   0.70726   0.27282   0.00000  Uiso   1.00
O1451  O     0.29274   0.57307   0.72718   0.00000  Uiso   1.00
O1452  O     0.20725   0.92693   0.27282   0.00000  Uiso   1.00
O1453  O     0.07307   0.70726   0.72718   0.00000  Uiso   1.00
O1454  O     0.42693   0.79275   0.27282   0.00000  Uiso   1.00
O1455  O     0.45725   0.82307   0.77282   0.00000  Uiso   1.00
O1456  O     0.04274   0.67693   0.22718   0.00000  Uiso   1.00
O1457  O     0.17693   0.95726   0.77282   0.00000  Uiso   1.00
O1458  O     0.00000   0.75000   0.75000   0.00000  Uiso   1.00
O1459  O     0.32307   0.54275   0.22718   0.00000  Uiso   1.00
O1460  O     0.04274   0.67693   0.77282   0.00000  Uiso   1.00
O1461  O     0.45725   0.82307   0.22718   0.00000  Uiso   1.00
O1462  O     0.32307   0.54275   0.77282   0.00000  Uiso   1.00
O1463  O     0.17693   0.95726   0.22718   0.00000  Uiso   1.00
O1464  O     0.45725   0.67693   0.22718   0.00000  Uiso   1.00
O1465  O     0.04274   0.82307   0.77282   0.00000  Uiso   1.00
O1466  O     0.17693   0.54275   0.22718   0.00000  Uiso   1.00
O1467  O     0.32307   0.95726   0.77282   0.00000  Uiso   1.00
O1468  O     0.04274   0.82307   0.22718   0.00000  Uiso   1.00
O1469  O     0.25000   0.96964   0.33683   0.00000  Uiso   1.00
O1470  O     0.45725   0.67693   0.77282   0.00000  Uiso   1.00
O1471  O     0.32307   0.95726   0.22718   0.00000  Uiso   1.00
O1472  O     0.17693   0.54275   0.77282   0.00000  Uiso   1.00
O1473  O     0.11474   0.93647   0.20363   0.00000  Uiso   1.00
O1474  O     0.38681   0.56192   0.79351   0.00000  Uiso   1.00
O1475  O     0.09140   0.64420   0.17987   0.00000  Uiso   1.00
O1476  O     0.40820   0.85542   0.82003   0.00000  Uiso   1.00
O1477  O     0.38454   0.56418   0.20240   0.00000  Uiso   1.00
O1478  O     0.11322   0.93809   0.79352   0.00000  Uiso   1.00
O1479  O     0.40829   0.85553   0.17982   0.00000  Uiso   1.00
O1480  O     0.25000   0.53036   0.66317   0.00000  Uiso   1.00
O1481  O     0.09186   0.64462   0.82004   0.00000  Uiso   1.00
O1482  O     0.14418   0.59037   0.81920   0.00000  Uiso   1.00
O1483  O     0.35899   0.91140   0.18095   0.00000  Uiso   1.00
O1484  O     0.05494   0.89219   0.77720   0.00000  Uiso   1.00
O1485  O     0.44324   0.60912   0.21879   0.00000  Uiso   1.00
O1486  O     0.35591   0.90970   0.81919   0.00000  Uiso   1.00
O1487  O     0.14052   0.58816   0.18108   0.00000  Uiso   1.00
O1488  O     0.44508   0.60781   0.77717   0.00000  Uiso   1.00
O1489  O     0.05623   0.89128   0.22062   0.00000  Uiso   1.00
O1490  O     0.36553   0.68571   0.70222   0.00000  Uiso   1.00
O1491  O     0.03036   0.75000   0.33683   0.00000  Uiso   1.00
O1492  O     0.13841   0.81014   0.29013   0.00000  Uiso   1.00
O1493  O     0.34126   0.89406   0.67991   0.00000  Uiso   1.00
O1494  O     0.15802   0.60523   0.32006   0.00000  Uiso   1.00
O1495  O     0.13436   0.81436   0.70209   0.00000  Uiso   1.00
O1496  O     0.36314   0.68818   0.29336   0.00000  Uiso   1.00
O1497  O     0.15864   0.60587   0.67990   0.00000  Uiso   1.00
O1498  O     0.34225   0.89501   0.32011   0.00000  Uiso   1.00
O1499  O     0.39462   0.84080   0.31931   0.00000  Uiso   1.00
O1500  O     0.10954   0.66191   0.68113   0.00000  Uiso   1.00
O1501  O     0.30489   0.64222   0.27703   0.00000  Uiso   1.00
O1502  O     0.46964   0.75000   0.66317   0.00000  Uiso   1.00
O1503  O     0.19310   0.85923   0.71839   0.00000  Uiso   1.00
O1504  O     0.10581   0.65959   0.31921   0.00000  Uiso   1.00
O1505  O     0.39028   0.83795   0.68117   0.00000  Uiso   1.00
O1506  O     0.19599   0.85726   0.27449   0.00000  Uiso   1.00
O1507  O     0.30682   0.64080   0.71854   0.00000  Uiso   1.00
O1508  O     0.25000   0.53036   0.33683   0.00000  Uiso   1.00
Zn1509 Zn    0.20660   0.50000   0.21760   0.00000  Uiso   1.00
Zn1510 Zn    0.04340   0.75000   0.28240   0.00000  Uiso   1.00
Zn1511 Zn    0.25000   0.95660   0.71760   0.00000  Uiso   1.00
Zn1512 Zn    0.25000   0.54340   0.28240   0.00000  Uiso   1.00
Zn1513 Zn    0.04340   0.75000   0.71760   0.00000  Uiso   1.00
Zn1514 Zn    0.45660   0.75000   0.28240   0.00000  Uiso   1.00
Zn1515 Zn    0.25000   0.54340   0.71760   0.00000  Uiso   1.00
Zn1516 Zn    0.25000   0.95660   0.28240   0.00000  Uiso   1.00
Zn1517 Zn    0.29340   0.50000   0.78240   0.00000  Uiso   1.00
Zn1518 Zn    0.00000   0.70660   0.21760   0.00000  Uiso   1.00
Zn1519 Zn    0.00000   0.79340   0.78240   0.00000  Uiso   1.00
Zn1520 Zn    0.29340   0.50000   0.21760   0.00000  Uiso   1.00
Zn1521 Zn    0.20660   0.50000   0.78240   0.00000  Uiso   1.00
Zn1522 Zn    0.00000   0.79340   0.21760   0.00000  Uiso   1.00
Zn1523 Zn    0.00000   0.70660   0.78240   0.00000  Uiso   1.00
Zn1524 Zn    0.45660   0.75000   0.71760   0.00000  Uiso   1.00
C1525  C     0.73860   0.96919   0.04251   0.00000  Uiso   1.00
C1526  C     0.52512   0.77047   0.45851   0.00000  Uiso   1.00
C1527  C     0.84846   0.90235   0.74981   0.00000  Uiso   1.00
C1528  C     0.90237   0.65103   0.25170   0.00000  Uiso   1.00
C1529  C     0.59663   0.84973   0.74690   0.00000  Uiso   1.00
C1530  C     0.84846   0.90232   0.25001   0.00000  Uiso   1.00
C1531  C     0.65155   0.59765   0.74981   0.00000  Uiso   1.00
C1532  C     0.59849   0.65234   0.75002   0.00000  Uiso   1.00
C1533  C     0.90156   0.84767   0.24982   0.00000  Uiso   1.00
C1534  C     0.65236   0.90104   0.75165   0.00000  Uiso   1.00
C1535  C     0.84666   0.59971   0.24693   0.00000  Uiso   1.00
C1536  C     0.90150   0.84765   0.75002   0.00000  Uiso   1.00
C1537  C     0.77635   0.51975   0.54251   0.00000  Uiso   1.00
C1538  C     0.59847   0.65236   0.24981   0.00000  Uiso   1.00
C1539  C     0.84763   0.59897   0.75168   0.00000  Uiso   1.00
C1540  C     0.65336   0.90029   0.24683   0.00000  Uiso   1.00
C1541  C     0.74994   0.50004   0.10306   0.00000  Uiso   1.00
C1542  C     0.75000   0.99998   0.89757   0.00000  Uiso   1.00
C1543  C     0.50001   0.74998   0.10305   0.00000  Uiso   1.00
C1544  C     0.50000   0.75000   0.89810   0.00000  Uiso   1.00
C1545  C     0.99991   0.75001   0.60306   0.00000  Uiso   1.00
C1546  C     0.99991   0.74971   0.39758   0.00000  Uiso   1.00
C1547  C     0.75003   0.99998   0.60305   0.00000  Uiso   1.00
C1548  C     0.74278   0.96800   0.45925   0.00000  Uiso   1.00
C1549  C     0.75005   0.99998   0.39811   0.00000  Uiso   1.00
C1550  C     0.63099   0.93074   0.16674   0.00000  Uiso   1.00
C1551  C     0.62649   0.96509   0.14260   0.00000  Uiso   1.00
C1552  C     0.87278   0.56681   0.83150   0.00000  Uiso   1.00
C1553  C     0.88098   0.53275   0.85509   0.00000  Uiso   1.00
C1554  C     0.60447   0.67779   0.16573   0.00000  Uiso   1.00
C1555  C     0.59764   0.67983   0.12230   0.00000  Uiso   1.00
C1556  C     0.89438   0.82212   0.83407   0.00000  Uiso   1.00
C1557  C     0.90762   0.81634   0.87540   0.00000  Uiso   1.00
C1558  C     0.86770   0.57036   0.16590   0.00000  Uiso   1.00
C1559  C     0.51042   0.78113   0.54250   0.00000  Uiso   1.00
C1560  C     0.87278   0.53668   0.14081   0.00000  Uiso   1.00
C1561  C     0.62727   0.93321   0.83151   0.00000  Uiso   1.00
C1562  C     0.61906   0.96726   0.85511   0.00000  Uiso   1.00
C1563  C     0.89520   0.82185   0.16590   0.00000  Uiso   1.00
C1564  C     0.90165   0.81970   0.12242   0.00000  Uiso   1.00
C1565  C     0.60570   0.67793   0.83406   0.00000  Uiso   1.00
C1566  C     0.59249   0.68373   0.87540   0.00000  Uiso   1.00
C1567  C     0.67064   0.61045   0.83982   0.00000  Uiso   1.00
C1568  C     0.69928   0.58465   0.85640   0.00000  Uiso   1.00
C1569  C     0.82841   0.89706   0.16157   0.00000  Uiso   1.00
C1570  C     0.97383   0.72959   0.45837   0.00000  Uiso   1.00
C1571  C     0.82566   0.91438   0.12166   0.00000  Uiso   1.00
C1572  C     0.54897   0.89252   0.81769   0.00000  Uiso   1.00
C1573  C     0.50867   0.88666   0.82606   0.00000  Uiso   1.00
C1574  C     0.94767   0.61080   0.17811   0.00000  Uiso   1.00
C1575  C     0.98779   0.61613   0.16838   0.00000  Uiso   1.00
C1576  C     0.82949   0.88962   0.83985   0.00000  Uiso   1.00
C1577  C     0.80086   0.91542   0.85643   0.00000  Uiso   1.00
C1578  C     0.67094   0.60233   0.16130   0.00000  Uiso   1.00
C1579  C     0.67335   0.58464   0.12154   0.00000  Uiso   1.00
C1580  C     0.95108   0.60746   0.81765   0.00000  Uiso   1.00
C1581  C     0.72383   0.98013   0.54246   0.00000  Uiso   1.00
C1582  C     0.99139   0.61333   0.82602   0.00000  Uiso   1.00
C1583  C     0.55106   0.89081   0.17999   0.00000  Uiso   1.00
C1584  C     0.51082   0.88539   0.17088   0.00000  Uiso   1.00
C1585  C     0.88246   0.67947   0.66579   0.00000  Uiso   1.00
C1586  C     0.87740   0.71308   0.64061   0.00000  Uiso   1.00
C1587  C     0.62665   0.81326   0.32919   0.00000  Uiso   1.00
C1588  C     0.63761   0.77876   0.35077   0.00000  Uiso   1.00
C1589  C     0.85431   0.92762   0.66565   0.00000  Uiso   1.00
C1590  C     0.84732   0.92961   0.62226   0.00000  Uiso   1.00
C1591  C     0.64410   0.57190   0.33393   0.00000  Uiso   1.00
C1592  C     0.75745   0.53189   0.45929   0.00000  Uiso   1.00
C1593  C     0.65717   0.56598   0.37530   0.00000  Uiso   1.00
C1594  C     0.61734   0.82065   0.66571   0.00000  Uiso   1.00
C1595  C     0.62237   0.78709   0.64043   0.00000  Uiso   1.00
C1596  C     0.87711   0.68339   0.33140   0.00000  Uiso   1.00
C1597  C     0.86890   0.71752   0.35486   0.00000  Uiso   1.00
C1598  C     0.64558   0.57229   0.66569   0.00000  Uiso   1.00
C1599  C     0.65245   0.57029   0.62227   0.00000  Uiso   1.00
C1600  C     0.85623   0.92837   0.33382   0.00000  Uiso   1.00
C1601  C     0.84337   0.93438   0.37525   0.00000  Uiso   1.00
C1602  C     0.92143   0.86088   0.33941   0.00000  Uiso   1.00
C1603  C     0.73773   0.96936   0.08292   0.00000  Uiso   1.00
C1604  C     0.95010   0.83504   0.35586   0.00000  Uiso   1.00
C1605  C     0.57915   0.64774   0.66125   0.00000  Uiso   1.00
C1606  C     0.57690   0.66534   0.62144   0.00000  Uiso   1.00
C1607  C     0.79886   0.64267   0.31750   0.00000  Uiso   1.00
C1608  C     0.75855   0.63678   0.32583   0.00000  Uiso   1.00
C1609  C     0.69737   0.86117   0.67770   0.00000  Uiso   1.00
C1610  C     0.73747   0.86646   0.66784   0.00000  Uiso   1.00
C1611  C     0.57933   0.63951   0.33977   0.00000  Uiso   1.00
C1612  C     0.55074   0.66533   0.35640   0.00000  Uiso   1.00
C1613  C     0.92060   0.85206   0.66115   0.00000  Uiso   1.00
C1614  C     0.77518   0.52149   0.91798   0.00000  Uiso   1.00
C1615  C     0.92271   0.83436   0.62138   0.00000  Uiso   1.00
C1616  C     0.70313   0.85565   0.31474   0.00000  Uiso   1.00
C1617  C     0.74343   0.86237   0.32228   0.00000  Uiso   1.00
C1618  C     0.80247   0.63895   0.67785   0.00000  Uiso   1.00
C1619  C     0.76236   0.63363   0.66803   0.00000  Uiso   1.00
C1620  C     0.52656   0.76973   0.08289   0.00000  Uiso   1.00
C1621  C     0.77566   0.52037   0.95845   0.00000  Uiso   1.00
C1622  C     0.99164   0.71791   0.91887   0.00000  Uiso   1.00
C1623  C     0.76201   0.53076   0.08293   0.00000  Uiso   1.00
C1624  C     0.72480   0.97848   0.91792   0.00000  Uiso   1.00
C1625  C     0.97347   0.73022   0.08286   0.00000  Uiso   1.00
C1626  C     0.50836   0.78208   0.91889   0.00000  Uiso   1.00
C1627  C     0.98797   0.71922   0.58293   0.00000  Uiso   1.00
C1628  C     0.52501   0.77106   0.41811   0.00000  Uiso   1.00
C1629  C     0.77625   0.52018   0.58289   0.00000  Uiso   1.00
C1630  C     0.74221   0.96774   0.41887   0.00000  Uiso   1.00
C1631  C     0.51154   0.78090   0.58292   0.00000  Uiso   1.00
C1632  C     0.52661   0.76933   0.04250   0.00000  Uiso   1.00
C1633  C     0.97454   0.72834   0.41787   0.00000  Uiso   1.00
C1634  C     0.72385   0.97976   0.58284   0.00000  Uiso   1.00
C1635  C     0.75795   0.53218   0.41891   0.00000  Uiso   1.00
C1636  C     0.74987   0.50005   0.02188   0.00000  Uiso   1.00
C1637  C     0.74991   0.50003   0.97899   0.00000  Uiso   1.00
C1638  C     0.50001   0.74998   0.02212   0.00000  Uiso   1.00
C1639  C     0.50000   0.74999   0.97959   0.00000  Uiso   1.00
C1640  C     0.99936   0.75017   0.52189   0.00000  Uiso   1.00
C1641  C     0.99937   0.75014   0.47903   0.00000  Uiso   1.00
C1642  C     0.75011   0.99993   0.52212   0.00000  Uiso   1.00
C1643  C     0.99216   0.71817   0.95925   0.00000  Uiso   1.00
C1644  C     0.75012   0.99993   0.47959   0.00000  Uiso   1.00
C1645  C     0.75001   0.50000   0.35533   0.00000  Uiso   1.00
C1646  C     0.75000   0.50000   0.64509   0.00000  Uiso   1.00
C1647  C     0.99999   0.74994   0.35516   0.00000  Uiso   1.00
C1648  C     0.99999   0.75000   0.64506   0.00000  Uiso   1.00
C1649  C     0.50000   0.75000   0.85533   0.00000  Uiso   1.00
C1650  C     0.50000   0.75000   0.14509   0.00000  Uiso   1.00
C1651  C     0.75000   0.50000   0.85515   0.00000  Uiso   1.00
C1652  C     0.74999   0.50002   0.14506   0.00000  Uiso   1.00
C1653  C     0.68001   0.57001   0.24983   0.00000  Uiso   1.00
C1654  C     0.76109   0.53094   0.04251   0.00000  Uiso   1.00
C1655  C     0.81997   0.92998   0.75015   0.00000  Uiso   1.00
C1656  C     0.93032   0.67945   0.25084   0.00000  Uiso   1.00
C1657  C     0.56941   0.82073   0.74882   0.00000  Uiso   1.00
C1658  C     0.81999   0.92999   0.24983   0.00000  Uiso   1.00
C1659  C     0.68003   0.57002   0.75015   0.00000  Uiso   1.00
C1660  C     0.56976   0.82048   0.25078   0.00000  Uiso   1.00
C1661  C     0.93058   0.67928   0.74882   0.00000  Uiso   1.00
C1662  C     0.68031   0.92945   0.75083   0.00000  Uiso   1.00
C1663  C     0.81942   0.57072   0.24883   0.00000  Uiso   1.00
C1664  C     0.93001   0.82001   0.74983   0.00000  Uiso   1.00
C1665  C     0.72422   0.97966   0.95839   0.00000  Uiso   1.00
C1666  C     0.56997   0.67998   0.25015   0.00000  Uiso   1.00
C1667  C     0.81969   0.57055   0.75084   0.00000  Uiso   1.00
C1668  C     0.68057   0.92929   0.24882   0.00000  Uiso   1.00
C1669  C     0.56999   0.67999   0.74983   0.00000  Uiso   1.00
C1670  C     0.93004   0.82003   0.25015   0.00000  Uiso   1.00
C1671  C     0.62031   0.90582   0.22622   0.00000  Uiso   1.00
C1672  C     0.88079   0.59327   0.77222   0.00000  Uiso   1.00
C1673  C     0.60845   0.63552   0.21461   0.00000  Uiso   1.00
C1674  C     0.89133   0.86435   0.78528   0.00000  Uiso   1.00
C1675  C     0.87932   0.59451   0.22556   0.00000  Uiso   1.00
C1676  C     0.97342   0.73061   0.04248   0.00000  Uiso   1.00
C1677  C     0.61922   0.90673   0.77221   0.00000  Uiso   1.00
C1678  C     0.89140   0.86434   0.21459   0.00000  Uiso   1.00
C1679  C     0.60870   0.63568   0.78529   0.00000  Uiso   1.00
C1680  C     0.63508   0.60807   0.78502   0.00000  Uiso   1.00
C1681  C     0.86530   0.89213   0.21482   0.00000  Uiso   1.00
C1682  C     0.59060   0.88198   0.76806   0.00000  Uiso   1.00
C1683  C     0.90799   0.61907   0.22980   0.00000  Uiso   1.00
C1684  C     0.86496   0.89196   0.78502   0.00000  Uiso   1.00
C1685  C     0.63450   0.60769   0.21485   0.00000  Uiso   1.00
C1686  C     0.90940   0.61802   0.76805   0.00000  Uiso   1.00
C1687  C     0.50784   0.78181   0.95927   0.00000  Uiso   1.00
C1688  C     0.59173   0.88118   0.23060   0.00000  Uiso   1.00
C1689  C     0.87072   0.65543   0.72546   0.00000  Uiso   1.00
C1690  C     0.63158   0.84248   0.27086   0.00000  Uiso   1.00
C1691  C     0.85838   0.88545   0.71463   0.00000  Uiso   1.00
C1692  C     0.64126   0.61428   0.28529   0.00000  Uiso   1.00
C1693  C     0.62922   0.84460   0.72539   0.00000  Uiso   1.00
C1694  C     0.86919   0.65677   0.27215   0.00000  Uiso   1.00
C1695  C     0.64157   0.61451   0.71463   0.00000  Uiso   1.00
C1696  C     0.85888   0.88585   0.28531   0.00000  Uiso   1.00
C1697  C     0.88529   0.85827   0.28506   0.00000  Uiso   1.00
C1698  C     0.98854   0.71915   0.54251   0.00000  Uiso   1.00
C1699  C     0.61553   0.64235   0.71487   0.00000  Uiso   1.00
C1700  C     0.84058   0.63200   0.26799   0.00000  Uiso   1.00
C1701  C     0.65790   0.86915   0.72961   0.00000  Uiso   1.00
C1702  C     0.61491   0.64191   0.28502   0.00000  Uiso   1.00
C1703  C     0.88440   0.85759   0.71488   0.00000  Uiso   1.00
C1704  C     0.66001   0.86752   0.26681   0.00000  Uiso   1.00
C1705  C     0.84205   0.63087   0.72969   0.00000  Uiso   1.00
C1706  C     0.59784   0.84877   0.25156   0.00000  Uiso   1.00
C1707  C     0.90335   0.65028   0.74691   0.00000  Uiso   1.00
C1708  C     0.65151   0.59766   0.25001   0.00000  Uiso   1.00
H1709  H     0.73073   0.94464   0.02754   0.00000  Uiso   1.00
H1710  H     0.54566   0.78597   0.47360   0.00000  Uiso   1.00
H1711  H     0.89099   0.73670   0.65428   0.00000  Uiso   1.00
H1712  H     0.84791   0.71936   0.63708   0.00000  Uiso   1.00
H1713  H     0.59664   0.81695   0.33148   0.00000  Uiso   1.00
H1714  H     0.63891   0.83688   0.34415   0.00000  Uiso   1.00
H1715  H     0.63400   0.78261   0.38241   0.00000  Uiso   1.00
H1716  H     0.66673   0.77207   0.34527   0.00000  Uiso   1.00
H1717  H     0.62058   0.75572   0.34091   0.00000  Uiso   1.00
H1718  H     0.88404   0.93135   0.67080   0.00000  Uiso   1.00
H1719  H     0.83955   0.95072   0.67937   0.00000  Uiso   1.00
H1720  H     0.85698   0.95599   0.61075   0.00000  Uiso   1.00
H1721  H     0.79726   0.53457   0.52719   0.00000  Uiso   1.00
H1722  H     0.81764   0.92728   0.61634   0.00000  Uiso   1.00
H1723  H     0.86211   0.90719   0.60729   0.00000  Uiso   1.00
H1724  H     0.65406   0.54863   0.31629   0.00000  Uiso   1.00
H1725  H     0.61376   0.57158   0.33376   0.00000  Uiso   1.00
H1726  H     0.64664   0.53982   0.38651   0.00000  Uiso   1.00
H1727  H     0.64724   0.58841   0.39418   0.00000  Uiso   1.00
H1728  H     0.68743   0.56513   0.37608   0.00000  Uiso   1.00
H1729  H     0.62933   0.84431   0.65050   0.00000  Uiso   1.00
H1730  H     0.58761   0.82625   0.66860   0.00000  Uiso   1.00
H1731  H     0.61018   0.79187   0.61142   0.00000  Uiso   1.00
H1732  H     0.73758   0.94294   0.47467   0.00000  Uiso   1.00
H1733  H     0.60886   0.76343   0.65407   0.00000  Uiso   1.00
H1734  H     0.65186   0.78087   0.63681   0.00000  Uiso   1.00
H1735  H     0.90706   0.67853   0.33148   0.00000  Uiso   1.00
H1736  H     0.86468   0.65982   0.34630   0.00000  Uiso   1.00
H1737  H     0.87646   0.71321   0.38565   0.00000  Uiso   1.00
H1738  H     0.83934   0.72420   0.35346   0.00000  Uiso   1.00
H1739  H     0.88461   0.74073   0.34315   0.00000  Uiso   1.00
H1740  H     0.61588   0.56853   0.67091   0.00000  Uiso   1.00
H1741  H     0.66041   0.54922   0.67937   0.00000  Uiso   1.00
H1742  H     0.68210   0.57264   0.61628   0.00000  Uiso   1.00
H1743  H     0.51795   0.80576   0.52751   0.00000  Uiso   1.00
H1744  H     0.63759   0.59269   0.60734   0.00000  Uiso   1.00
H1745  H     0.64278   0.54388   0.61079   0.00000  Uiso   1.00
H1746  H     0.84615   0.95159   0.31618   0.00000  Uiso   1.00
H1747  H     0.88657   0.92871   0.33350   0.00000  Uiso   1.00
H1748  H     0.85395   0.96057   0.38635   0.00000  Uiso   1.00
H1749  H     0.85342   0.91200   0.39412   0.00000  Uiso   1.00
H1750  H     0.81312   0.93521   0.37620   0.00000  Uiso   1.00
H1751  H     0.90821   0.87515   0.36410   0.00000  Uiso   1.00
H1752  H     0.93581   0.88140   0.32123   0.00000  Uiso   1.00
H1753  H     0.93691   0.81331   0.37307   0.00000  Uiso   1.00
H1754  H     0.95321   0.71438   0.47363   0.00000  Uiso   1.00
H1755  H     0.96609   0.82265   0.33189   0.00000  Uiso   1.00
H1756  H     0.96907   0.85017   0.37492   0.00000  Uiso   1.00
H1757  H     0.55343   0.65379   0.67714   0.00000  Uiso   1.00
H1758  H     0.58154   0.61792   0.65701   0.00000  Uiso   1.00
H1759  H     0.55447   0.65303   0.60451   0.00000  Uiso   1.00
H1760  H     0.57171   0.69499   0.62438   0.00000  Uiso   1.00
H1761  H     0.60288   0.66092   0.60553   0.00000  Uiso   1.00
H1762  H     0.80532   0.66991   0.32910   0.00000  Uiso   1.00
H1763  H     0.81479   0.62122   0.33308   0.00000  Uiso   1.00
H1764  H     0.75076   0.60858   0.31869   0.00000  Uiso   1.00
H1765  H     0.70294   0.96530   0.52709   0.00000  Uiso   1.00
H1766  H     0.75306   0.64139   0.35710   0.00000  Uiso   1.00
H1767  H     0.74157   0.65602   0.30862   0.00000  Uiso   1.00
H1768  H     0.68140   0.88397   0.66450   0.00000  Uiso   1.00
H1769  H     0.68952   0.83498   0.66445   0.00000  Uiso   1.00
H1770  H     0.74122   0.86544   0.63592   0.00000  Uiso   1.00
H1771  H     0.74701   0.89317   0.67832   0.00000  Uiso   1.00
H1772  H     0.75431   0.84464   0.68132   0.00000  Uiso   1.00
H1773  H     0.59289   0.62546   0.36439   0.00000  Uiso   1.00
H1774  H     0.56482   0.61884   0.32190   0.00000  Uiso   1.00
H1775  H     0.56402   0.68727   0.37324   0.00000  Uiso   1.00
H1776  H     0.76267   0.55693   0.47474   0.00000  Uiso   1.00
H1777  H     0.53437   0.67744   0.33255   0.00000  Uiso   1.00
H1778  H     0.53213   0.65023   0.37586   0.00000  Uiso   1.00
H1779  H     0.94638   0.84605   0.67698   0.00000  Uiso   1.00
H1780  H     0.91820   0.88187   0.65684   0.00000  Uiso   1.00
H1781  H     0.94506   0.84663   0.60434   0.00000  Uiso   1.00
H1782  H     0.92791   0.80472   0.62439   0.00000  Uiso   1.00
H1783  H     0.89666   0.83873   0.60555   0.00000  Uiso   1.00
H1784  H     0.69775   0.82784   0.32535   0.00000  Uiso   1.00
H1785  H     0.68706   0.87611   0.33162   0.00000  Uiso   1.00
H1786  H     0.75001   0.89125   0.31719   0.00000  Uiso   1.00
H1787  H     0.61807   0.90787   0.15104   0.00000  Uiso   1.00
H1788  H     0.75000   0.85593   0.35296   0.00000  Uiso   1.00
H1789  H     0.76055   0.84493   0.30316   0.00000  Uiso   1.00
H1790  H     0.81844   0.61621   0.66455   0.00000  Uiso   1.00
H1791  H     0.81026   0.66520   0.66467   0.00000  Uiso   1.00
H1792  H     0.75854   0.63476   0.63613   0.00000  Uiso   1.00
H1793  H     0.75289   0.60686   0.67841   0.00000  Uiso   1.00
H1794  H     0.74550   0.65537   0.68164   0.00000  Uiso   1.00
H1795  H     0.74043   0.91567   0.09492   0.00000  Uiso   1.00
H1796  H     0.69801   0.93355   0.09501   0.00000  Uiso   1.00
H1797  H     0.78385   0.56494   0.88372   0.00000  Uiso   1.00
H1798  H     0.66061   0.92423   0.16885   0.00000  Uiso   1.00
H1799  H     0.81658   0.55871   0.91687   0.00000  Uiso   1.00
H1800  H     0.55235   0.81663   0.09504   0.00000  Uiso   1.00
H1801  H     0.57954   0.77927   0.09490   0.00000  Uiso   1.00
H1802  H     0.95604   0.67743   0.90839   0.00000  Uiso   1.00
H1803  H     0.50044   0.66459   0.90785   0.00000  Uiso   1.00
H1804  H     0.75876   0.58440   0.09509   0.00000  Uiso   1.00
H1805  H     0.80137   0.56703   0.09483   0.00000  Uiso   1.00
H1806  H     0.71624   0.93499   0.88366   0.00000  Uiso   1.00
H1807  H     0.68345   0.94120   0.91672   0.00000  Uiso   1.00
H1808  H     0.94773   0.68330   0.09500   0.00000  Uiso   1.00
H1809  H     0.64059   0.98807   0.15688   0.00000  Uiso   1.00
H1810  H     0.92049   0.72063   0.09482   0.00000  Uiso   1.00
H1811  H     0.54396   0.82256   0.90845   0.00000  Uiso   1.00
H1812  H     0.99957   0.83541   0.90791   0.00000  Uiso   1.00
H1813  H     0.99171   0.66557   0.59487   0.00000  Uiso   1.00
H1814  H     0.94899   0.68263   0.59509   0.00000  Uiso   1.00
H1815  H     0.54451   0.82091   0.40632   0.00000  Uiso   1.00
H1816  H     0.57621   0.78747   0.40751   0.00000  Uiso   1.00
H1817  H     0.80120   0.56754   0.59503   0.00000  Uiso   1.00
H1818  H     0.82905   0.53066   0.59493   0.00000  Uiso   1.00
H1819  H     0.70726   0.92669   0.40844   0.00000  Uiso   1.00
H1820  H     0.79626   0.53556   0.97377   0.00000  Uiso   1.00
H1821  H     0.59710   0.97200   0.13940   0.00000  Uiso   1.00
H1822  H     0.75184   0.91454   0.40779   0.00000  Uiso   1.00
H1823  H     0.50792   0.83450   0.59518   0.00000  Uiso   1.00
H1824  H     0.55066   0.81746   0.59468   0.00000  Uiso   1.00
H1825  H     0.96601   0.68483   0.38364   0.00000  Uiso   1.00
H1826  H     0.93313   0.69115   0.41658   0.00000  Uiso   1.00
H1827  H     0.69888   0.93241   0.59496   0.00000  Uiso   1.00
H1828  H     0.67104   0.96929   0.59473   0.00000  Uiso   1.00
H1829  H     0.79293   0.57319   0.40846   0.00000  Uiso   1.00
H1830  H     0.74837   0.58540   0.40800   0.00000  Uiso   1.00
H1831  H     0.63841   0.96086   0.11337   0.00000  Uiso   1.00
H1832  H     0.84282   0.57164   0.83150   0.00000  Uiso   1.00
H1833  H     0.88518   0.59044   0.84636   0.00000  Uiso   1.00
H1834  H     0.87339   0.53716   0.88585   0.00000  Uiso   1.00
H1835  H     0.91054   0.52608   0.85376   0.00000  Uiso   1.00
H1836  H     0.86529   0.50950   0.84342   0.00000  Uiso   1.00
H1837  H     0.63418   0.68154   0.17099   0.00000  Uiso   1.00
H1838  H     0.58964   0.70085   0.17943   0.00000  Uiso   1.00
H1839  H     0.56798   0.67752   0.11626   0.00000  Uiso   1.00
H1840  H     0.54776   0.78380   0.02717   0.00000  Uiso   1.00
H1841  H     0.61248   0.65743   0.10737   0.00000  Uiso   1.00
H1842  H     0.60734   0.70623   0.11087   0.00000  Uiso   1.00
H1843  H     0.90430   0.79880   0.81647   0.00000  Uiso   1.00
H1844  H     0.86404   0.82176   0.83404   0.00000  Uiso   1.00
H1845  H     0.89721   0.79018   0.88674   0.00000  Uiso   1.00
H1846  H     0.89768   0.83879   0.89426   0.00000  Uiso   1.00
H1847  H     0.93788   0.81560   0.87607   0.00000  Uiso   1.00
H1848  H     0.87982   0.59392   0.15064   0.00000  Uiso   1.00
H1849  H     0.83797   0.57605   0.16861   0.00000  Uiso   1.00
H1850  H     0.85911   0.51312   0.15447   0.00000  Uiso   1.00
H1851  H     0.98655   0.69320   0.97468   0.00000  Uiso   1.00
H1852  H     0.90227   0.53036   0.13741   0.00000  Uiso   1.00
H1853  H     0.86077   0.54138   0.11170   0.00000  Uiso   1.00
H1854  H     0.65723   0.92840   0.83151   0.00000  Uiso   1.00
H1855  H     0.61490   0.90957   0.84635   0.00000  Uiso   1.00
H1856  H     0.62664   0.96285   0.88587   0.00000  Uiso   1.00
H1857  H     0.58949   0.97392   0.85376   0.00000  Uiso   1.00
H1858  H     0.63474   0.99052   0.84347   0.00000  Uiso   1.00
H1859  H     0.86556   0.81802   0.17145   0.00000  Uiso   1.00
H1860  H     0.91024   0.79889   0.17953   0.00000  Uiso   1.00
H1861  H     0.89193   0.79323   0.11117   0.00000  Uiso   1.00
H1862  H     0.76889   0.55550   0.02755   0.00000  Uiso   1.00
H1863  H     0.93124   0.82209   0.11609   0.00000  Uiso   1.00
H1864  H     0.88660   0.84201   0.10755   0.00000  Uiso   1.00
H1865  H     0.59576   0.70124   0.81646   0.00000  Uiso   1.00
H1866  H     0.63604   0.67830   0.83402   0.00000  Uiso   1.00
H1867  H     0.60290   0.70991   0.88672   0.00000  Uiso   1.00
H1868  H     0.60245   0.66130   0.89426   0.00000  Uiso   1.00
H1869  H     0.56222   0.68447   0.87607   0.00000  Uiso   1.00
H1870  H     0.65706   0.62444   0.86447   0.00000  Uiso   1.00
H1871  H     0.68510   0.63119   0.82201   0.00000  Uiso   1.00
H1872  H     0.68603   0.56268   0.87320   0.00000  Uiso   1.00
H1873  H     0.70358   0.96449   0.97365   0.00000  Uiso   1.00
H1874  H     0.71565   0.57260   0.83253   0.00000  Uiso   1.00
H1875  H     0.71788   0.59976   0.87588   0.00000  Uiso   1.00
H1876  H     0.80285   0.90318   0.17773   0.00000  Uiso   1.00
H1877  H     0.83080   0.86721   0.15754   0.00000  Uiso   1.00
H1878  H     0.80301   0.90197   0.10516   0.00000  Uiso   1.00
H1879  H     0.82053   0.94405   0.12443   0.00000  Uiso   1.00
H1880  H     0.85145   0.90983   0.10541   0.00000  Uiso   1.00
H1881  H     0.55549   0.91972   0.82937   0.00000  Uiso   1.00
H1882  H     0.56491   0.87101   0.83316   0.00000  Uiso   1.00
H1883  H     0.50082   0.85850   0.81882   0.00000  Uiso   1.00
H1884  H     0.95226   0.71614   0.02712   0.00000  Uiso   1.00
H1885  H     0.50323   0.89118   0.85736   0.00000  Uiso   1.00
H1886  H     0.99169   0.90599   0.80896   0.00000  Uiso   1.00
H1887  H     0.93170   0.63348   0.16467   0.00000  Uiso   1.00
H1888  H     0.93993   0.58450   0.16502   0.00000  Uiso   1.00
H1889  H     0.99169   0.61480   0.13650   0.00000  Uiso   1.00
H1890  H     0.99720   0.64297   0.17860   0.00000  Uiso   1.00
H1891  H     0.50465   0.59449   0.18219   0.00000  Uiso   1.00
H1892  H     0.84312   0.87567   0.86450   0.00000  Uiso   1.00
H1893  H     0.81501   0.86886   0.82207   0.00000  Uiso   1.00
H1894  H     0.78444   0.92743   0.83257   0.00000  Uiso   1.00
H1895  H     0.51346   0.80677   0.97473   0.00000  Uiso   1.00
H1896  H     0.78231   0.90033   0.87596   0.00000  Uiso   1.00
H1897  H     0.81412   0.93742   0.87319   0.00000  Uiso   1.00
H1898  H     0.69663   0.59636   0.17731   0.00000  Uiso   1.00
H1899  H     0.66851   0.63213   0.15699   0.00000  Uiso   1.00
H1900  H     0.69589   0.59687   0.10473   0.00000  Uiso   1.00
H1901  H     0.67846   0.55499   0.12458   0.00000  Uiso   1.00
H1902  H     0.64745   0.58908   0.10547   0.00000  Uiso   1.00
H1903  H     0.94457   0.58026   0.82931   0.00000  Uiso   1.00
H1904  H     0.93517   0.62898   0.83314   0.00000  Uiso   1.00
H1905  H     0.99924   0.64149   0.81880   0.00000  Uiso   1.00
H1906  H     0.98086   0.69455   0.52752   0.00000  Uiso   1.00
H1907  H     0.99686   0.60879   0.85731   0.00000  Uiso   1.00
H1908  H     0.50836   0.59401   0.80889   0.00000  Uiso   1.00
H1909  H     0.56695   0.86870   0.16545   0.00000  Uiso   1.00
H1910  H     0.55832   0.91759   0.16770   0.00000  Uiso   1.00
H1911  H     0.50625   0.88810   0.13919   0.00000  Uiso   1.00
H1912  H     0.50202   0.85795   0.17986   0.00000  Uiso   1.00
H1913  H     0.99396   0.90612   0.18615   0.00000  Uiso   1.00
H1914  H     0.87040   0.65585   0.65054   0.00000  Uiso   1.00
H1915  H     0.91219   0.67382   0.66861   0.00000  Uiso   1.00
H1916  H     0.88950   0.70834   0.61156   0.00000  Uiso   1.00
N1917  N     0.72491   0.93819   0.10355   0.00000  Uiso   1.00
N1918  N     0.54995   0.79408   0.39803   0.00000  Uiso   1.00
N1919  N     0.80337   0.54031   0.60345   0.00000  Uiso   1.00
N1920  N     0.73316   0.93465   0.39930   0.00000  Uiso   1.00
N1921  N     0.52397   0.81225   0.60354   0.00000  Uiso   1.00
N1922  N     0.95016   0.70483   0.39728   0.00000  Uiso   1.00
N1923  N     0.69669   0.95965   0.60334   0.00000  Uiso   1.00
N1924  N     0.76698   0.56528   0.39938   0.00000  Uiso   1.00
N1925  N     0.79965   0.54498   0.89750   0.00000  Uiso   1.00
N1926  N     0.55404   0.78937   0.10345   0.00000  Uiso   1.00
N1927  N     0.98209   0.68498   0.89929   0.00000  Uiso   1.00
N1928  N     0.77460   0.56204   0.10357   0.00000  Uiso   1.00
N1929  N     0.70039   0.95494   0.89738   0.00000  Uiso   1.00
N1930  N     0.94600   0.71056   0.10340   0.00000  Uiso   1.00
N1931  N     0.51791   0.81502   0.89934   0.00000  Uiso   1.00
N1932  N     0.97580   0.68779   0.60358   0.00000  Uiso   1.00
O1933  O     0.75000   0.50000   0.25000   0.00000  Uiso   1.00
O1934  O     0.75000   0.96964   0.66317   0.00000  Uiso   1.00
O1935  O     0.96964   0.75000   0.33683   0.00000  Uiso   1.00
O1936  O     0.53036   0.75000   0.66317   0.00000  Uiso   1.00
O1937  O     0.50000   0.71964   0.83683   0.00000  Uiso   1.00
O1938  O     0.50000   0.78036   0.16317   0.00000  Uiso   1.00
O1939  O     0.78036   0.50000   0.83683   0.00000  Uiso   1.00
O1940  O     0.71964   0.50000   0.16317   0.00000  Uiso   1.00
O1941  O     0.50000   0.78036   0.83683   0.00000  Uiso   1.00
O1942  O     0.50000   0.71964   0.16317   0.00000  Uiso   1.00
O1943  O     0.71964   0.50000   0.83683   0.00000  Uiso   1.00
O1944  O     0.75000   0.50000   0.75000   0.00000  Uiso   1.00
O1945  O     0.78036   0.50000   0.16317   0.00000  Uiso   1.00
O1946  O     0.70725   0.57307   0.27282   0.00000  Uiso   1.00
O1947  O     0.79274   0.92693   0.72718   0.00000  Uiso   1.00
O1948  O     0.92693   0.70726   0.27282   0.00000  Uiso   1.00
O1949  O     0.57307   0.79275   0.72718   0.00000  Uiso   1.00
O1950  O     0.79274   0.92693   0.27282   0.00000  Uiso   1.00
O1951  O     0.70725   0.57307   0.72718   0.00000  Uiso   1.00
O1952  O     0.57307   0.79275   0.27282   0.00000  Uiso   1.00
O1953  O     0.92693   0.70726   0.72718   0.00000  Uiso   1.00
O1954  O     0.70725   0.92693   0.72718   0.00000  Uiso   1.00
O1955  O     0.50000   0.75000   0.25000   0.00000  Uiso   1.00
O1956  O     0.79274   0.57307   0.27282   0.00000  Uiso   1.00
O1957  O     0.92693   0.79275   0.72718   0.00000  Uiso   1.00
O1958  O     0.57307   0.70726   0.27282   0.00000  Uiso   1.00
O1959  O     0.79274   0.57307   0.72718   0.00000  Uiso   1.00
O1960  O     0.70725   0.92693   0.27282   0.00000  Uiso   1.00
O1961  O     0.57307   0.70726   0.72718   0.00000  Uiso   1.00
O1962  O     0.92693   0.79275   0.27282   0.00000  Uiso   1.00
O1963  O     0.95725   0.82307   0.77282   0.00000  Uiso   1.00
O1964  O     0.54274   0.67693   0.22718   0.00000  Uiso   1.00
O1965  O     0.67693   0.95726   0.77282   0.00000  Uiso   1.00
O1966  O     0.50000   0.75000   0.75000   0.00000  Uiso   1.00
O1967  O     0.82307   0.54275   0.22718   0.00000  Uiso   1.00
O1968  O     0.54274   0.67693   0.77282   0.00000  Uiso   1.00
O1969  O     0.95725   0.82307   0.22718   0.00000  Uiso   1.00
O1970  O     0.82307   0.54275   0.77282   0.00000  Uiso   1.00
O1971  O     0.67693   0.95726   0.22718   0.00000  Uiso   1.00
O1972  O     0.95725   0.67693   0.22718   0.00000  Uiso   1.00
O1973  O     0.54274   0.82307   0.77282   0.00000  Uiso   1.00
O1974  O     0.67693   0.54275   0.22718   0.00000  Uiso   1.00
O1975  O     0.82307   0.95726   0.77282   0.00000  Uiso   1.00
O1976  O     0.54274   0.82307   0.22718   0.00000  Uiso   1.00
O1977  O     0.75000   0.96964   0.33683   0.00000  Uiso   1.00
O1978  O     0.95725   0.67693   0.77282   0.00000  Uiso   1.00
O1979  O     0.82307   0.95726   0.22718   0.00000  Uiso   1.00
O1980  O     0.67693   0.54275   0.77282   0.00000  Uiso   1.00
O1981  O     0.61474   0.93647   0.20363   0.00000  Uiso   1.00
O1982  O     0.88681   0.56192   0.79351   0.00000  Uiso   1.00
O1983  O     0.59140   0.64420   0.17987   0.00000  Uiso   1.00
O1984  O     0.90820   0.85542   0.82003   0.00000  Uiso   1.00
O1985  O     0.88454   0.56418   0.20240   0.00000  Uiso   1.00
O1986  O     0.61322   0.93809   0.79352   0.00000  Uiso   1.00
O1987  O     0.90829   0.85553   0.17982   0.00000  Uiso   1.00
O1988  O     0.75000   0.53036   0.66317   0.00000  Uiso   1.00
O1989  O     0.59186   0.64462   0.82004   0.00000  Uiso   1.00
O1990  O     0.64418   0.59037   0.81920   0.00000  Uiso   1.00
O1991  O     0.85899   0.91140   0.18095   0.00000  Uiso   1.00
O1992  O     0.55494   0.89219   0.77720   0.00000  Uiso   1.00
O1993  O     0.94324   0.60912   0.21879   0.00000  Uiso   1.00
O1994  O     0.85591   0.90970   0.81919   0.00000  Uiso   1.00
O1995  O     0.64052   0.58816   0.18108   0.00000  Uiso   1.00
O1996  O     0.94508   0.60781   0.77717   0.00000  Uiso   1.00
O1997  O     0.55623   0.89128   0.22062   0.00000  Uiso   1.00
O1998  O     0.86553   0.68571   0.70222   0.00000  Uiso   1.00
O1999  O     0.53036   0.75000   0.33683   0.00000  Uiso   1.00
O2000  O     0.63841   0.81014   0.29013   0.00000  Uiso   1.00
O2001  O     0.84126   0.89406   0.67991   0.00000  Uiso   1.00
O2002  O     0.65802   0.60523   0.32006   0.00000  Uiso   1.00
O2003  O     0.63436   0.81436   0.70209   0.00000  Uiso   1.00
O2004  O     0.86314   0.68818   0.29336   0.00000  Uiso   1.00
O2005  O     0.65864   0.60587   0.67990   0.00000  Uiso   1.00
O2006  O     0.84225   0.89501   0.32011   0.00000  Uiso   1.00
O2007  O     0.89462   0.84080   0.31931   0.00000  Uiso   1.00
O2008  O     0.60954   0.66191   0.68113   0.00000  Uiso   1.00
O2009  O     0.80489   0.64222   0.27703   0.00000  Uiso   1.00
O2010  O     0.96964   0.75000   0.66317   0.00000  Uiso   1.00
O2011  O     0.69310   0.85923   0.71839   0.00000  Uiso   1.00
O2012  O     0.60581   0.65959   0.31921   0.00000  Uiso   1.00
O2013  O     0.89028   0.83795   0.68117   0.00000  Uiso   1.00
O2014  O     0.69599   0.85726   0.27449   0.00000  Uiso   1.00
O2015  O     0.80682   0.64080   0.71854   0.00000  Uiso   1.00
O2016  O     0.75000   0.53036   0.33683   0.00000  Uiso   1.00
Zn2017 Zn    0.70660   0.50000   0.21760   0.00000  Uiso   1.00
Zn2018 Zn    0.54340   0.75000   0.28240   0.00000  Uiso   1.00
Zn2019 Zn    0.75000   0.95660   0.71760   0.00000  Uiso   1.00
Zn2020 Zn    0.75000   0.54340   0.28240   0.00000  Uiso   1.00
Zn2021 Zn    0.54340   0.75000   0.71760   0.00000  Uiso   1.00
Zn2022 Zn    0.95660   0.75000   0.28240   0.00000  Uiso   1.00
Zn2023 Zn    0.75000   0.54340   0.71760   0.00000  Uiso   1.00
Zn2024 Zn    0.75000   0.95660   0.28240   0.00000  Uiso   1.00
Zn2025 Zn    0.79340   0.50000   0.78240   0.00000  Uiso   1.00
Zn2026 Zn    0.50000   0.70660   0.21760   0.00000  Uiso   1.00
Zn2027 Zn    0.50000   0.79340   0.78240   0.00000  Uiso   1.00
Zn2028 Zn    0.79340   0.50000   0.21760   0.00000  Uiso   1.00
Zn2029 Zn    0.70660   0.50000   0.78240   0.00000  Uiso   1.00
Zn2030 Zn    0.50000   0.79340   0.21760   0.00000  Uiso   1.00
Zn2031 Zn    0.50000   0.70660   0.78240   0.00000  Uiso   1.00
Zn2032 Zn    0.95660   0.75000   0.71760   0.00000  Uiso   1.00
loop_
_geom_bond_atom_site_label_1
_geom_bond_atom_site_label_2
_geom_bond_distance
_geom_bond_site_symmetry_2
_ccdc_geom_bond_type
C1     H185    1.082   .     S
C1     C79     1.395   .     A
C1     C1128   1.406   .     S
C2     C104    1.394   .     A
C2     H186    1.082   .     S
C2     C625    1.402   1_455 S
C3     C131    1.451   .     S
C3     C167    1.410   .     A
C3     C160    1.408   .     A
C4     C132    1.471   .     S
C4     C159    1.412   .     A
C4     C170    1.421   .     A
C5     C158    1.409   .     A
C5     C133    1.470   .     S
C5     C169    1.418   .     A
C6     C172    1.412   .     A
C6     C157    1.412   .     A
C6     C134    1.452   .     S
C7     C171    1.410   .     A
C7     C156    1.408   .     A
C7     C135    1.451   .     S
C8     C145    1.452   .     S
C8     C175    1.412   .     A
C8     C155    1.412   .     A
C9     C146    1.451   .     S
C9     C173    1.408   .     A
C9     C154    1.410   .     A
C10    C138    1.471   .     S
C10    C177    1.412   .     A
C10    C153    1.421   .     A
C11    C176    1.409   .     A
C11    C151    1.418   .     A
C11    C139    1.470   .     S
C12    C150    1.412   .     A
C12    C140    1.452   .     S
C12    C179    1.412   .     A
C13    H197    1.083   .     S
C13    C105    1.394   .     A
C13    C1134   1.402   1_545 S
C14    C149    1.410   .     A
C14    C142    1.451   .     S
C14    C178    1.408   .     A
C15    C148    1.421   .     A
C15    C143    1.471   .     S
C15    C181    1.412   .     A
C16    C144    1.470   .     S
C16    C180    1.409   .     A
C16    C147    1.418   .     A
C17    C99     1.403   .     A
C17    C128    1.450   .     S
C17    C1095   1.403   1_545 S
C18    C100    1.410   .     A
C18    C1143   1.464   .     S
C18    C1106   1.410   .     S
C19    C126    1.451   .     S
C19    C96     1.405   .     A
C19    C609    1.405   1_455 S
C20    C125    1.476   .     S
C20    C606    1.418   1_455 A
C20    C102    1.418   .     S
C21    C124    1.450   .     S
C21    C103    1.403   .     A
C21    C615    1.403   .     S
C22    C109    1.410   .     A
C22    C123    1.464   .     S
C22    C612    1.407   .     S
C23    C1138   1.451   .     S
C23    C110    1.405   .     A
C23    C1121   1.405   .     S
C24    C106    1.394   .     A
C24    C120    1.397   .     A
C24    H208    1.084   .     S
C25    C1137   1.476   .     S
C25    C106    1.418   .     A
C25    C1127   1.418   .     S
C26    H263    1.111   .     S
C26    C27     1.522   .     S
C26    O457    1.420   .     S
C26    H274    1.113   .     S
C27    H285    1.111   .     S
C27    H307    1.110   .     S
C27    H297    1.110   .     S
C28    H309    1.110   .     S
C28    O458    1.419   .     S
C28    H308    1.111   .     S
C28    C29     1.522   .     S
C29    H310    1.109   .     S
C29    H311    1.110   .     S
C29    H312    1.111   .     S
C30    O459    1.417   .     S
C30    H313    1.114   .     S
C30    C31     1.521   .     S
C30    H314    1.110   .     S
C31    H317    1.111   .     S
C31    H315    1.111   .     S
C31    H318    1.111   .     S
C32    O460    1.416   .     S
C32    H319    1.110   .     S
C32    C33     1.521   .     S
C32    H320    1.113   .     S
C33    H321    1.110   .     S
C33    H322    1.110   .     S
C33    H323    1.110   .     S
C34    C36     1.522   .     S
C34    H324    1.111   .     S
C34    H325    1.112   .     S
C34    O461    1.420   .     S
C35    H219    1.082   .     S
C35    C107    1.395   .     A
C35    C624    1.406   1_455 S
C36    H329    1.110   .     S
C36    H328    1.110   .     S
C36    H326    1.111   .     S
C37    O462    1.419   .     S
C37    H331    1.110   .     S
C37    H330    1.111   .     S
C37    C38     1.522   .     S
C38    H333    1.110   .     S
C38    H334    1.111   .     S
C38    H332    1.109   .     S
C39    H335    1.114   .     S
C39    C40     1.521   .     S
C39    O463    1.417   .     S
C39    H336    1.110   .     S
C40    H337    1.111   .     S
C40    H339    1.111   .     S
C40    H340    1.111   .     S
C41    O465    1.416   .     S
C41    C42     1.521   .     S
C41    H341    1.110   .     S
C41    H342    1.113   .     S
C42    H344    1.110   .     S
C42    H345    1.110   .     S
C42    H343    1.110   .     S
C43    O466    1.417   .     S
C43    C44     1.521   .     S
C43    H347    1.118   .     S
C43    H346    1.110   .     S
C44    H351    1.110   .     S
C44    H348    1.111   .     S
C44    H350    1.109   .     S
C45    C47     1.521   .     S
C45    H353    1.110   .     S
C45    H352    1.112   .     S
C45    O467    1.412   .     S
C46    C117    1.404   .     A
C46    H230    1.082   .     S
C46    C109    1.399   .     A
C47    H356    1.111   .     S
C47    H354    1.109   .     S
C47    H355    1.111   .     S
C48    H358    1.116   .     S
C48    C49     1.523   .     S
C48    O468    1.414   .     S
C48    H357    1.107   .     S
C49    H361    1.111   .     S
C49    H359    1.107   .     S
C49    H870    1.111   1_455 S
C50    H363    1.116   .     S
C50    C51     1.524   .     S
C50    O469    1.415   .     S
C50    H364    1.108   .     S
C51    H366    1.107   .     S
C51    H365    1.111   .     S
C51    H875    1.111   .     S
C52    H369    1.118   .     S
C52    C53     1.521   .     S
C52    H368    1.110   .     S
C52    O470    1.417   .     S
C53    H370    1.109   .     S
C53    H373    1.111   .     S
C53    H372    1.110   .     S
C54    H374    1.112   .     S
C54    O471    1.412   .     S
C54    C55     1.521   .     S
C54    H375    1.110   .     S
C55    H376    1.109   .     S
C55    H377    1.111   .     S
C55    H378    1.111   .     S
C56    O472    1.414   .     S
C56    H380    1.116   .     S
C56    C58     1.523   .     S
C56    H379    1.107   .     S
C57    C118    1.402   .     A
C57    H241    1.083   .     S
C57    C110    1.394   .     A
C58    H383    1.111   .     S
C58    H381    1.107   .     S
C58    H892    1.111   .     S
C59    C60     1.524   .     S
C59    H386    1.108   .     S
C59    O473    1.415   .     S
C59    H385    1.116   .     S
C60    H388    1.107   .     S
C60    H387    1.111   .     S
C60    H897    1.111   1_455 S
C61    C62     1.522   .     S
C61    H391    1.112   .     S
C61    O474    1.420   .     S
C61    H390    1.111   .     S
C62    H188    1.110   .     S
C62    H392    1.110   .     S
C62    H187    1.111   .     S
C63    O476    1.419   .     S
C63    H190    1.110   .     S
C63    C64     1.523   .     S
C63    H189    1.110   .     S
C64    H192    1.110   .     S
C64    H191    1.108   .     S
C64    H193    1.111   .     S
C65    O477    1.417   .     S
C65    H194    1.114   .     S
C65    H195    1.110   .     S
C65    C66     1.521   .     S
C66    H198    1.111   .     S
C66    H199    1.111   .     S
C66    H196    1.111   .     S
C67    H200    1.110   .     S
C67    O478    1.416   .     S
C67    H201    1.113   .     S
C67    C69     1.521   .     S
C68    H252    1.084   .     S
C68    C111    1.393   .     A
C68    C1136   1.397   1_545 S
C69    H202    1.110   .     S
C69    H204    1.110   .     S
C69    H203    1.110   .     S
C70    O479    1.420   .     S
C70    H205    1.111   .     S
C70    C71     1.522   .     S
C70    H206    1.112   .     S
C71    H207    1.110   .     S
C71    H209    1.111   .     S
C71    H210    1.110   .     S
C72    C73     1.522   .     S
C72    H211    1.111   .     S
C72    H212    1.110   .     S
C72    O480    1.419   .     S
C73    H214    1.110   .     S
C73    H213    1.109   .     S
C73    H215    1.111   .     S
C74    O481    1.417   .     S
C74    H217    1.110   .     S
C74    C75     1.521   .     S
C74    H216    1.114   .     S
C75    H220    1.111   .     S
C75    H218    1.111   .     S
C75    H221    1.111   .     S
C76    O482    1.416   .     S
C76    H223    1.113   .     S
C76    C77     1.521   .     S
C76    H222    1.110   .     S
C77    H226    1.110   .     S
C77    H225    1.110   .     S
C77    H224    1.110   .     S
C78    C80     1.521   .     S
C78    H227    1.110   .     S
C78    O483    1.417   .     S
C78    H228    1.118   .     S
C79    N393    1.433   .     S
C79    C1033   1.403   .     S
C80    H232    1.111   .     S
C80    H229    1.111   .     S
C80    H231    1.109   .     S
C81    O484    1.412   .     S
C81    H234    1.110   .     S
C81    C82     1.521   .     S
C81    H233    1.112   .     S
C82    H235    1.109   .     S
C82    H237    1.111   .     S
C82    H236    1.111   .     S
C83    C84     1.523   .     S
C83    O485    1.414   .     S
C83    H238    1.107   .     S
C83    H239    1.116   .     S
C84    H243    1.111   .     S
C84    H240    1.107   .     S
C84    H242    1.111   .     S
C85    H244    1.116   .     S
C85    C86     1.524   .     S
C85    H245    1.108   .     S
C85    O487    1.415   .     S
C86    H247    1.107   .     S
C86    H248    1.111   .     S
C86    H246    1.111   .     S
C87    H250    1.118   .     S
C87    O488    1.417   .     S
C87    H249    1.110   .     S
C87    C88     1.521   .     S
C88    H253    1.109   .     S
C88    H254    1.110   .     S
C88    H251    1.111   .     S
C89    C91     1.521   .     S
C89    H256    1.110   .     S
C89    O489    1.412   .     S
C89    H255    1.112   .     S
C90    N401    1.438   .     S
C90    C97     1.397   .     A
C90    C1034   1.410   1_545 S
C91    H258    1.111   .     S
C91    H259    1.111   .     S
C91    H257    1.109   .     S
C92    O490    1.414   .     S
C92    H261    1.116   .     S
C92    C93     1.523   .     S
C92    H260    1.107   .     S
C93    H262    1.106   .     S
C93    H265    1.111   .     S
C93    H264    1.111   .     S
C94    H267    1.108   .     S
C94    C95     1.524   .     S
C94    H266    1.116   .     S
C94    O491    1.415   .     S
C95    H270    1.111   .     S
C95    H269    1.107   .     S
C95    H268    1.111   .     S
C96    N402    1.433   .     S
C96    C108    1.394   .     A
C97    H296    1.082   .     S
C97    C113    1.403   .     A
C98    C528    1.418   .     A
C98    C119    1.394   .     A
C98    N403    1.434   .     S
C99    N404    1.433   .     S
C99    C130    1.395   .     A
C100   N405    1.438   .     S
C100   C141    1.397   .     A
C101   C152    1.394   .     A
C101   N406    1.433   .     S
C101   C527    1.405   .     S
C102   C163    1.394   .     A
C102   N407    1.434   .     S
C103   C174    1.395   .     A
C103   N408    1.433   .     S
C104   N394    1.432   .     S
C104   C530    1.407   1_455 S
C105   N395    1.433   .     S
C105   C1039   1.405   1_545 S
C106   N396    1.434   .     S
C107   N397    1.433   .     S
C107   C529    1.403   1_455 S
C108   C114    1.402   .     A
C108   H316    1.083   .     S
C109   N398    1.438   .     S
C110   N399    1.433   .     S
C111   N400    1.434   .     S
C111   C1041   1.418   1_545 S
C112   C130    1.406   .     A
C112   C1017   1.406   1_545 S
C112   C113    1.480   1_554 S
C113   C112    1.480   1_556 S
C113   C1157   1.403   1_545 S
C114   C115    1.468   1_554 S
C114   C660    1.402   1_455 S
C115   C163    1.397   .     A
C115   C114    1.468   1_556 S
C115   C627    1.397   1_455 S
C116   C174    1.406   .     A
C116   C117    1.479   .     S
C116   C543    1.406   .     S
C117   C510    1.402   .     S
C118   C120    1.468   .     S
C118   C1029   1.402   .     S
C119   H327    1.084   .     S
C119   C623    1.397   .     S
C120   C1084   1.397   .     S
C121   C1041   1.476   1_545 S
C121   O1469   1.287   1_545 A
C121   O492    1.287   .     S
C122   C1039   1.451   1_545 S
C122   O1426   1.280   1_545 A
C122   O464    1.280   .     S
C123   O411    1.280   .     A
C123   O983    1.281   .     S
C124   O486    1.276   .     A
C124   O920    1.277   .     S
C125   O413    1.287   .     S
C125   O417    1.287   .     S
C126   O414    1.280   .     A
C126   O418    1.280   .     A
C127   C1034   1.464   1_545 S
C127   O415    1.280   .     S
C127   O419    1.280   .     S
C128   O416    1.276   .     S
C128   O421    1.277   .     S
C129   O450    1.278   .     A
C129   C184    1.452   .     S
C129   O422    1.281   .     A
C130   H338    1.082   .     S
C131   O451    1.279   .     A
C131   O423    1.280   .     A
C132   O424    1.279   .     A
C132   O448    1.285   .     A
C133   O449    1.284   .     A
C133   O425    1.278   .     A
C134   O426    1.282   .     A
C134   O455    1.278   .     A
C135   O427    1.281   .     A
C135   O456    1.279   .     A
C136   O452    1.285   .     A
C136   O428    1.278   .     A
C136   C182    1.471   .     S
C137   O454    1.284   .     A
C137   C183    1.470   .     S
C137   O429    1.278   .     A
C138   O430    1.284   .     A
C138   O441    1.279   .     A
C139   O443    1.278   .     A
C139   O432    1.284   .     A
C140   O433    1.278   .     A
C140   O439    1.281   .     A
C141   H349    1.082   .     S
C141   C1129   1.403   .     S
C142   O434    1.279   .     A
C142   O440    1.280   .     A
C143   O446    1.279   .     A
C143   O435    1.284   .     A
C144   O447    1.278   .     A
C144   O436    1.284   .     A
C145   O444    1.282   .     A
C145   O437    1.278   .     A
C146   O445    1.281   .     A
C146   O438    1.279   .     A
C147   C164    1.401   .     A
C147   O457    1.385   .     S
C148   C162    1.403   .     A
C148   O458    1.384   .     S
C149   O459    1.388   .     S
C149   C161    1.394   .     A
C150   C160    1.396   .     A
C150   O460    1.387   .     S
C151   O461    1.385   .     S
C151   C159    1.401   .     A
C152   H360    1.083   .     S
C152   C622    1.402   .     S
C153   C158    1.403   .     A
C153   O462    1.384   .     S
C154   O463    1.388   .     S
C154   C157    1.394   .     A
C155   C156    1.396   .     A
C155   O465    1.387   .     S
C156   O466    1.387   .     S
C157   O467    1.385   .     S
C158   O468    1.394   .     S
C159   O469    1.393   .     S
C160   O470    1.387   .     S
C161   C184    1.412   .     A
C161   O471    1.386   .     S
C162   O472    1.394   .     S
C162   C183    1.409   .     A
C163   H371    1.084   .     S
C164   O473    1.393   .     S
C164   C182    1.411   .     A
C165   C183    1.418   .     A
C165   O474    1.385   .     S
C165   C181    1.401   .     A
C166   O476    1.384   .     S
C166   C182    1.422   .     A
C166   C180    1.405   .     A
C167   O477    1.388   .     S
C167   C179    1.394   .     A
C168   O478    1.387   .     S
C168   C184    1.412   .     A
C168   C178    1.396   .     A
C169   C177    1.400   .     A
C169   O479    1.385   .     S
C170   C176    1.403   .     A
C170   O480    1.384   .     S
C171   C175    1.394   .     A
C171   O481    1.388   .     S
C172   C173    1.396   .     A
C172   O482    1.387   .     S
C173   O483    1.387   .     S
C174   H382    1.082   .     S
C175   O484    1.385   .     S
C176   O485    1.394   .     S
C177   O487    1.393   .     S
C178   O488    1.387   .     S
C179   O489    1.385   .     S
C180   O490    1.394   .     S
C181   O491    1.393   .     S
H271   N393    1.045   .     S
H272   N393    1.045   .     S
H273   N401    1.046   .     S
H275   N401    1.046   .     S
H276   N402    1.046   .     S
H277   N402    1.046   .     S
H278   N403    1.046   .     S
H279   N911    1.046   1_455 S
H280   N404    1.045   .     S
H281   N404    1.045   .     S
H282   N405    1.046   .     S
H283   N405    1.046   .     S
H284   N406    1.046   .     S
H286   N406    1.046   .     S
H287   N407    1.046   .     S
H288   N915    1.046   .     S
H289   N408    1.045   .     S
H290   N408    1.045   .     S
H291   N394    1.046   .     S
H292   N394    1.044   .     S
H293   N395    1.046   .     S
H294   N395    1.046   .     S
H295   N396    1.046   .     S
H298   N396    1.046   .     S
H299   N397    1.045   .     S
H300   N397    1.045   .     S
H301   N398    1.046   .     S
H302   N398    1.046   .     S
H303   N399    1.046   .     S
H304   N399    1.046   .     S
H305   N400    1.046   .     S
H306   N400    1.046   .     S
H362   C557    1.111   .     S
H367   C559    1.111   1_455 S
H384   C566    1.111   1_455 S
H389   C568    1.111   .     S
N403   H787    1.046   .     S
N407   H796    1.046   1_455 S
O409   Zn493   1.945   .     S
O409   Zn504   1.945   .     S
O409   Zn496   1.950   .     S
O409   Zn1516  1.950   1_545 S
O410   C1138   1.280   .     A
O410   Zn495   1.939   .     S
O411   Zn498   1.938   .     S
O412   Zn497   1.938   .     S
O412   C632    1.277   1_455 S
O413   Zn507   1.939   .     S
O414   Zn506   1.939   .     S
O415   Zn501   1.938   .     S
O416   Zn493   1.938   .     S
O417   Zn503   1.939   .     S
O418   Zn502   1.939   .     S
O419   Zn505   1.938   .     S
O420   Zn505   1.945   .     S
O420   Zn499   1.950   .     S
O420   Zn501   1.945   .     S
O420   Zn1511  1.950   1_545 S
O421   Zn504   1.938   .     S
O422   Zn496   1.931   .     S
O423   Zn495   1.931   .     S
O424   Zn498   1.949   .     S
O425   Zn497   1.949   .     S
O426   Zn500   1.931   .     S
O427   Zn499   1.931   .     S
O428   Zn494   1.950   .     S
O429   Zn508   1.950   .     S
O430   Zn495   1.947   .     S
O431   Zn1006  1.945   1_455 S
O431   Zn494   1.945   .     S
O431   Zn502   1.950   .     S
O431   Zn506   1.950   .     S
O432   Zn496   1.947   .     S
O433   Zn508   1.933   .     S
O434   Zn494   1.933   .     S
O435   Zn499   1.947   .     S
O436   Zn500   1.947   .     S
O437   Zn497   1.933   .     S
O438   Zn498   1.933   .     S
O439   Zn1011  1.931   .     S
O440   Zn502   1.931   .     S
O441   Zn1521  1.949   .     S
O442   Zn503   1.950   .     S
O442   Zn507   1.950   .     S
O442   Zn497   1.945   .     S
O442   Zn1016  1.945   1_455 S
O443   Zn504   1.949   .     S
O444   Zn507   1.931   .     S
O445   Zn1014  1.931   .     S
O446   Zn501   1.950   .     S
O447   Zn1509  1.950   .     S
O448   Zn1010  1.947   .     S
O449   Zn503   1.947   .     S
O450   Zn493   1.933   .     S
O451   Zn1517  1.933   .     S
O452   Zn506   1.947   .     S
O453   C1137   1.287   .     A
O453   Zn500   1.939   .     S
O454   Zn1015  1.947   .     S
O455   Zn1520  1.933   .     S
O456   Zn505   1.933   .     S
O464   Zn499   1.939   .     S
O475   Zn494   1.938   .     S
O475   C631    1.281   1_455 S
O486   Zn508   1.938   .     S
O492   Zn496   1.939   .     S
Zn493  O1463   1.950   1_545 S
Zn495  O1436   1.950   .     S
Zn498  O939    1.945   .     S
Zn500  O1425   1.950   .     S
Zn501  O1467   1.933   1_545 S
Zn502  O956    1.947   1_455 S
Zn503  O947    1.931   1_455 S
Zn504  O1471   1.933   1_545 S
Zn505  O1457   1.949   1_545 S
Zn506  O953    1.931   1_455 S
Zn507  O962    1.947   1_455 S
Zn508  O950    1.945   .     S
C509   H693    1.082   .     S
C509   C587    1.395   .     A
C509   C1636   1.406   .     S
C510   C612    1.394   .     A
C510   H694    1.082   .     S
C511   C639    1.451   .     S
C511   C675    1.410   .     A
C511   C668    1.408   .     A
C512   C640    1.471   .     S
C512   C667    1.412   .     A
C512   C678    1.421   .     A
C513   C666    1.409   .     A
C513   C641    1.470   .     S
C513   C677    1.418   .     A
C514   C680    1.412   .     A
C514   C665    1.412   .     A
C514   C642    1.452   .     S
C515   C679    1.410   .     A
C515   C664    1.408   .     A
C515   C643    1.451   .     S
C516   C653    1.452   .     S
C516   C683    1.412   .     A
C516   C663    1.412   .     A
C517   C654    1.451   .     S
C517   C681    1.408   .     A
C517   C662    1.410   .     A
C518   C646    1.471   .     S
C518   C685    1.412   .     A
C518   C661    1.421   .     A
C519   C684    1.409   .     A
C519   C659    1.418   .     A
C519   C647    1.470   .     S
C520   C658    1.412   .     A
C520   C648    1.452   .     S
C520   C687    1.412   .     A
C521   H705    1.083   .     S
C521   C613    1.394   .     A
C521   C1642   1.402   1_545 S
C522   C657    1.410   .     A
C522   C650    1.451   .     S
C522   C686    1.408   .     A
C523   C656    1.421   .     A
C523   C651    1.471   .     S
C523   C689    1.412   .     A
C524   C652    1.470   .     S
C524   C688    1.409   .     A
C524   C655    1.418   .     A
C525   C607    1.403   .     A
C525   C636    1.450   .     S
C525   C1603   1.403   1_545 S
C526   C608    1.410   .     A
C526   C1651   1.464   .     S
C526   C1614   1.410   .     S
C527   C634    1.451   .     S
C527   C604    1.405   .     A
C528   C633    1.476   .     S
C528   C610    1.418   .     S
C529   C632    1.450   .     S
C529   C611    1.403   .     A
C529   C107    1.403   1_655 S
C530   C617    1.410   .     A
C530   C631    1.464   .     S
C530   C104    1.407   1_655 S
C531   C1646   1.451   .     S
C531   C618    1.405   .     A
C531   C1629   1.405   .     S
C532   C614    1.394   .     A
C532   C628    1.397   .     A
C532   H716    1.084   .     S
C533   C1645   1.476   .     S
C533   C614    1.418   .     A
C533   C1635   1.418   .     S
C534   H771    1.111   .     S
C534   C535    1.522   .     S
C534   O965    1.420   .     S
C534   H782    1.113   .     S
C535   H793    1.111   .     S
C535   H815    1.110   .     S
C535   H805    1.110   .     S
C536   H817    1.110   .     S
C536   O966    1.419   .     S
C536   H816    1.111   .     S
C536   C537    1.522   .     S
C537   H818    1.109   .     S
C537   H819    1.110   .     S
C537   H820    1.111   .     S
C538   O967    1.417   .     S
C538   H821    1.114   .     S
C538   C539    1.521   .     S
C538   H822    1.110   .     S
C539   H825    1.111   .     S
C539   H823    1.111   .     S
C539   H826    1.111   .     S
C540   O968    1.416   .     S
C540   H827    1.110   .     S
C540   C541    1.521   .     S
C540   H828    1.113   .     S
C541   H829    1.110   .     S
C541   H830    1.110   .     S
C541   H831    1.110   .     S
C542   C544    1.522   .     S
C542   H832    1.111   .     S
C542   H833    1.112   .     S
C542   O969    1.420   .     S
C543   H727    1.082   .     S
C543   C615    1.395   .     A
C544   H837    1.110   .     S
C544   H836    1.110   .     S
C544   H834    1.111   .     S
C545   O970    1.419   .     S
C545   H839    1.110   .     S
C545   H838    1.111   .     S
C545   C546    1.522   .     S
C546   H841    1.110   .     S
C546   H842    1.111   .     S
C546   H840    1.109   .     S
C547   H843    1.114   .     S
C547   C548    1.521   .     S
C547   O971    1.417   .     S
C547   H844    1.110   .     S
C548   H845    1.111   .     S
C548   H847    1.111   .     S
C548   H848    1.111   .     S
C549   O973    1.416   .     S
C549   C550    1.521   .     S
C549   H849    1.110   .     S
C549   H850    1.113   .     S
C550   H852    1.110   .     S
C550   H853    1.110   .     S
C550   H851    1.110   .     S
C551   O974    1.417   .     S
C551   C552    1.521   .     S
C551   H855    1.118   .     S
C551   H854    1.110   .     S
C552   H859    1.110   .     S
C552   H856    1.111   .     S
C552   H858    1.109   .     S
C553   C555    1.521   .     S
C553   H861    1.110   .     S
C553   H860    1.112   .     S
C553   O975    1.412   .     S
C554   C625    1.404   .     A
C554   H738    1.082   .     S
C554   C617    1.399   .     A
C555   H864    1.111   .     S
C555   H862    1.109   .     S
C555   H863    1.111   .     S
C556   H866    1.116   .     S
C556   C557    1.523   .     S
C556   O976    1.414   .     S
C556   H865    1.107   .     S
C557   H869    1.111   .     S
C557   H867    1.107   .     S
C558   H871    1.116   .     S
C558   C559    1.524   .     S
C558   O977    1.415   .     S
C558   H872    1.108   .     S
C559   H874    1.107   .     S
C559   H873    1.111   .     S
C559   H367    1.111   1_655 S
C560   H877    1.118   .     S
C560   C561    1.521   .     S
C560   H876    1.110   .     S
C560   O978    1.417   .     S
C561   H878    1.109   .     S
C561   H881    1.111   .     S
C561   H880    1.110   .     S
C562   H882    1.112   .     S
C562   O979    1.412   .     S
C562   C563    1.521   .     S
C562   H883    1.110   .     S
C563   H884    1.109   .     S
C563   H885    1.111   .     S
C563   H886    1.111   .     S
C564   O980    1.414   .     S
C564   H888    1.116   .     S
C564   C566    1.523   .     S
C564   H887    1.107   .     S
C565   C626    1.402   .     A
C565   H749    1.083   .     S
C565   C618    1.394   .     A
C566   H891    1.111   .     S
C566   H889    1.107   .     S
C566   H384    1.111   1_655 S
C567   C568    1.524   .     S
C567   H894    1.108   .     S
C567   O981    1.415   .     S
C567   H893    1.116   .     S
C568   H896    1.107   .     S
C568   H895    1.111   .     S
C569   C570    1.522   .     S
C569   H899    1.112   .     S
C569   O982    1.420   .     S
C569   H898    1.111   .     S
C570   H696    1.110   .     S
C570   H900    1.110   .     S
C570   H695    1.111   .     S
C571   O984    1.419   .     S
C571   H698    1.110   .     S
C571   C572    1.523   .     S
C571   H697    1.110   .     S
C572   H700    1.110   .     S
C572   H699    1.108   .     S
C572   H701    1.111   .     S
C573   O985    1.417   .     S
C573   H702    1.114   .     S
C573   H703    1.110   .     S
C573   C574    1.521   .     S
C574   H706    1.111   .     S
C574   H707    1.111   .     S
C574   H704    1.111   .     S
C575   H708    1.110   .     S
C575   O986    1.416   .     S
C575   H709    1.113   .     S
C575   C577    1.521   .     S
C576   H760    1.084   .     S
C576   C619    1.393   .     A
C576   C1644   1.397   1_545 S
C577   H710    1.110   .     S
C577   H712    1.110   .     S
C577   H711    1.110   .     S
C578   O987    1.420   .     S
C578   H713    1.111   .     S
C578   C579    1.522   .     S
C578   H714    1.112   .     S
C579   H715    1.110   .     S
C579   H717    1.111   .     S
C579   H718    1.110   .     S
C580   C581    1.522   .     S
C580   H719    1.111   .     S
C580   H720    1.110   .     S
C580   O988    1.419   .     S
C581   H722    1.110   .     S
C581   H721    1.109   .     S
C581   H723    1.111   .     S
C582   O989    1.417   .     S
C582   H725    1.110   .     S
C582   C583    1.521   .     S
C582   H724    1.114   .     S
C583   H728    1.111   .     S
C583   H726    1.111   .     S
C583   H729    1.111   .     S
C584   O990    1.416   .     S
C584   H731    1.113   .     S
C584   C585    1.521   .     S
C584   H730    1.110   .     S
C585   H734    1.110   .     S
C585   H733    1.110   .     S
C585   H732    1.110   .     S
C586   C588    1.521   .     S
C586   H735    1.110   .     S
C586   O991    1.417   .     S
C586   H736    1.118   .     S
C587   N901    1.433   .     S
C587   C1541   1.403   .     S
C588   H740    1.111   .     S
C588   H737    1.111   .     S
C588   H739    1.109   .     S
C589   O992    1.412   .     S
C589   H742    1.110   .     S
C589   C590    1.521   .     S
C589   H741    1.112   .     S
C590   H743    1.109   .     S
C590   H745    1.111   .     S
C590   H744    1.111   .     S
C591   C592    1.523   .     S
C591   O993    1.414   .     S
C591   H746    1.107   .     S
C591   H747    1.116   .     S
C592   H751    1.111   .     S
C592   H748    1.107   .     S
C592   H750    1.111   .     S
C593   H752    1.116   .     S
C593   C594    1.524   .     S
C593   H753    1.108   .     S
C593   O995    1.415   .     S
C594   H755    1.107   .     S
C594   H756    1.111   .     S
C594   H754    1.111   .     S
C595   H758    1.118   .     S
C595   O996    1.417   .     S
C595   H757    1.110   .     S
C595   C596    1.521   .     S
C596   H761    1.109   .     S
C596   H762    1.110   .     S
C596   H759    1.111   .     S
C597   C599    1.521   .     S
C597   H764    1.110   .     S
C597   O997    1.412   .     S
C597   H763    1.112   .     S
C598   N909    1.438   .     S
C598   C605    1.397   .     A
C598   C1542   1.410   1_545 S
C599   H766    1.111   .     S
C599   H767    1.111   .     S
C599   H765    1.109   .     S
C600   O998    1.414   .     S
C600   H769    1.116   .     S
C600   C601    1.523   .     S
C600   H768    1.107   .     S
C601   H770    1.106   .     S
C601   H773    1.111   .     S
C601   H772    1.111   .     S
C602   H775    1.108   .     S
C602   C603    1.524   .     S
C602   H774    1.116   .     S
C602   O999    1.415   .     S
C603   H778    1.111   .     S
C603   H777    1.107   .     S
C603   H776    1.111   .     S
C604   N910    1.433   .     S
C604   C616    1.394   .     A
C605   H804    1.082   .     S
C605   C621    1.403   .     A
C606   C20     1.418   1_655 A
C606   C627    1.394   .     A
C606   N911    1.434   .     S
C607   N912    1.433   .     S
C607   C638    1.395   .     A
C608   N913    1.438   .     S
C608   C649    1.397   .     A
C609   C660    1.394   .     A
C609   N914    1.433   .     S
C609   C19     1.405   1_655 S
C610   C671    1.394   .     A
C610   N915    1.434   .     S
C611   C682    1.395   .     A
C611   N916    1.433   .     S
C612   N902    1.432   .     S
C613   N903    1.433   .     S
C613   C1547   1.405   1_545 S
C614   N904    1.434   .     S
C615   N905    1.433   .     S
C616   C622    1.402   .     A
C616   H824    1.083   .     S
C617   N906    1.438   .     S
C618   N907    1.433   .     S
C619   N908    1.434   .     S
C619   C1549   1.418   1_545 S
C620   C638    1.406   .     A
C620   C1525   1.406   1_545 S
C620   C621    1.480   1_554 S
C621   C620    1.480   1_556 S
C621   C1665   1.403   1_545 S
C622   C623    1.468   1_554 S
C623   C671    1.397   .     A
C623   C622    1.468   1_556 S
C624   C682    1.406   .     A
C624   C625    1.479   .     S
C624   C35     1.406   1_655 S
C625   C2      1.402   1_655 S
C626   C628    1.468   .     S
C626   C1537   1.402   .     S
C627   H835    1.084   .     S
C627   C115    1.397   1_655 S
C628   C1592   1.397   .     S
C629   C1549   1.476   1_545 S
C629   O1977   1.287   1_545 A
C629   O1000   1.287   .     S
C630   C1547   1.451   1_545 S
C630   O1934   1.280   1_545 A
C630   O972    1.280   .     S
C631   O919    1.280   .     A
C631   O475    1.281   1_655 S
C632   O994    1.276   .     A
C632   O412    1.277   1_655 S
C633   O921    1.287   .     S
C633   O925    1.287   .     S
C634   O922    1.280   .     A
C634   O926    1.280   .     A
C635   C1542   1.464   1_545 S
C635   O923    1.280   .     S
C635   O927    1.280   .     S
C636   O924    1.276   .     S
C636   O929    1.277   .     S
C637   O958    1.278   .     A
C637   C692    1.452   .     S
C637   O930    1.281   .     A
C638   H846    1.082   .     S
C639   O959    1.279   .     A
C639   O931    1.280   .     A
C640   O932    1.279   .     A
C640   O956    1.285   .     A
C641   O957    1.284   .     A
C641   O933    1.278   .     A
C642   O934    1.282   .     A
C642   O963    1.278   .     A
C643   O935    1.281   .     A
C643   O964    1.279   .     A
C644   O960    1.285   .     A
C644   O936    1.278   .     A
C644   C690    1.471   .     S
C645   O962    1.284   .     A
C645   C691    1.470   .     S
C645   O937    1.278   .     A
C646   O938    1.284   .     A
C646   O949    1.279   .     A
C647   O951    1.278   .     A
C647   O940    1.284   .     A
C648   O941    1.278   .     A
C648   O947    1.281   .     A
C649   H857    1.082   .     S
C649   C1637   1.403   .     S
C650   O942    1.279   .     A
C650   O948    1.280   .     A
C651   O954    1.279   .     A
C651   O943    1.284   .     A
C652   O955    1.278   .     A
C652   O944    1.284   .     A
C653   O952    1.282   .     A
C653   O945    1.278   .     A
C654   O953    1.281   .     A
C654   O946    1.279   .     A
C655   C672    1.401   .     A
C655   O965    1.385   .     S
C656   C670    1.403   .     A
C656   O966    1.384   .     S
C657   O967    1.388   .     S
C657   C669    1.394   .     A
C658   C668    1.396   .     A
C658   O968    1.387   .     S
C659   O969    1.385   .     S
C659   C667    1.401   .     A
C660   H868    1.083   .     S
C660   C114    1.402   1_655 S
C661   C666    1.403   .     A
C661   O970    1.384   .     S
C662   O971    1.388   .     S
C662   C665    1.394   .     A
C663   C664    1.396   .     A
C663   O973    1.387   .     S
C664   O974    1.387   .     S
C665   O975    1.385   .     S
C666   O976    1.394   .     S
C667   O977    1.393   .     S
C668   O978    1.387   .     S
C669   C692    1.412   .     A
C669   O979    1.386   .     S
C670   O980    1.394   .     S
C670   C691    1.409   .     A
C671   H879    1.084   .     S
C672   O981    1.393   .     S
C672   C690    1.411   .     A
C673   C691    1.418   .     A
C673   O982    1.385   .     S
C673   C689    1.401   .     A
C674   O984    1.384   .     S
C674   C690    1.422   .     A
C674   C688    1.405   .     A
C675   O985    1.388   .     S
C675   C687    1.394   .     A
C676   O986    1.387   .     S
C676   C692    1.412   .     A
C676   C686    1.396   .     A
C677   C685    1.400   .     A
C677   O987    1.385   .     S
C678   C684    1.403   .     A
C678   O988    1.384   .     S
C679   C683    1.394   .     A
C679   O989    1.388   .     S
C680   C681    1.396   .     A
C680   O990    1.387   .     S
C681   O991    1.387   .     S
C682   H890    1.082   .     S
C683   O992    1.385   .     S
C684   O993    1.394   .     S
C685   O995    1.393   .     S
C686   O996    1.387   .     S
C687   O997    1.385   .     S
C688   O998    1.394   .     S
C689   O999    1.393   .     S
H779   N901    1.045   .     S
H780   N901    1.045   .     S
H781   N909    1.046   .     S
H783   N909    1.046   .     S
H784   N910    1.046   .     S
H785   N910    1.046   .     S
H786   N911    1.046   .     S
H788   N912    1.045   .     S
H789   N912    1.045   .     S
H790   N913    1.046   .     S
H791   N913    1.046   .     S
H792   N914    1.046   .     S
H794   N914    1.046   .     S
H795   N915    1.046   .     S
H796   N407    1.046   1_655 S
H797   N916    1.045   .     S
H798   N916    1.045   .     S
H799   N902    1.046   .     S
H800   N902    1.044   .     S
H801   N903    1.046   .     S
H802   N903    1.046   .     S
H803   N904    1.046   .     S
H806   N904    1.046   .     S
H807   N905    1.045   .     S
H808   N905    1.045   .     S
H809   N906    1.046   .     S
H810   N906    1.046   .     S
H811   N907    1.046   .     S
H812   N907    1.046   .     S
H813   N908    1.046   .     S
H814   N908    1.046   .     S
H870   C49     1.111   1_655 S
H897   C60     1.111   1_655 S
N911   H279    1.046   1_655 S
O917   Zn1001  1.945   .     S
O917   Zn1012  1.945   .     S
O917   Zn1004  1.950   .     S
O917   Zn2024  1.950   1_545 S
O918   C1646   1.280   .     A
O918   Zn1003  1.939   .     S
O919   Zn1006  1.938   .     S
O920   Zn1005  1.938   .     S
O921   Zn1015  1.939   .     S
O922   Zn1014  1.939   .     S
O923   Zn1009  1.938   .     S
O924   Zn1001  1.938   .     S
O925   Zn1011  1.939   .     S
O926   Zn1010  1.939   .     S
O927   Zn1013  1.938   .     S
O928   Zn1013  1.945   .     S
O928   Zn1007  1.950   .     S
O928   Zn1009  1.945   .     S
O928   Zn2019  1.950   1_545 S
O929   Zn1012  1.938   .     S
O930   Zn1004  1.931   .     S
O931   Zn1003  1.931   .     S
O932   Zn1006  1.949   .     S
O933   Zn1005  1.949   .     S
O934   Zn1008  1.931   .     S
O935   Zn1007  1.931   .     S
O936   Zn1002  1.950   .     S
O937   Zn1016  1.950   .     S
O938   Zn1003  1.947   .     S
O939   Zn1002  1.945   .     S
O939   Zn1010  1.950   .     S
O939   Zn1014  1.950   .     S
O940   Zn1004  1.947   .     S
O941   Zn1016  1.933   .     S
O942   Zn1002  1.933   .     S
O943   Zn1007  1.947   .     S
O944   Zn1008  1.947   .     S
O945   Zn1005  1.933   .     S
O946   Zn1006  1.933   .     S
O947   Zn503   1.931   1_655 S
O948   Zn1010  1.931   .     S
O949   Zn2029  1.949   .     S
O950   Zn1011  1.950   .     S
O950   Zn1015  1.950   .     S
O950   Zn1005  1.945   .     S
O951   Zn1012  1.949   .     S
O952   Zn1015  1.931   .     S
O953   Zn506   1.931   1_655 S
O954   Zn1009  1.950   .     S
O955   Zn2017  1.950   .     S
O956   Zn502   1.947   1_655 S
O957   Zn1011  1.947   .     S
O958   Zn1001  1.933   .     S
O959   Zn2025  1.933   .     S
O960   Zn1014  1.947   .     S
O961   C1645   1.287   .     A
O961   Zn1008  1.939   .     S
O962   Zn507   1.947   1_655 S
O963   Zn2028  1.933   .     S
O964   Zn1013  1.933   .     S
O972   Zn1007  1.939   .     S
O983   Zn1002  1.938   .     S
O994   Zn1016  1.938   .     S
O1000  Zn1004  1.939   .     S
Zn1001 O1971   1.950   1_545 S
Zn1003 O1944   1.950   .     S
Zn1006 O431    1.945   1_655 S
Zn1008 O1933   1.950   .     S
Zn1009 O1975   1.933   1_545 S
Zn1012 O1979   1.933   1_545 S
Zn1013 O1965   1.949   1_545 S
Zn1016 O442    1.945   1_655 S
C1017  H1201   1.082   .     S
C1017  C1095   1.395   .     A
C1017  C112    1.406   1_565 S
C1018  C1120   1.394   .     A
C1018  H1202   1.082   .     S
C1018  C1641   1.402   1_455 S
C1019  C1147   1.451   .     S
C1019  C1183   1.410   .     A
C1019  C1176   1.408   .     A
C1020  C1148   1.471   .     S
C1020  C1175   1.412   .     A
C1020  C1186   1.421   .     A
C1021  C1174   1.409   .     A
C1021  C1149   1.470   .     S
C1021  C1185   1.418   .     A
C1022  C1188   1.412   .     A
C1022  C1173   1.412   .     A
C1022  C1150   1.452   .     S
C1023  C1187   1.410   .     A
C1023  C1172   1.408   .     A
C1023  C1151   1.451   .     S
C1024  C1161   1.452   .     S
C1024  C1191   1.412   .     A
C1024  C1171   1.412   .     A
C1025  C1162   1.451   .     S
C1025  C1189   1.408   .     A
C1025  C1170   1.410   .     A
C1026  C1154   1.471   .     S
C1026  C1193   1.412   .     A
C1026  C1169   1.421   .     A
C1027  C1192   1.409   .     A
C1027  C1167   1.418   .     A
C1027  C1155   1.470   .     S
C1028  C1166   1.412   .     A
C1028  C1156   1.452   .     S
C1028  C1195   1.412   .     A
C1029  H1213   1.083   .     S
C1029  C1121   1.394   .     A
C1030  C1165   1.410   .     A
C1030  C1158   1.451   .     S
C1030  C1194   1.408   .     A
C1031  C1164   1.421   .     A
C1031  C1159   1.471   .     S
C1031  C1197   1.412   .     A
C1032  C1160   1.470   .     S
C1032  C1196   1.409   .     A
C1032  C1163   1.418   .     A
C1033  C1115   1.403   .     A
C1033  C1144   1.450   .     S
C1034  C1116   1.410   .     A
C1034  C127    1.464   1_565 S
C1034  C90     1.410   1_565 S
C1035  C1142   1.451   .     S
C1035  C1112   1.405   .     A
C1035  C1625   1.405   1_455 S
C1036  C1141   1.476   .     S
C1036  C1622   1.418   1_455 A
C1036  C1118   1.418   .     S
C1037  C1140   1.450   .     S
C1037  C1119   1.403   .     A
C1037  C1631   1.403   .     S
C1038  C1125   1.410   .     A
C1038  C1139   1.464   .     S
C1038  C1628   1.407   .     S
C1039  C122    1.451   1_565 S
C1039  C1126   1.405   .     A
C1039  C105    1.405   1_565 S
C1040  C1122   1.394   .     A
C1040  C1136   1.397   .     A
C1040  H1224   1.084   .     S
C1041  C121    1.476   1_565 S
C1041  C1122   1.418   .     A
C1041  C111    1.418   1_565 S
C1042  H1279   1.111   .     S
C1042  C1043   1.522   .     S
C1042  O1473   1.420   .     S
C1042  H1290   1.113   .     S
C1043  H1301   1.111   .     S
C1043  H1323   1.110   .     S
C1043  H1313   1.110   .     S
C1044  H1325   1.110   .     S
C1044  O1474   1.419   .     S
C1044  H1324   1.111   .     S
C1044  C1045   1.522   .     S
C1045  H1326   1.109   .     S
C1045  H1327   1.110   .     S
C1045  H1328   1.111   .     S
C1046  O1475   1.417   .     S
C1046  H1329   1.114   .     S
C1046  C1047   1.521   .     S
C1046  H1330   1.110   .     S
C1047  H1333   1.111   .     S
C1047  H1331   1.111   .     S
C1047  H1334   1.111   .     S
C1048  O1476   1.416   .     S
C1048  H1335   1.110   .     S
C1048  C1049   1.521   .     S
C1048  H1336   1.113   .     S
C1049  H1337   1.110   .     S
C1049  H1338   1.110   .     S
C1049  H1339   1.110   .     S
C1050  C1052   1.522   .     S
C1050  H1340   1.111   .     S
C1050  H1341   1.112   .     S
C1050  O1477   1.420   .     S
C1051  H1235   1.082   .     S
C1051  C1123   1.395   .     A
C1051  C1640   1.406   1_455 S
C1052  H1345   1.110   .     S
C1052  H1344   1.110   .     S
C1052  H1342   1.111   .     S
C1053  O1478   1.419   .     S
C1053  H1347   1.110   .     S
C1053  H1346   1.111   .     S
C1053  C1054   1.522   .     S
C1054  H1349   1.110   .     S
C1054  H1350   1.111   .     S
C1054  H1348   1.109   .     S
C1055  H1351   1.114   .     S
C1055  C1056   1.521   .     S
C1055  O1479   1.417   .     S
C1055  H1352   1.110   .     S
C1056  H1353   1.111   .     S
C1056  H1355   1.111   .     S
C1056  H1356   1.111   .     S
C1057  O1481   1.416   .     S
C1057  C1058   1.521   .     S
C1057  H1357   1.110   .     S
C1057  H1358   1.113   .     S
C1058  H1360   1.110   .     S
C1058  H1361   1.110   .     S
C1058  H1359   1.110   .     S
C1059  O1482   1.417   .     S
C1059  C1060   1.521   .     S
C1059  H1363   1.118   .     S
C1059  H1362   1.110   .     S
C1060  H1367   1.110   .     S
C1060  H1364   1.111   .     S
C1060  H1366   1.109   .     S
C1061  C1063   1.521   .     S
C1061  H1369   1.110   .     S
C1061  H1368   1.112   .     S
C1061  O1483   1.412   .     S
C1062  C1133   1.404   .     A
C1062  H1246   1.082   .     S
C1062  C1125   1.399   .     A
C1063  H1372   1.111   .     S
C1063  H1370   1.109   .     S
C1063  H1371   1.111   .     S
C1064  H1374   1.116   .     S
C1064  C1065   1.523   .     S
C1064  O1484   1.414   .     S
C1064  H1373   1.107   .     S
C1065  H1377   1.111   .     S
C1065  H1375   1.107   .     S
C1065  H1886   1.111   1_455 S
C1066  H1379   1.116   .     S
C1066  C1067   1.524   .     S
C1066  O1485   1.415   .     S
C1066  H1380   1.108   .     S
C1067  H1382   1.107   .     S
C1067  H1381   1.111   .     S
C1067  H1891   1.111   .     S
C1068  H1385   1.118   .     S
C1068  C1069   1.521   .     S
C1068  H1384   1.110   .     S
C1068  O1486   1.417   .     S
C1069  H1386   1.109   .     S
C1069  H1389   1.111   .     S
C1069  H1388   1.110   .     S
C1070  H1390   1.112   .     S
C1070  O1487   1.412   .     S
C1070  C1071   1.521   .     S
C1070  H1391   1.110   .     S
C1071  H1392   1.109   .     S
C1071  H1393   1.111   .     S
C1071  H1394   1.111   .     S
C1072  O1488   1.414   .     S
C1072  H1396   1.116   .     S
C1072  C1074   1.523   .     S
C1072  H1395   1.107   .     S
C1073  C1134   1.402   .     A
C1073  H1257   1.083   .     S
C1073  C1126   1.394   .     A
C1074  H1399   1.111   .     S
C1074  H1397   1.107   .     S
C1074  H1908   1.111   .     S
C1075  C1076   1.524   .     S
C1075  H1402   1.108   .     S
C1075  O1489   1.415   .     S
C1075  H1401   1.116   .     S
C1076  H1404   1.107   .     S
C1076  H1403   1.111   .     S
C1076  H1913   1.111   1_455 S
C1077  C1078   1.522   .     S
C1077  H1407   1.112   .     S
C1077  O1490   1.420   .     S
C1077  H1406   1.111   .     S
C1078  H1204   1.110   .     S
C1078  H1408   1.110   .     S
C1078  H1203   1.111   .     S
C1079  O1492   1.419   .     S
C1079  H1206   1.110   .     S
C1079  C1080   1.523   .     S
C1079  H1205   1.110   .     S
C1080  H1208   1.110   .     S
C1080  H1207   1.108   .     S
C1080  H1209   1.111   .     S
C1081  O1493   1.417   .     S
C1081  H1210   1.114   .     S
C1081  H1211   1.110   .     S
C1081  C1082   1.521   .     S
C1082  H1214   1.111   .     S
C1082  H1215   1.111   .     S
C1082  H1212   1.111   .     S
C1083  H1216   1.110   .     S
C1083  O1494   1.416   .     S
C1083  H1217   1.113   .     S
C1083  C1085   1.521   .     S
C1084  H1268   1.084   .     S
C1084  C1127   1.393   .     A
C1085  H1218   1.110   .     S
C1085  H1220   1.110   .     S
C1085  H1219   1.110   .     S
C1086  O1495   1.420   .     S
C1086  H1221   1.111   .     S
C1086  C1087   1.522   .     S
C1086  H1222   1.112   .     S
C1087  H1223   1.110   .     S
C1087  H1225   1.111   .     S
C1087  H1226   1.110   .     S
C1088  C1089   1.522   .     S
C1088  H1227   1.111   .     S
C1088  H1228   1.110   .     S
C1088  O1496   1.419   .     S
C1089  H1230   1.110   .     S
C1089  H1229   1.109   .     S
C1089  H1231   1.111   .     S
C1090  O1497   1.417   .     S
C1090  H1233   1.110   .     S
C1090  C1091   1.521   .     S
C1090  H1232   1.114   .     S
C1091  H1236   1.111   .     S
C1091  H1234   1.111   .     S
C1091  H1237   1.111   .     S
C1092  O1498   1.416   .     S
C1092  H1239   1.113   .     S
C1092  C1093   1.521   .     S
C1092  H1238   1.110   .     S
C1093  H1242   1.110   .     S
C1093  H1241   1.110   .     S
C1093  H1240   1.110   .     S
C1094  C1096   1.521   .     S
C1094  H1243   1.110   .     S
C1094  O1499   1.417   .     S
C1094  H1244   1.118   .     S
C1095  N1409   1.433   .     S
C1095  C17     1.403   1_565 S
C1096  H1248   1.111   .     S
C1096  H1245   1.111   .     S
C1096  H1247   1.109   .     S
C1097  O1500   1.412   .     S
C1097  H1250   1.110   .     S
C1097  C1098   1.521   .     S
C1097  H1249   1.112   .     S
C1098  H1251   1.109   .     S
C1098  H1253   1.111   .     S
C1098  H1252   1.111   .     S
C1099  C1100   1.523   .     S
C1099  O1501   1.414   .     S
C1099  H1254   1.107   .     S
C1099  H1255   1.116   .     S
C1100  H1259   1.111   .     S
C1100  H1256   1.107   .     S
C1100  H1258   1.111   .     S
C1101  H1260   1.116   .     S
C1101  C1102   1.524   .     S
C1101  H1261   1.108   .     S
C1101  O1503   1.415   .     S
C1102  H1263   1.107   .     S
C1102  H1264   1.111   .     S
C1102  H1262   1.111   .     S
C1103  H1266   1.118   .     S
C1103  O1504   1.417   .     S
C1103  H1265   1.110   .     S
C1103  C1104   1.521   .     S
C1104  H1269   1.109   .     S
C1104  H1270   1.110   .     S
C1104  H1267   1.111   .     S
C1105  C1107   1.521   .     S
C1105  H1272   1.110   .     S
C1105  O1505   1.412   .     S
C1105  H1271   1.112   .     S
C1106  N1417   1.438   .     S
C1106  C1113   1.397   .     A
C1107  H1274   1.111   .     S
C1107  H1275   1.111   .     S
C1107  H1273   1.109   .     S
C1108  O1506   1.414   .     S
C1108  H1277   1.116   .     S
C1108  C1109   1.523   .     S
C1108  H1276   1.107   .     S
C1109  H1278   1.106   .     S
C1109  H1281   1.111   .     S
C1109  H1280   1.111   .     S
C1110  H1283   1.108   .     S
C1110  C1111   1.524   .     S
C1110  H1282   1.116   .     S
C1110  O1507   1.415   .     S
C1111  H1286   1.111   .     S
C1111  H1285   1.107   .     S
C1111  H1284   1.111   .     S
C1112  N1418   1.433   .     S
C1112  C1124   1.394   .     A
C1113  H1312   1.082   .     S
C1113  C1129   1.403   .     A
C1114  C1544   1.418   .     A
C1114  C1135   1.394   .     A
C1114  N1419   1.434   .     S
C1115  N1420   1.433   .     S
C1115  C1146   1.395   .     A
C1116  N1421   1.438   .     S
C1116  C1157   1.397   .     A
C1117  C1168   1.394   .     A
C1117  N1422   1.433   .     S
C1117  C1543   1.405   .     S
C1118  C1179   1.394   .     A
C1118  N1423   1.434   .     S
C1119  C1190   1.395   .     A
C1119  N1424   1.433   .     S
C1120  N1410   1.432   .     S
C1120  C1546   1.407   1_455 S
C1121  N1411   1.433   .     S
C1122  N1412   1.434   .     S
C1123  N1413   1.433   .     S
C1123  C1545   1.403   1_455 S
C1124  C1130   1.402   .     A
C1124  H1332   1.083   .     S
C1125  N1414   1.438   .     S
C1126  N1415   1.433   .     S
C1127  N1416   1.434   .     S
C1128  C1146   1.406   .     A
C1128  C1129   1.480   1_554 S
C1129  C1128   1.480   1_556 S
C1130  C1131   1.468   1_554 S
C1130  C1676   1.402   1_455 S
C1131  C1179   1.397   .     A
C1131  C1130   1.468   1_556 S
C1131  C1643   1.397   1_455 S
C1132  C1190   1.406   .     A
C1132  C1133   1.479   .     S
C1132  C1559   1.406   .     S
C1133  C1526   1.402   .     S
C1134  C1136   1.468   .     S
C1134  C13     1.402   1_565 S
C1135  H1343   1.084   .     S
C1135  C1639   1.397   .     S
C1136  C68     1.397   1_565 S
C1137  O1508   1.287   .     S
C1138  O1480   1.280   .     S
C1139  O1427   1.280   .     A
C1139  O1999   1.281   .     S
C1140  O1502   1.276   .     A
C1140  O1936   1.277   .     S
C1141  O1429   1.287   .     S
C1141  O1433   1.287   .     S
C1142  O1430   1.280   .     A
C1142  O1434   1.280   .     A
C1143  O1431   1.280   .     S
C1143  O1435   1.280   .     S
C1144  O1432   1.276   .     S
C1144  O1437   1.277   .     S
C1145  O1466   1.278   .     A
C1145  C1200   1.452   .     S
C1145  O1438   1.281   .     A
C1146  H1354   1.082   .     S
C1147  O1467   1.279   .     A
C1147  O1439   1.280   .     A
C1148  O1440   1.279   .     A
C1148  O1464   1.285   .     A
C1149  O1465   1.284   .     A
C1149  O1441   1.278   .     A
C1150  O1442   1.282   .     A
C1150  O1471   1.278   .     A
C1151  O1443   1.281   .     A
C1151  O1472   1.279   .     A
C1152  O1468   1.285   .     A
C1152  O1444   1.278   .     A
C1152  C1198   1.471   .     S
C1153  O1470   1.284   .     A
C1153  C1199   1.470   .     S
C1153  O1445   1.278   .     A
C1154  O1446   1.284   .     A
C1154  O1457   1.279   .     A
C1155  O1459   1.278   .     A
C1155  O1448   1.284   .     A
C1156  O1449   1.278   .     A
C1156  O1455   1.281   .     A
C1157  H1365   1.082   .     S
C1157  C113    1.403   1_565 S
C1158  O1450   1.279   .     A
C1158  O1456   1.280   .     A
C1159  O1462   1.279   .     A
C1159  O1451   1.284   .     A
C1160  O1463   1.278   .     A
C1160  O1452   1.284   .     A
C1161  O1460   1.282   .     A
C1161  O1453   1.278   .     A
C1162  O1461   1.281   .     A
C1162  O1454   1.279   .     A
C1163  C1180   1.401   .     A
C1163  O1473   1.385   .     S
C1164  C1178   1.403   .     A
C1164  O1474   1.384   .     S
C1165  O1475   1.388   .     S
C1165  C1177   1.394   .     A
C1166  C1176   1.396   .     A
C1166  O1476   1.387   .     S
C1167  O1477   1.385   .     S
C1167  C1175   1.401   .     A
C1168  H1376   1.083   .     S
C1168  C1638   1.402   .     S
C1169  C1174   1.403   .     A
C1169  O1478   1.384   .     S
C1170  O1479   1.388   .     S
C1170  C1173   1.394   .     A
C1171  C1172   1.396   .     A
C1171  O1481   1.387   .     S
C1172  O1482   1.387   .     S
C1173  O1483   1.385   .     S
C1174  O1484   1.394   .     S
C1175  O1485   1.393   .     S
C1176  O1486   1.387   .     S
C1177  C1200   1.412   .     A
C1177  O1487   1.386   .     S
C1178  O1488   1.394   .     S
C1178  C1199   1.409   .     A
C1179  H1387   1.084   .     S
C1180  O1489   1.393   .     S
C1180  C1198   1.411   .     A
C1181  C1199   1.418   .     A
C1181  O1490   1.385   .     S
C1181  C1197   1.401   .     A
C1182  O1492   1.384   .     S
C1182  C1198   1.422   .     A
C1182  C1196   1.405   .     A
C1183  O1493   1.388   .     S
C1183  C1195   1.394   .     A
C1184  O1494   1.387   .     S
C1184  C1200   1.412   .     A
C1184  C1194   1.396   .     A
C1185  C1193   1.400   .     A
C1185  O1495   1.385   .     S
C1186  C1192   1.403   .     A
C1186  O1496   1.384   .     S
C1187  C1191   1.394   .     A
C1187  O1497   1.388   .     S
C1188  C1189   1.396   .     A
C1188  O1498   1.387   .     S
C1189  O1499   1.387   .     S
C1190  H1398   1.082   .     S
C1191  O1500   1.385   .     S
C1192  O1501   1.394   .     S
C1193  O1503   1.393   .     S
C1194  O1504   1.387   .     S
C1195  O1505   1.385   .     S
C1196  O1506   1.394   .     S
C1197  O1507   1.393   .     S
H1287  N1409   1.045   .     S
H1288  N1409   1.045   .     S
H1289  N1417   1.046   .     S
H1291  N1417   1.046   .     S
H1292  N1418   1.046   .     S
H1293  N1418   1.046   .     S
H1294  N1419   1.046   .     S
H1295  N1927   1.046   1_455 S
H1296  N1420   1.045   .     S
H1297  N1420   1.045   .     S
H1298  N1421   1.046   .     S
H1299  N1421   1.046   .     S
H1300  N1422   1.046   .     S
H1302  N1422   1.046   .     S
H1303  N1423   1.046   .     S
H1304  N1931   1.046   .     S
H1305  N1424   1.045   .     S
H1306  N1424   1.045   .     S
H1307  N1410   1.046   .     S
H1308  N1410   1.044   .     S
H1309  N1411   1.046   .     S
H1310  N1411   1.046   .     S
H1311  N1412   1.046   .     S
H1314  N1412   1.046   .     S
H1315  N1413   1.045   .     S
H1316  N1413   1.045   .     S
H1317  N1414   1.046   .     S
H1318  N1414   1.046   .     S
H1319  N1415   1.046   .     S
H1320  N1415   1.046   .     S
H1321  N1416   1.046   .     S
H1322  N1416   1.046   .     S
H1378  C1573   1.111   .     S
H1383  C1575   1.111   1_455 S
H1400  C1582   1.111   1_455 S
H1405  C1584   1.111   .     S
N1419  H1803   1.046   .     S
N1423  H1812   1.046   1_455 S
O1425  Zn1509  1.945   .     S
O1425  Zn1520  1.945   .     S
O1425  Zn1512  1.950   .     S
O1426  C122    1.280   1_565 A
O1426  Zn1511  1.939   .     S
O1427  Zn1514  1.938   .     S
O1428  Zn1513  1.938   .     S
O1428  C1648   1.277   1_455 S
O1429  Zn1523  1.939   .     S
O1430  Zn1522  1.939   .     S
O1431  Zn1517  1.938   .     S
O1432  Zn1509  1.938   .     S
O1433  Zn1519  1.939   .     S
O1434  Zn1518  1.939   .     S
O1435  Zn1521  1.938   .     S
O1436  Zn1521  1.945   .     S
O1436  Zn1515  1.950   .     S
O1436  Zn1517  1.945   .     S
O1437  Zn1520  1.938   .     S
O1438  Zn1512  1.931   .     S
O1439  Zn1511  1.931   .     S
O1440  Zn1514  1.949   .     S
O1441  Zn1513  1.949   .     S
O1442  Zn1516  1.931   .     S
O1443  Zn1515  1.931   .     S
O1444  Zn1510  1.950   .     S
O1445  Zn1524  1.950   .     S
O1446  Zn1511  1.947   .     S
O1447  Zn2022  1.945   1_455 S
O1447  Zn1510  1.945   .     S
O1447  Zn1518  1.950   .     S
O1447  Zn1522  1.950   .     S
O1448  Zn1512  1.947   .     S
O1449  Zn1524  1.933   .     S
O1450  Zn1510  1.933   .     S
O1451  Zn1515  1.947   .     S
O1452  Zn1516  1.947   .     S
O1453  Zn1513  1.933   .     S
O1454  Zn1514  1.933   .     S
O1455  Zn2027  1.931   .     S
O1456  Zn1518  1.931   .     S
O1457  Zn505   1.949   1_565 S
O1458  Zn1519  1.950   .     S
O1458  Zn1523  1.950   .     S
O1458  Zn1513  1.945   .     S
O1458  Zn2032  1.945   1_455 S
O1459  Zn1520  1.949   .     S
O1460  Zn1523  1.931   .     S
O1461  Zn2030  1.931   .     S
O1462  Zn1517  1.950   .     S
O1463  Zn493   1.950   1_565 S
O1464  Zn2026  1.947   .     S
O1465  Zn1519  1.947   .     S
O1466  Zn1509  1.933   .     S
O1467  Zn501   1.933   1_565 S
O1468  Zn1522  1.947   .     S
O1469  C121    1.287   1_565 A
O1469  Zn1516  1.939   .     S
O1470  Zn2031  1.947   .     S
O1471  Zn504   1.933   1_565 S
O1472  Zn1521  1.933   .     S
O1480  Zn1515  1.939   .     S
O1491  Zn1510  1.938   .     S
O1491  C1647   1.281   1_455 S
O1502  Zn1524  1.938   .     S
O1508  Zn1512  1.939   .     S
Zn1511 O420    1.950   1_565 S
Zn1514 O1955   1.945   .     S
Zn1516 O409    1.950   1_565 S
Zn1518 O1972   1.947   1_455 S
Zn1519 O1963   1.931   1_455 S
Zn1522 O1969   1.931   1_455 S
Zn1523 O1978   1.947   1_455 S
Zn1524 O1966   1.945   .     S
C1525  H1709   1.082   .     S
C1525  C1603   1.395   .     A
C1525  C620    1.406   1_565 S
C1526  C1628   1.394   .     A
C1526  H1710   1.082   .     S
C1527  C1655   1.451   .     S
C1527  C1691   1.410   .     A
C1527  C1684   1.408   .     A
C1528  C1656   1.471   .     S
C1528  C1683   1.412   .     A
C1528  C1694   1.421   .     A
C1529  C1682   1.409   .     A
C1529  C1657   1.470   .     S
C1529  C1693   1.418   .     A
C1530  C1696   1.412   .     A
C1530  C1681   1.412   .     A
C1530  C1658   1.452   .     S
C1531  C1695   1.410   .     A
C1531  C1680   1.408   .     A
C1531  C1659   1.451   .     S
C1532  C1669   1.452   .     S
C1532  C1699   1.412   .     A
C1532  C1679   1.412   .     A
C1533  C1670   1.451   .     S
C1533  C1697   1.408   .     A
C1533  C1678   1.410   .     A
C1534  C1662   1.471   .     S
C1534  C1701   1.412   .     A
C1534  C1677   1.421   .     A
C1535  C1700   1.409   .     A
C1535  C1675   1.418   .     A
C1535  C1663   1.470   .     S
C1536  C1674   1.412   .     A
C1536  C1664   1.452   .     S
C1536  C1703   1.412   .     A
C1537  H1721   1.083   .     S
C1537  C1629   1.394   .     A
C1538  C1673   1.410   .     A
C1538  C1666   1.451   .     S
C1538  C1702   1.408   .     A
C1539  C1672   1.421   .     A
C1539  C1667   1.471   .     S
C1539  C1705   1.412   .     A
C1540  C1668   1.470   .     S
C1540  C1704   1.409   .     A
C1540  C1671   1.418   .     A
C1541  C1623   1.403   .     A
C1541  C1652   1.450   .     S
C1542  C1624   1.410   .     A
C1542  C635    1.464   1_565 S
C1542  C598    1.410   1_565 S
C1543  C1650   1.451   .     S
C1543  C1620   1.405   .     A
C1544  C1649   1.476   .     S
C1544  C1626   1.418   .     S
C1545  C1648   1.450   .     S
C1545  C1627   1.403   .     A
C1545  C1123   1.403   1_655 S
C1546  C1633   1.410   .     A
C1546  C1647   1.464   .     S
C1546  C1120   1.407   1_655 S
C1547  C630    1.451   1_565 S
C1547  C1634   1.405   .     A
C1547  C613    1.405   1_565 S
C1548  C1630   1.394   .     A
C1548  C1644   1.397   .     A
C1548  H1732   1.084   .     S
C1549  C629    1.476   1_565 S
C1549  C1630   1.418   .     A
C1549  C619    1.418   1_565 S
C1550  H1787   1.111   .     S
C1550  C1551   1.522   .     S
C1550  O1981   1.420   .     S
C1550  H1798   1.113   .     S
C1551  H1809   1.111   .     S
C1551  H1831   1.110   .     S
C1551  H1821   1.110   .     S
C1552  H1833   1.110   .     S
C1552  O1982   1.419   .     S
C1552  H1832   1.111   .     S
C1552  C1553   1.522   .     S
C1553  H1834   1.109   .     S
C1553  H1835   1.110   .     S
C1553  H1836   1.111   .     S
C1554  O1983   1.417   .     S
C1554  H1837   1.114   .     S
C1554  C1555   1.521   .     S
C1554  H1838   1.110   .     S
C1555  H1841   1.111   .     S
C1555  H1839   1.111   .     S
C1555  H1842   1.111   .     S
C1556  O1984   1.416   .     S
C1556  H1843   1.110   .     S
C1556  C1557   1.521   .     S
C1556  H1844   1.113   .     S
C1557  H1845   1.110   .     S
C1557  H1846   1.110   .     S
C1557  H1847   1.110   .     S
C1558  C1560   1.522   .     S
C1558  H1848   1.111   .     S
C1558  H1849   1.112   .     S
C1558  O1985   1.420   .     S
C1559  H1743   1.082   .     S
C1559  C1631   1.395   .     A
C1560  H1853   1.110   .     S
C1560  H1852   1.110   .     S
C1560  H1850   1.111   .     S
C1561  O1986   1.419   .     S
C1561  H1855   1.110   .     S
C1561  H1854   1.111   .     S
C1561  C1562   1.522   .     S
C1562  H1857   1.110   .     S
C1562  H1858   1.111   .     S
C1562  H1856   1.109   .     S
C1563  H1859   1.114   .     S
C1563  C1564   1.521   .     S
C1563  O1987   1.417   .     S
C1563  H1860   1.110   .     S
C1564  H1861   1.111   .     S
C1564  H1863   1.111   .     S
C1564  H1864   1.111   .     S
C1565  O1989   1.416   .     S
C1565  C1566   1.521   .     S
C1565  H1865   1.110   .     S
C1565  H1866   1.113   .     S
C1566  H1868   1.110   .     S
C1566  H1869   1.110   .     S
C1566  H1867   1.110   .     S
C1567  O1990   1.417   .     S
C1567  C1568   1.521   .     S
C1567  H1871   1.118   .     S
C1567  H1870   1.110   .     S
C1568  H1875   1.110   .     S
C1568  H1872   1.111   .     S
C1568  H1874   1.109   .     S
C1569  C1571   1.521   .     S
C1569  H1877   1.110   .     S
C1569  H1876   1.112   .     S
C1569  O1991   1.412   .     S
C1570  C1641   1.404   .     A
C1570  H1754   1.082   .     S
C1570  C1633   1.399   .     A
C1571  H1880   1.111   .     S
C1571  H1878   1.109   .     S
C1571  H1879   1.111   .     S
C1572  H1882   1.116   .     S
C1572  C1573   1.523   .     S
C1572  O1992   1.414   .     S
C1572  H1881   1.107   .     S
C1573  H1885   1.111   .     S
C1573  H1883   1.107   .     S
C1574  H1887   1.116   .     S
C1574  C1575   1.524   .     S
C1574  O1993   1.415   .     S
C1574  H1888   1.108   .     S
C1575  H1890   1.107   .     S
C1575  H1889   1.111   .     S
C1575  H1383   1.111   1_655 S
C1576  H1893   1.118   .     S
C1576  C1577   1.521   .     S
C1576  H1892   1.110   .     S
C1576  O1994   1.417   .     S
C1577  H1894   1.109   .     S
C1577  H1897   1.111   .     S
C1577  H1896   1.110   .     S
C1578  H1898   1.112   .     S
C1578  O1995   1.412   .     S
C1578  C1579   1.521   .     S
C1578  H1899   1.110   .     S
C1579  H1900   1.109   .     S
C1579  H1901   1.111   .     S
C1579  H1902   1.111   .     S
C1580  O1996   1.414   .     S
C1580  H1904   1.116   .     S
C1580  C1582   1.523   .     S
C1580  H1903   1.107   .     S
C1581  C1642   1.402   .     A
C1581  H1765   1.083   .     S
C1581  C1634   1.394   .     A
C1582  H1907   1.111   .     S
C1582  H1905   1.107   .     S
C1582  H1400   1.111   1_655 S
C1583  C1584   1.524   .     S
C1583  H1910   1.108   .     S
C1583  O1997   1.415   .     S
C1583  H1909   1.116   .     S
C1584  H1912   1.107   .     S
C1584  H1911   1.111   .     S
C1585  C1586   1.522   .     S
C1585  H1915   1.112   .     S
C1585  O1998   1.420   .     S
C1585  H1914   1.111   .     S
C1586  H1712   1.110   .     S
C1586  H1916   1.110   .     S
C1586  H1711   1.111   .     S
C1587  O2000   1.419   .     S
C1587  H1714   1.110   .     S
C1587  C1588   1.523   .     S
C1587  H1713   1.110   .     S
C1588  H1716   1.110   .     S
C1588  H1715   1.108   .     S
C1588  H1717   1.111   .     S
C1589  O2001   1.417   .     S
C1589  H1718   1.114   .     S
C1589  H1719   1.110   .     S
C1589  C1590   1.521   .     S
C1590  H1722   1.111   .     S
C1590  H1723   1.111   .     S
C1590  H1720   1.111   .     S
C1591  H1724   1.110   .     S
C1591  O2002   1.416   .     S
C1591  H1725   1.113   .     S
C1591  C1593   1.521   .     S
C1592  H1776   1.084   .     S
C1592  C1635   1.393   .     A
C1593  H1726   1.110   .     S
C1593  H1728   1.110   .     S
C1593  H1727   1.110   .     S
C1594  O2003   1.420   .     S
C1594  H1729   1.111   .     S
C1594  C1595   1.522   .     S
C1594  H1730   1.112   .     S
C1595  H1731   1.110   .     S
C1595  H1733   1.111   .     S
C1595  H1734   1.110   .     S
C1596  C1597   1.522   .     S
C1596  H1735   1.111   .     S
C1596  H1736   1.110   .     S
C1596  O2004   1.419   .     S
C1597  H1738   1.110   .     S
C1597  H1737   1.109   .     S
C1597  H1739   1.111   .     S
C1598  O2005   1.417   .     S
C1598  H1741   1.110   .     S
C1598  C1599   1.521   .     S
C1598  H1740   1.114   .     S
C1599  H1744   1.111   .     S
C1599  H1742   1.111   .     S
C1599  H1745   1.111   .     S
C1600  O2006   1.416   .     S
C1600  H1747   1.113   .     S
C1600  C1601   1.521   .     S
C1600  H1746   1.110   .     S
C1601  H1750   1.110   .     S
C1601  H1749   1.110   .     S
C1601  H1748   1.110   .     S
C1602  C1604   1.521   .     S
C1602  H1751   1.110   .     S
C1602  O2007   1.417   .     S
C1602  H1752   1.118   .     S
C1603  N1917   1.433   .     S
C1603  C525    1.403   1_565 S
C1604  H1756   1.111   .     S
C1604  H1753   1.111   .     S
C1604  H1755   1.109   .     S
C1605  O2008   1.412   .     S
C1605  H1758   1.110   .     S
C1605  C1606   1.521   .     S
C1605  H1757   1.112   .     S
C1606  H1759   1.109   .     S
C1606  H1761   1.111   .     S
C1606  H1760   1.111   .     S
C1607  C1608   1.523   .     S
C1607  O2009   1.414   .     S
C1607  H1762   1.107   .     S
C1607  H1763   1.116   .     S
C1608  H1767   1.111   .     S
C1608  H1764   1.107   .     S
C1608  H1766   1.111   .     S
C1609  H1768   1.116   .     S
C1609  C1610   1.524   .     S
C1609  H1769   1.108   .     S
C1609  O2011   1.415   .     S
C1610  H1771   1.107   .     S
C1610  H1772   1.111   .     S
C1610  H1770   1.111   .     S
C1611  H1774   1.118   .     S
C1611  O2012   1.417   .     S
C1611  H1773   1.110   .     S
C1611  C1612   1.521   .     S
C1612  H1777   1.109   .     S
C1612  H1778   1.110   .     S
C1612  H1775   1.111   .     S
C1613  C1615   1.521   .     S
C1613  H1780   1.110   .     S
C1613  O2013   1.412   .     S
C1613  H1779   1.112   .     S
C1614  N1925   1.438   .     S
C1614  C1621   1.397   .     A
C1615  H1782   1.111   .     S
C1615  H1783   1.111   .     S
C1615  H1781   1.109   .     S
C1616  O2014   1.414   .     S
C1616  H1785   1.116   .     S
C1616  C1617   1.523   .     S
C1616  H1784   1.107   .     S
C1617  H1786   1.106   .     S
C1617  H1789   1.111   .     S
C1617  H1788   1.111   .     S
C1618  H1791   1.108   .     S
C1618  C1619   1.524   .     S
C1618  H1790   1.116   .     S
C1618  O2015   1.415   .     S
C1619  H1794   1.111   .     S
C1619  H1793   1.107   .     S
C1619  H1792   1.111   .     S
C1620  N1926   1.433   .     S
C1620  C1632   1.394   .     A
C1621  H1820   1.082   .     S
C1621  C1637   1.403   .     A
C1622  C1036   1.418   1_655 A
C1622  C1643   1.394   .     A
C1622  N1927   1.434   .     S
C1623  N1928   1.433   .     S
C1623  C1654   1.395   .     A
C1624  N1929   1.438   .     S
C1624  C1665   1.397   .     A
C1625  C1676   1.394   .     A
C1625  N1930   1.433   .     S
C1625  C1035   1.405   1_655 S
C1626  C1687   1.394   .     A
C1626  N1931   1.434   .     S
C1627  C1698   1.395   .     A
C1627  N1932   1.433   .     S
C1628  N1918   1.432   .     S
C1629  N1919   1.433   .     S
C1630  N1920   1.434   .     S
C1631  N1921   1.433   .     S
C1632  C1638   1.402   .     A
C1632  H1840   1.083   .     S
C1633  N1922   1.438   .     S
C1634  N1923   1.433   .     S
C1635  N1924   1.434   .     S
C1636  C1654   1.406   .     A
C1636  C1637   1.480   1_554 S
C1637  C1636   1.480   1_556 S
C1638  C1639   1.468   1_554 S
C1639  C1687   1.397   .     A
C1639  C1638   1.468   1_556 S
C1640  C1698   1.406   .     A
C1640  C1641   1.479   .     S
C1640  C1051   1.406   1_655 S
C1641  C1018   1.402   1_655 S
C1642  C1644   1.468   .     S
C1642  C521    1.402   1_565 S
C1643  H1851   1.084   .     S
C1643  C1131   1.397   1_655 S
C1644  C576    1.397   1_565 S
C1645  O2016   1.287   .     S
C1646  O1988   1.280   .     S
C1647  O1935   1.280   .     A
C1647  O1491   1.281   1_655 S
C1648  O2010   1.276   .     A
C1648  O1428   1.277   1_655 S
C1649  O1937   1.287   .     S
C1649  O1941   1.287   .     S
C1650  O1938   1.280   .     A
C1650  O1942   1.280   .     A
C1651  O1939   1.280   .     S
C1651  O1943   1.280   .     S
C1652  O1940   1.276   .     S
C1652  O1945   1.277   .     S
C1653  O1974   1.278   .     A
C1653  C1708   1.452   .     S
C1653  O1946   1.281   .     A
C1654  H1862   1.082   .     S
C1655  O1975   1.279   .     A
C1655  O1947   1.280   .     A
C1656  O1948   1.279   .     A
C1656  O1972   1.285   .     A
C1657  O1973   1.284   .     A
C1657  O1949   1.278   .     A
C1658  O1950   1.282   .     A
C1658  O1979   1.278   .     A
C1659  O1951   1.281   .     A
C1659  O1980   1.279   .     A
C1660  O1976   1.285   .     A
C1660  O1952   1.278   .     A
C1660  C1706   1.471   .     S
C1661  O1978   1.284   .     A
C1661  C1707   1.470   .     S
C1661  O1953   1.278   .     A
C1662  O1954   1.284   .     A
C1662  O1965   1.279   .     A
C1663  O1967   1.278   .     A
C1663  O1956   1.284   .     A
C1664  O1957   1.278   .     A
C1664  O1963   1.281   .     A
C1665  H1873   1.082   .     S
C1665  C621    1.403   1_565 S
C1666  O1958   1.279   .     A
C1666  O1964   1.280   .     A
C1667  O1970   1.279   .     A
C1667  O1959   1.284   .     A
C1668  O1971   1.278   .     A
C1668  O1960   1.284   .     A
C1669  O1968   1.282   .     A
C1669  O1961   1.278   .     A
C1670  O1969   1.281   .     A
C1670  O1962   1.279   .     A
C1671  C1688   1.401   .     A
C1671  O1981   1.385   .     S
C1672  C1686   1.403   .     A
C1672  O1982   1.384   .     S
C1673  O1983   1.388   .     S
C1673  C1685   1.394   .     A
C1674  C1684   1.396   .     A
C1674  O1984   1.387   .     S
C1675  O1985   1.385   .     S
C1675  C1683   1.401   .     A
C1676  H1884   1.083   .     S
C1676  C1130   1.402   1_655 S
C1677  C1682   1.403   .     A
C1677  O1986   1.384   .     S
C1678  O1987   1.388   .     S
C1678  C1681   1.394   .     A
C1679  C1680   1.396   .     A
C1679  O1989   1.387   .     S
C1680  O1990   1.387   .     S
C1681  O1991   1.385   .     S
C1682  O1992   1.394   .     S
C1683  O1993   1.393   .     S
C1684  O1994   1.387   .     S
C1685  C1708   1.412   .     A
C1685  O1995   1.386   .     S
C1686  O1996   1.394   .     S
C1686  C1707   1.409   .     A
C1687  H1895   1.084   .     S
C1688  O1997   1.393   .     S
C1688  C1706   1.411   .     A
C1689  C1707   1.418   .     A
C1689  O1998   1.385   .     S
C1689  C1705   1.401   .     A
C1690  O2000   1.384   .     S
C1690  C1706   1.422   .     A
C1690  C1704   1.405   .     A
C1691  O2001   1.388   .     S
C1691  C1703   1.394   .     A
C1692  O2002   1.387   .     S
C1692  C1708   1.412   .     A
C1692  C1702   1.396   .     A
C1693  C1701   1.400   .     A
C1693  O2003   1.385   .     S
C1694  C1700   1.403   .     A
C1694  O2004   1.384   .     S
C1695  C1699   1.394   .     A
C1695  O2005   1.388   .     S
C1696  C1697   1.396   .     A
C1696  O2006   1.387   .     S
C1697  O2007   1.387   .     S
C1698  H1906   1.082   .     S
C1699  O2008   1.385   .     S
C1700  O2009   1.394   .     S
C1701  O2011   1.393   .     S
C1702  O2012   1.387   .     S
C1703  O2013   1.385   .     S
C1704  O2014   1.394   .     S
C1705  O2015   1.393   .     S
H1795  N1917   1.045   .     S
H1796  N1917   1.045   .     S
H1797  N1925   1.046   .     S
H1799  N1925   1.046   .     S
H1800  N1926   1.046   .     S
H1801  N1926   1.046   .     S
H1802  N1927   1.046   .     S
H1804  N1928   1.045   .     S
H1805  N1928   1.045   .     S
H1806  N1929   1.046   .     S
H1807  N1929   1.046   .     S
H1808  N1930   1.046   .     S
H1810  N1930   1.046   .     S
H1811  N1931   1.046   .     S
H1812  N1423   1.046   1_655 S
H1813  N1932   1.045   .     S
H1814  N1932   1.045   .     S
H1815  N1918   1.046   .     S
H1816  N1918   1.044   .     S
H1817  N1919   1.046   .     S
H1818  N1919   1.046   .     S
H1819  N1920   1.046   .     S
H1822  N1920   1.046   .     S
H1823  N1921   1.045   .     S
H1824  N1921   1.045   .     S
H1825  N1922   1.046   .     S
H1826  N1922   1.046   .     S
H1827  N1923   1.046   .     S
H1828  N1923   1.046   .     S
H1829  N1924   1.046   .     S
H1830  N1924   1.046   .     S
H1886  C1065   1.111   1_655 S
H1913  C1076   1.111   1_655 S
N1927  H1295   1.046   1_655 S
O1933  Zn2017  1.945   .     S
O1933  Zn2028  1.945   .     S
O1933  Zn2020  1.950   .     S
O1934  C630    1.280   1_565 A
O1934  Zn2019  1.939   .     S
O1935  Zn2022  1.938   .     S
O1936  Zn2021  1.938   .     S
O1937  Zn2031  1.939   .     S
O1938  Zn2030  1.939   .     S
O1939  Zn2025  1.938   .     S
O1940  Zn2017  1.938   .     S
O1941  Zn2027  1.939   .     S
O1942  Zn2026  1.939   .     S
O1943  Zn2029  1.938   .     S
O1944  Zn2029  1.945   .     S
O1944  Zn2023  1.950   .     S
O1944  Zn2025  1.945   .     S
O1945  Zn2028  1.938   .     S
O1946  Zn2020  1.931   .     S
O1947  Zn2019  1.931   .     S
O1948  Zn2022  1.949   .     S
O1949  Zn2021  1.949   .     S
O1950  Zn2024  1.931   .     S
O1951  Zn2023  1.931   .     S
O1952  Zn2018  1.950   .     S
O1953  Zn2032  1.950   .     S
O1954  Zn2019  1.947   .     S
O1955  Zn2018  1.945   .     S
O1955  Zn2026  1.950   .     S
O1955  Zn2030  1.950   .     S
O1956  Zn2020  1.947   .     S
O1957  Zn2032  1.933   .     S
O1958  Zn2018  1.933   .     S
O1959  Zn2023  1.947   .     S
O1960  Zn2024  1.947   .     S
O1961  Zn2021  1.933   .     S
O1962  Zn2022  1.933   .     S
O1963  Zn1519  1.931   1_655 S
O1964  Zn2026  1.931   .     S
O1965  Zn1013  1.949   1_565 S
O1966  Zn2027  1.950   .     S
O1966  Zn2031  1.950   .     S
O1966  Zn2021  1.945   .     S
O1967  Zn2028  1.949   .     S
O1968  Zn2031  1.931   .     S
O1969  Zn1522  1.931   1_655 S
O1970  Zn2025  1.950   .     S
O1971  Zn1001  1.950   1_565 S
O1972  Zn1518  1.947   1_655 S
O1973  Zn2027  1.947   .     S
O1974  Zn2017  1.933   .     S
O1975  Zn1009  1.933   1_565 S
O1976  Zn2030  1.947   .     S
O1977  C629    1.287   1_565 A
O1977  Zn2024  1.939   .     S
O1978  Zn1523  1.947   1_655 S
O1979  Zn1012  1.933   1_565 S
O1980  Zn2029  1.933   .     S
O1988  Zn2023  1.939   .     S
O1999  Zn2018  1.938   .     S
O2010  Zn2032  1.938   .     S
O2016  Zn2020  1.939   .     S
Zn2019 O928    1.950   1_565 S
Zn2022 O1447   1.945   1_655 S
Zn2024 O917    1.950   1_565 S
Zn2032 O1458   1.945   1_655 S
